#------------------------------------------------------------------------------
#$Date: 2019-11-17 11:00:18 +0200 (Sun, 17 Nov 2019) $
#$Revision: 229474 $
#$URL: file:///home/coder/svn-repositories/cod/cif/7/04/51/7045167.cif $
#------------------------------------------------------------------------------
#
# This file is available in the Crystallography Open Database (COD),
# http://www.crystallography.net/
#
# All data on this site have been placed in the public domain by the
# contributors.
#
data_7045167
loop_
_publ_author_name
'Yan, Yang-Tian'
'Zhang, Wen-Yan'
'Zhang, Fang'
'Cao, Feng'
'Yang, Rui-Feng'
'Wang, Yao-Yu'
'Hou, Lei'
_publ_section_title
;
 Four new metal-organic frameworks based on diverse secondary building
 units: sensing and magnetic properties.
;
_journal_issue                   5
_journal_name_full
'Dalton transactions (Cambridge, England : 2003)'
_journal_page_first              1682
_journal_page_last               1692
_journal_paper_doi               10.1039/c7dt04696k
_journal_volume                  47
_journal_year                    2018
_chemical_formula_moiety         '0.25(C92 H80 O64 Zn12), C5 H9 N O, 2(H2 O)'
_chemical_formula_sum            'C28 H33 N O19 Zn3'
_chemical_formula_weight         883.66
_space_group_crystal_system      orthorhombic
_space_group_IT_number           62
_space_group_name_Hall           '-P 2ac 2n'
_space_group_name_H-M_alt        'P n m a'
_symmetry_space_group_name_Hall  '-P 2ac 2n'
_symmetry_space_group_name_H-M   'P n m a'
_atom_sites_solution_hydrogens   mixed
_audit_creation_date             2016-11-12
_audit_creation_method
;
Olex2 1.2-beta
(compiled 2016.11.07 svn.r3352 for OlexSys, GUI svn.r5261)
;
_cell_angle_alpha                90
_cell_angle_beta                 90
_cell_angle_gamma                90
_cell_formula_units_Z            4
_cell_length_a                   8.6370(10)
_cell_length_b                   20.398(2)
_cell_length_c                   18.307(2)
_cell_measurement_reflns_used    9359
_cell_measurement_temperature    296(2)
_cell_measurement_theta_max      28.43
_cell_measurement_theta_min      2.36
_cell_volume                     3225.3(6)
_computing_cell_refinement       'SAINT V8.18C (?, 2016)'
_computing_data_reduction        'SAINT V8.18C (?, 2016)'
_computing_molecular_graphics    'Olex2 (Dolomanov et al., 2009)'
_computing_publication_material  'Olex2 (Dolomanov et al., 2009)'
_computing_structure_refinement  'ShelXL (Sheldrick, 2015)'
_diffrn_ambient_temperature      296.15
_diffrn_measured_fraction_theta_full 0.995
_diffrn_measured_fraction_theta_max 0.995
_diffrn_measurement_device_type  'Bruker APEX-II CCD'
_diffrn_measurement_method       '\f and \w scans'
_diffrn_radiation_monochromator  graphite
_diffrn_radiation_type           MoK\a
_diffrn_radiation_wavelength     0.71073
_diffrn_reflns_av_R_equivalents  0.0317
_diffrn_reflns_av_unetI/netI     0.0250
_diffrn_reflns_Laue_measured_fraction_full 0.995
_diffrn_reflns_Laue_measured_fraction_max 0.995
_diffrn_reflns_limit_h_max       10
_diffrn_reflns_limit_h_min       -9
_diffrn_reflns_limit_k_max       24
_diffrn_reflns_limit_k_min       -22
_diffrn_reflns_limit_l_max       22
_diffrn_reflns_limit_l_min       -20
_diffrn_reflns_number            15434
_diffrn_reflns_point_group_measured_fraction_full 0.995
_diffrn_reflns_point_group_measured_fraction_max 0.995
_diffrn_reflns_theta_full        25.242
_diffrn_reflns_theta_max         25.347
_diffrn_reflns_theta_min         1.997
_diffrn_standards_number         0
_exptl_absorpt_coefficient_mu    2.302
_exptl_absorpt_correction_T_max  0.7457
_exptl_absorpt_correction_T_min  0.5202
_exptl_absorpt_correction_type   multi-scan
_exptl_absorpt_process_details
;
SADABS-2008/1 (Bruker,2008) was used for absorption correction.
wR2(int) was 0.0972 before and 0.0505 after correction.
The Ratio of minimum to maximum transmission is 0.6976.
The \l/2 correction factor is 0.0015.
;
_exptl_crystal_colour            colourless
_exptl_crystal_colour_primary    colourless
_exptl_crystal_density_diffrn    1.820
_exptl_crystal_description       block
_exptl_crystal_F_000             1800
_refine_diff_density_max         1.190
_refine_diff_density_min         -1.434
_refine_diff_density_rms         0.139
_refine_ls_extinction_method     none
_refine_ls_goodness_of_fit_ref   1.164
_refine_ls_hydrogen_treatment    mixed
_refine_ls_matrix_type           full
_refine_ls_number_parameters     303
_refine_ls_number_reflns         3037
_refine_ls_number_restraints     55
_refine_ls_restrained_S_all      1.183
_refine_ls_R_factor_all          0.0540
_refine_ls_R_factor_gt           0.0521
_refine_ls_shift/su_max          0.000
_refine_ls_shift/su_mean         0.000
_refine_ls_structure_factor_coef Fsqd
_refine_ls_weighting_details
'w=1/[\s^2^(Fo^2^)+(0.0470P)^2^+25.5976P] where P=(Fo^2^+2Fc^2^)/3'
_refine_ls_weighting_scheme      calc
_refine_ls_wR_factor_gt          0.1351
_refine_ls_wR_factor_ref         0.1371
_reflns_Friedel_coverage         0.000
_reflns_number_gt                2923
_reflns_number_total             3037
_reflns_threshold_expression     'I > 2\s(I)'
_cod_data_source_file            c7dt04696k1.cif
_cod_data_source_block           1
_cod_depositor_comments
'Adding full bibliography for 7045167--7045170.cif.'
_cod_original_cell_volume        3225.3(7)
_cod_database_code               7045167
_shelx_space_group_comment
;
The symmetry employed for this shelxl refinement is uniquely defined
by the following loop, which should always be used as a source of
symmetry information in preference to the above space-group names.
They are only intended as comments.
;
_olex2_refinement_description
;
1. Fixed Uiso
 At 1.2 times of:
  All C(H) groups, All C(H,H) groups
 At 1.5 times of:
  All C(H,H,H) groups, All O(H) groups, All O(H,H) groups, All O(H,H,H) groups
2. Restrained distances
 O1-H1
 0.82 with sigma of 0.02
3. Uiso/Uaniso restraints and constraints
Uanis(Zn1A) \\sim Ueq, Uanis(Zn1) \\sim Ueq: with sigma of 0.001 and sigma for
terminal atoms of 0.002
Uanis(O5) \\sim Ueq: with sigma of 0.005 and sigma for terminal atoms of 0.01
Uanis(O7) \\sim Ueq: with sigma of 0.001 and sigma for terminal atoms of 0.002
4. Rigid body (RIGU) restrains
 O12, C14, N2, C15, C16
 with sigma for 1-2 distances of 0.004 and sigma for 1-3 distances of 0.004
 O7, Zn1A, Zn1, O7A
 with sigma for 1-2 distances of 0.004 and sigma for 1-3 distances of 0.004
5. Others
 Sof(Zn1A)=1-FVAR(1)
 Sof(Zn1)=FVAR(1)
 Sof(O7A)=1-FVAR(2)
 Sof(O7)=FVAR(2)
 Fixed Sof: O12(0.5) C14(0.5) N2(0.5) C15(0.5) H15A(0.5) H15B(0.5) C16(0.5)
 H16A(0.5) H16B(0.5) C17(0.5) H17A(0.5) H17B(0.5) C18(0.5) H18A(0.5) H18B(0.5)
 H18C(0.5) O13(0.5) H13A(0.5) H13B(0.5) O14(0.5) H14A(0.5) H14B(0.5)
6.a Riding coordinates:
 O8(H8), O9(H9A,H9B), O7(H7A,H7B), O13(H13A,H13B), O14(H14A,H14B)
6.b Secondary CH2 refined with riding coordinates:
 C15(H15A,H15B), C16(H16A,H16B), C17(H17A,H17B)
6.c Aromatic/amide H refined with riding coordinates:
 C10(H10), C9(H9), C6(H6), C3(H3), C5(H5)
6.d Idealised Me refined as rotating group:
 C18(H18A,H18B,H18C)
;
_shelx_res_file
;
    1.res created by SHELXL-2014/7

TITL 1 in Pnma
CELL 0.71073 8.637 20.3977 18.3072 90 90 90
ZERR 4 0.001 0.0024 0.0022 0 0 0
LATT 1
SYMM 0.5-X,-Y,0.5+Z
SYMM -X,0.5+Y,-Z
SYMM 0.5+X,0.5-Y,0.5-Z
SFAC C H N O Zn
UNIT 112 132 4 76 12
EQIV $1 -X,0.5+Y,1-Z
EQIV $2 1-X,1-Y,1-Z
EQIV $3 -X,1-Y,1-Z
EQIV $4 -0.5+X,+Y,1.5-Z
EQIV $5 -0.5+X,0.5-Y,1.5-Z
EQIV $6 -X,-0.5+Y,1-Z
EQIV $7 0.5+X,+Y,1.5-Z
EQIV $8 0.5+X,0.5-Y,1.5-Z
DFIX 0.82 O1 H1
RIGU O12 C14 N2 C15 C16
RIGU O7 Zn1A Zn1 O7A
ISOR 0.001 0.002 Zn1A Zn1
ISOR 0.005 0.01 O5
ISOR 0.001 0.002 O7

L.S. 20
PLAN  10
TEMP 23
HTAB O8 O3
HTAB O9 O14_$1
HTAB O9 O6_$2
HTAB O7 O8_$3
HTAB O7 O12
HTAB O7A O8_$3
HTAB O7 O13
HTAB O13 O6_$4
HTAB O14 O6_$5
HTAB O14 O9_$6
HTAB O1 O14_$7
HTAB O1 O14_$8
BOND
MORE -1
BOND $H
CONF
htab
fmap 2
acta
SHEL 999 0.83
OMIT 6 0 0
OMIT 3 1 3
REM <olex2.extras>
REM <HklSrc "%.\\1.hkl">
REM </olex2.extras>

WGHT    0.047000   25.597601
FVAR       0.07886   0.92765   0.35930
PART 1
ZN1   5    0.468792    0.329102    0.527874    21.00000    0.01911    0.00796 =
         0.01124   -0.00276   -0.00449    0.00272
PART 0
ZN2   5    0.215288    0.750000    0.450315    10.50000    0.01835    0.01969 =
         0.01699    0.00000   -0.00160    0.00000
O1    4    0.550721    0.250000    0.579606    10.50000    0.01668    0.00878 =
         0.01266    0.00000   -0.00118    0.00000
O2    4    0.308675    0.674724    0.521083    11.00000    0.02118    0.02084 =
         0.01483    0.00704    0.00137    0.00297
O3    4    0.107030    0.657056    0.594256    11.00000    0.02393    0.02611 =
         0.02319    0.00771    0.00547    0.00171
O4    4    0.146518    0.805007    0.939744    11.00000    0.02318    0.00907 =
         0.01140   -0.00156    0.00647    0.00195
O8    4    0.006703    0.750000    0.504314    10.50000    0.01669    0.03431 =
         0.01937    0.00000    0.00151    0.00000
AFIX   3
H8    2    0.003483    0.718360    0.536874    11.00000   -1.50000
AFIX   0
O5    4    0.463381    0.420651    0.555033    11.00000    0.05640    0.01266 =
         0.01443   -0.00502   -0.00343    0.01099
O9    4    0.159077    0.676233    0.376904    11.00000    0.03329    0.02273 =
         0.03111   -0.00435   -0.00617   -0.00198
AFIX   3
H9A   2    0.205137    0.687263    0.336274    11.00000   -1.50000
H9B   2    0.189067    0.638633    0.385064    11.00000   -1.50000
AFIX   0
O6    4    0.587607    0.397525    0.657983    11.00000    0.06481    0.01663 =
         0.02202   -0.00247   -0.00301    0.01984
C10   1    0.280654    0.690821    0.802504    11.00000    0.01286    0.00382 =
         0.01126    0.00192   -0.00373   -0.00005
AFIX  43
H10   2    0.263624    0.651387    0.826702    11.00000   -1.20000
AFIX   0
C2    1    0.343481    0.607374    0.627555    11.00000    0.01687    0.00603 =
         0.00914    0.00318    0.00445   -0.00233
C9    1    0.363818    0.750000    0.696167    10.50000    0.00393    0.01419 =
         0.00653    0.00000    0.00173    0.00000
AFIX  43
H9    2    0.397183    0.750000    0.647868    10.50000   -1.20000
AFIX   0
C6    1    0.473276    0.583737    0.740635    11.00000    0.01936    0.01039 =
         0.00738   -0.00225   -0.00132    0.00203
AFIX  43
H6    2    0.504558    0.596802    0.787013    11.00000   -1.20000
AFIX   0
C3    1    0.387613    0.545938    0.601735    11.00000    0.02534    0.00862 =
         0.00848   -0.00277    0.00081   -0.00055
AFIX  43
H3    2    0.360985    0.533639    0.554460    11.00000   -1.20000
AFIX   0
C8    1    0.339193    0.690501    0.731816    11.00000    0.00974    0.00699 =
         0.01097   -0.00064   -0.00178   -0.00055
C5    1    0.516804    0.522743    0.715223    11.00000    0.02358    0.01035 =
         0.01314    0.00359    0.00035    0.00497
AFIX  43
H5    2    0.576353    0.495184    0.744350    11.00000   -1.20000
AFIX   0
C7    1    0.383345    0.626417    0.698462    11.00000    0.00984    0.00605 =
         0.01038   -0.00054    0.00507   -0.00245
C1    1    0.243387    0.649745    0.578862    11.00000    0.01231    0.00751 =
         0.01244   -0.00225   -0.00122   -0.00245
C13   1    0.511022    0.435763    0.618304    11.00000    0.04860    0.00893 =
         0.01380   -0.00128    0.00375    0.00344
C11   1    0.247254    0.750000    0.837410    10.50000    0.00921    0.01056 =
         0.00543    0.00000   -0.00087    0.00000
C4    1    0.470938    0.502562    0.645447    11.00000    0.02931    0.00563 =
         0.01022   -0.00149    0.00058    0.00261
C12   1    0.177323    0.750000    0.911838    10.50000    0.00467    0.01072 =
         0.00694    0.00000   -0.00162    0.00000
PART 1
O7    4    0.230103    0.301006    0.587096    31.00000    0.03157    0.03249 =
         0.03112    0.00051   -0.00051    0.00053
PART 0
AFIX   3
H7A   2    0.152173    0.323036    0.566846    11.00000   -1.50000
H7B   2    0.238713    0.315216    0.632956    11.00000   -1.50000
AFIX   0

PART -1
O12   4    0.048218    0.412772    0.572826    10.50000    0.02169    0.02467 =
         0.03286    0.00713   -0.00066    0.00230
C14   1    0.048597    0.454245    0.521477    10.50000    0.01790    0.01999 =
         0.02205   -0.00262   -0.00339   -0.00306
N2    3   -0.042481    0.506446    0.518509    10.50000    0.02159    0.02143 =
         0.02057   -0.00297   -0.00442   -0.00067
C15   1    0.148429    0.451417    0.454560    10.50000    0.02445    0.01348 =
         0.02327   -0.00405   -0.00168   -0.00235
AFIX  23
H15A  2    0.257135    0.454964    0.467271    10.50000   -1.20000
H15B  2    0.132025    0.410838    0.428041    10.50000   -1.20000
AFIX   0
C16   1    0.098744    0.507319    0.411768    10.50000    0.15497    0.07524 =
         0.04666    0.03569    0.06692    0.08819
AFIX  23
H16A  2    0.053308    0.492326    0.366284    10.50000   -1.20000
H16B  2    0.187420    0.534566    0.400126    10.50000   -1.20000
AFIX   0
C17   1   -0.017739    0.546642    0.453581    10.50000    0.02953    0.01724 =
         0.01850   -0.00188   -0.00322   -0.00100
AFIX  23
H17A  2    0.022781    0.589495    0.466317    10.50000   -1.20000
H17B  2   -0.112802    0.552012    0.426010    10.50000   -1.20000
AFIX   0
C18   1   -0.150561    0.526250    0.574220    10.50000    0.01964    0.02531 =
         0.03160   -0.00019    0.00306    0.00604
AFIX 137
H18A  2   -0.253676    0.525620    0.554658    10.50000   -1.50000
H18B  2   -0.125861    0.569792    0.590356    10.50000   -1.50000
H18C  2   -0.144177    0.496537    0.614775    10.50000   -1.50000
AFIX   0

PART 0
PART 2
ZN1A  5    0.410539    0.321201    0.544266   -21.00000    0.01009    0.00941 =
         0.00988   -0.00049   -0.00065    0.00031
O7A   4    0.263701    0.323895    0.592870   -31.00000    0.03875    0.03845 =
         0.05562    0.01900    0.03424    0.00964

PART 0
PART -1
O13   4    0.092241    0.338000    0.711621    10.50000    0.08657    0.19656 =
         0.04451   -0.06442   -0.01145    0.04150
AFIX   3
H13A  2    0.086841    0.343230    0.758051    10.50000   -1.50000
H13B  2    0.050291    0.368300    0.689931    10.50000   -1.50000
AFIX   0
O14   4   -0.027204    0.215875    0.768012    10.50000    0.30415    0.10240 =
         0.03317    0.01374   -0.06014   -0.00557
AFIX   3
H14A  2   -0.026594    0.176105    0.782332    10.50000   -1.50000
H14B  2   -0.007664    0.234165    0.727272    10.50000   -1.50000
AFIX   0
PART 0
H1    2    0.510208    0.250000    0.619756    10.50000   -1.50000
HKLF 4

REM  1 in Pnma
REM R1 =  0.0521 for    2923 Fo > 4sig(Fo)  and  0.0540 for all    3037 data
REM    303 parameters refined using     55 restraints

END

WGHT      0.0470     25.5976

REM Instructions for potential hydrogen bonds
HTAB O8 O3
HTAB O9 O14_$1
HTAB O9 O6_$2
HTAB O7 O8_$3
HTAB O7 O12
HTAB O7A O8_$3
HTAB O7 O13
HTAB C15 O5
HTAB C15 O3_$3
HTAB C16 O6_$2
HTAB O13 O6_$4
HTAB O14 O6_$5
HTAB O14 O9_$6
HTAB O1 O14_$7
HTAB O1 O14_$8

REM Highest difference peak  1.190,  deepest hole -1.434,  1-sigma level  0.139
Q1    1   0.1972  0.3137  0.7325  11.00000  0.05    1.19
Q2    1   0.5332  0.3337  0.5094  11.00000  0.05    0.89
Q3    1   0.3513  0.3122  0.5602  11.00000  0.05    0.67
Q4    1   0.2908  0.3588  0.7520  11.00000  0.05    0.60
Q5    1   0.1244  0.2500  0.7684  10.50000  0.05    0.57
Q6    1   0.3973  0.4118  0.5648  11.00000  0.05    0.55
Q7    1   0.5623  0.2500  0.6335  10.50000  0.05    0.54
Q8    1   0.3983  0.5816  0.6115  11.00000  0.05    0.50
Q9    1  -0.1337  0.2500  0.7777  10.50000  0.05    0.48
Q10   1   0.5062  0.4718  0.6292  11.00000  0.05    0.48
;
_shelx_res_checksum              3547
_shelx_hkl_file
;
  -2   0   0  303.78   11.23
   4   0   0  201.15    7.15
  -4   0   0  184.06    7.16
   5   0   0    0.28    0.07
   6   0   0    0.02    0.04
   7   0   0    0.25    0.19
   8   0   0    6.45    0.50
   9   0   0    1.53    0.35
  10   0   0    5.67    0.55
   0   0   1   -1.14    0.02
   1   0   1  444.62   17.29
  -3   0   1  158.43    5.61
   3   0   1  143.08    5.88
  -4   0   1   45.33    1.75
   4   0   1   46.70    1.72
   4   0   1   44.97    1.84
  -5   0   1    4.95    0.30
   5   0   1    4.69    0.31
   5   0  -1    4.73    0.22
   5   0   1    4.72    0.23
   5   0  -1    3.71    0.29
   6   0   1    0.09    0.05
   6   0  -1    0.63    0.10
   7   0  -1   31.65    1.35
   7   0   1   29.58    1.33
   8   0   1    5.29    0.42
   8   0  -1    4.68    0.41
   9   0   1   17.84    0.99
   9   0  -1   20.62    1.02
  10   0   1    7.21    0.62
  10   0  -1    7.03    0.58
   0   0   2 1000.00   38.75
   1   0   2    0.38    0.06
   2   0  -2   51.15    2.06
   2   0   2   52.39    2.05
   3   0   2   82.96    3.12
   3   0   2   84.20    3.29
   4   0   2  152.99    6.14
   4   0   2  159.01    5.83
  -4   0   2  158.92    5.85
   4   0  -2  156.62    6.15
   5   0  -2   27.39    1.02
  -5   0   2   26.50    1.08
   5   0   2   26.17    1.13
   5   0  -2   24.61    1.13
   5   0   2   28.54    1.04
   6   0  -2    6.87    0.41
   6   0   2    6.64    0.42
   7   0   2    0.46    0.22
   7   0  -2    0.33    0.21
   8   0   2    4.13    0.38
   8   0  -2    4.14    0.40
   9   0   2   11.07    0.69
   9   0  -2   11.45    0.73
  10   0   2    1.82    0.40
  10   0  -2    1.84    0.40
   0   0   3   -0.02    0.03
   1   0   3    8.92    0.39
   1   0   3    9.29    0.37
   1   0  -3    9.66    0.40
   2   0  -3   15.09    0.70
   2   0   3   18.25    0.70
   2   0   3   17.50    0.66
  -2   0   3   16.62    0.67
   3   0   3    7.40    0.31
   3   0   3    6.68    0.34
   4   0  -3    1.27    0.16
   4   0   3    1.33    0.15
   4   0   3    1.27    0.11
   5   0  -3   11.89    0.56
   5   0   3    9.26    0.46
   5   0  -3   12.00    0.45
   5   0   3   11.83    0.54
  -5   0   3   11.08    0.52
   6   0   3   53.83    2.13
   6   0  -3   50.04    2.14
   7   0   3    0.85    0.23
   7   0  -3    0.46    0.20
   8   0  -3    0.48    0.25
   8   0   3    0.78    0.24
   9   0   3   10.13    0.69
   9   0  -3   10.50    0.66
  10   0   3    5.47    0.55
  10   0  -3    5.75    0.56
   0   0   4  105.20    3.95
   0   0   4   98.03    3.79
   1   0   4    0.04    0.05
  -1   0   4    0.12    0.06
  -1   0   4    0.04    0.06
   1   0   4    0.04    0.05
   1   0  -4    0.21    0.07
   2   0  -4  245.80    9.34
  -2   0   4  233.16    8.89
   2   0   4  245.28    9.32
  -2   0   4  229.92    8.91
   2   0   4  246.42    8.91
   3   0   4   19.87    0.85
   3   0   4   22.26    0.81
  -3   0   4   19.27    0.82
  -4   0   4  180.73    6.91
   4   0  -4  184.27    7.26
   4   0   4  191.14    7.24
   5   0  -4  195.81    7.88
   5   0   4  206.36    7.87
   6   0   4   30.64    1.33
   6   0  -4   31.63    1.35
   7   0  -4    5.12    0.42
   7   0   4    4.98    0.41
   8   0   4    3.32    0.37
   8   0  -4    3.54    0.36
   9   0  -4    9.78    0.67
   9   0   4    9.39    0.67
  10   0   4    0.54    0.35
  10   0  -4    0.65    0.36
   0   0  -5    0.03    0.05
   0   0   5   -0.10    0.05
  -1   0   5  133.86    4.86
   1   0   5  126.88    4.88
  -1   0   5  127.88    4.88
   1   0   5  131.48    5.09
   1   0  -5  134.26    5.10
   2   0   5   41.08    1.65
   2   0   5   46.66    1.73
   2   0  -5   45.37    1.74
  -2   0   5   38.98    1.65
  -2   0   5   45.58    1.66
  -3   0   5    3.65    0.23
   3   0   5    4.04    0.23
  -3   0   5    4.17    0.21
   4   0   5   19.43    0.79
  -4   0   5   16.50    0.76
   4   0  -5   18.13    0.80
   5   0   5    1.69    0.16
   5   0   5    1.58    0.20
  -5   0   5    1.69    0.19
   5   0  -5    1.33    0.21
   6   0  -5  124.30    5.03
   6   0   5  122.74    5.02
   6   0   5  133.02    4.76
   7   0  -5    9.04    0.54
   7   0   5    7.60    0.51
  -7   0   5    7.70    0.50
   8   0  -5    0.36    0.27
   8   0   5    0.35    0.23
   9   0  -5   -0.05    0.29
   9   0   5    0.09    0.25
  10   0  -5   18.33    1.01
  10   0   5   16.90    0.95
   0   0  -6  139.67    5.39
   0   0   6  139.59    5.12
   0   0   6  135.62    5.17
  -1   0   6    1.84    0.13
   1   0  -6    2.15    0.14
  -1   0   6    2.69    0.16
   1   0   6    1.97    0.14
  -2   0   6   69.28    2.56
   2   0  -6   64.54    2.68
   2   0   6   69.74    2.67
   3   0  -6  275.77    9.88
  -3   0   6  232.57    9.41
   3   0   6  257.92    9.86
   3   0   6  253.50    9.42
  -3   0   6  247.39    9.40
   4   0  -6   31.09    1.29
  -4   0   6   30.07    1.23
   4   0   6   30.81    1.21
   4   0   6   30.96    1.28
   5   0  -6   34.06    1.50
   5   0   6   36.08    1.49
  -5   0   6   35.95    1.43
   5   0   6   36.69    1.40
  -6   0   6    4.29    0.37
   6   0   6    6.39    0.34
   6   0  -6    6.51    0.41
   6   0   6    5.55    0.38
   7   0  -6   58.29    2.44
  -7   0   6   59.08    2.32
   7   0   6   58.99    2.43
   8   0  -6    1.05    0.26
   8   0   6    1.60    0.31
   9   0  -6   17.90    0.95
   9   0   6   16.84    0.91
  10   0  -6    1.03    0.33
  10   0   6    1.34    0.38
   0   0  -7    0.07    0.07
   0   0   7    0.09    0.05
   0   0   7    0.18    0.09
   1   0   7    1.72    0.15
   1   0   7    2.19    0.15
  -1   0   7    2.32    0.14
   1   0  -7    2.35    0.16
  -1   0   7    2.22    0.17
   2   0   7   48.90    1.80
  -2   0   7   45.96    1.79
   2   0   7   45.83    1.87
   3   0   7    2.98    0.21
  -3   0   7    2.65    0.18
  -3   0   7    2.67    0.22
   3   0  -7    2.43    0.22
  -4   0   7   20.65    0.85
   4   0  -7   19.66    0.89
   4   0   7   20.65    0.83
   4   0   7   19.97    0.87
  -5   0   7   15.63    0.73
   5   0  -7   15.64    0.76
   5   0   7   15.97    0.74
   5   0   7   17.68    0.70
  -6   0   7  152.27    5.75
   6   0   7  149.20    6.03
   6   0  -7  153.98    6.05
   6   0   7  155.24    5.74
   7   0   7   31.64    1.41
   7   0  -7   32.27    1.44
  -7   0   7   33.45    1.37
   8   0   7   -0.07    0.21
   8   0  -7    0.43    0.27
   9   0  -7    6.60    0.55
   9   0   7    6.86    0.58
  10   0   7   29.79    1.47
  10   0  -7   31.60    1.49
   0   0   8   31.34    1.23
   0   0  -8   34.94    1.31
   0   0   8   31.12    1.27
  -1   0   8   84.84    3.10
  -1   0   8   89.31    3.07
   1   0   8   82.65    3.22
   1   0   8   71.72    3.09
   1   0  -8   80.28    3.22
   2   0   8  104.89    3.95
   2   0   8  101.24    3.79
  -2   0   8   98.79    3.78
  -2   0   8   97.14    3.76
   3   0   8   59.32    2.36
   3   0   8   59.18    2.26
  -3   0   8   60.25    2.26
  -3   0   8   57.13    2.25
   3   0  -8   59.43    2.37
  -4   0   8    0.85    0.15
  -4   0   8    1.35    0.15
   4   0   8    1.27    0.17
   4   0   8    1.37    0.17
   4   0  -8    1.77    0.20
   5   0   8   45.10    1.75
   5   0   8   43.03    1.83
  -5   0   8   43.12    1.75
   5   0  -8   47.20    1.86
   6   0  -8   51.14    2.04
   6   0   8   47.19    1.90
  -6   0   8   48.08    1.92
   6   0   8   47.29    2.01
   7   0  -8  168.64    6.69
  -7   0   8  169.72    6.36
   7   0   8  167.41    6.67
   8   0  -8    1.10    0.31
   8   0   8    1.25    0.30
   9   0  -8   18.70    1.01
   9   0   8   18.73    0.99
  10   0  -8    0.24    0.35
  10   0   8   -0.21    0.28
   0   0   9    0.83    0.13
   0   0  -9    0.44    0.09
   0   0   9    0.88    0.09
   1   0   9    2.71    0.19
  -1   0   9    2.66    0.16
   2   0   9  139.73    5.13
  -2   0   9  138.55    5.09
  -2   0   9  131.62    5.12
   2   0  -9  138.65    5.35
   2   0   9  133.66    5.34
  -3   0   9    8.59    0.43
  -3   0   9    9.66    0.44
   3   0   9    9.15    0.45
   3   0  -9    9.02    0.46
   3   0   9    9.56    0.45
  -4   0   9   25.11    1.04
   4   0   9   26.52    1.05
  -4   0   9   25.92    1.02
   4   0   9   26.10    1.08
   4   0  -9   23.18    1.10
  -5   0   9   63.29    2.41
   5   0   9   63.27    2.41
   5   0  -9   62.80    2.53
   5   0   9   59.35    2.51
  -6   0   9  147.92    5.42
   6   0   9  141.51    5.67
   6   0   9  141.45    5.41
   6   0  -9  142.44    5.69
   7   0  -9    5.04    0.42
  -7   0   9    5.37    0.44
   7   0   9    4.25    0.40
   8   0   9   60.06    2.48
   8   0  -9   56.33    2.48
  -8   0   9   60.57    2.37
   9   0  -9    8.49    0.67
   9   0   9   10.31    0.68
  10   0   9    7.03    0.60
  10   0  -9    7.17    0.63
   0   0  10   47.61    1.79
   0   0  10   47.34    1.84
   1   0  10   48.21    1.79
  -1   0  10   46.95    1.85
   1   0  10   47.59    1.91
   2   0  10    2.36    0.20
  -2   0  10    2.97    0.23
   2   0 -10    2.44    0.21
  -2   0  10    2.64    0.20
   2   0  10    2.40    0.22
   3   0 -10   60.97    2.59
  -3   0  10   65.64    2.46
  -3   0  10   64.88    2.47
   3   0  10   67.07    2.49
   3   0  10   63.74    2.57
   4   0 -10   24.72    1.13
   4   0  10   25.98    1.08
  -4   0  10   25.53    1.05
  -4   0  10   26.21    1.07
   4   0  10   27.85    1.12
  -5   0  10   14.52    0.69
   5   0 -10   16.14    0.74
   5   0  10   14.76    0.69
   5   0  10   14.33    0.70
   6   0  10    2.40    0.25
  -6   0  10    2.65    0.27
   6   0  10    2.50    0.29
   6   0 -10    2.30    0.30
   7   0 -10   70.53    3.06
   7   0  10   74.16    3.04
  -7   0  10   78.70    2.92
   8   0  10    9.03    0.62
   8   0 -10    8.42    0.58
  -8   0  10    9.28    0.61
   9   0  10   13.05    0.81
   9   0 -10   13.87    0.82
  10   0  10    1.77    0.37
  10   0 -10    1.95    0.42
   0   0  11    0.00    0.13
   0   0  11    0.08    0.07
   0   0 -11   -0.01    0.10
   1   0  11  145.27    5.12
   1   0 -11  133.69    5.12
   1   0  11  131.05    4.84
  -1   0  11  128.83    4.92
  -1   0  11  113.87    4.86
   2   0  11  131.66    5.27
  -2   0  11  141.39    5.02
   2   0 -11  128.06    5.27
   2   0  11  134.79    5.07
  -2   0  11  135.81    5.06
  -3   0  11   71.48    2.70
   3   0  11   69.56    2.71
   3   0 -11   70.60    2.82
  -3   0  11   70.67    2.68
   3   0  11   69.42    2.80
  -4   0  11    9.18    0.45
   4   0  11    8.83    0.47
  -4   0  11    9.99    0.47
   4   0 -11    8.98    0.50
   4   0  11    8.13    0.46
   5   0  11    0.74    0.20
  -5   0  11    1.14    0.22
   5   0  11    0.98    0.20
   5   0 -11    0.80    0.22
   6   0  11   14.04    0.70
   6   0  11   13.67    0.71
  -6   0  11   15.08    0.71
   6   0 -11   14.48    0.73
   7   0 -11   16.82    0.85
  -7   0  11   15.31    0.77
   7   0  11   15.88    0.82
   8   0 -11   14.09    0.81
  -8   0  11   16.13    0.82
   8   0  11   15.73    0.85
   9   0 -11    5.86    0.54
   9   0  11    6.46    0.56
  10   0 -11    5.88    0.55
  10   0  11    5.75    0.55
   0   0  12  104.97    4.07
   0   0 -12  109.25    4.21
   1   0  12   69.23    2.79
   1   0 -12   66.88    2.78
  -1   0  12   70.84    2.70
  -1   0  12   73.30    2.65
   2   0  12    5.98    0.36
   2   0 -12    5.72    0.34
  -2   0  12    5.51    0.34
   2   0  12    5.44    0.34
  -2   0  12    6.60    0.33
   3   0  12   12.06    0.57
  -3   0  12   12.75    0.57
   3   0 -12   11.82    0.60
  -3   0  12   12.92    0.57
   3   0  12   10.47    0.58
   4   0  12    5.87    0.39
  -4   0  12    5.66    0.35
   4   0  12    5.34    0.37
  -4   0  12    6.24    0.37
   4   0 -12    5.94    0.39
   5   0  12    4.89    0.38
   5   0  12    4.42    0.36
   5   0 -12    5.05    0.40
  -5   0  12    5.14    0.38
  -6   0  12   18.12    0.85
   6   0  12   18.66    0.88
   6   0 -12   17.13    0.89
   6   0  12   18.91    0.86
   7   0  12    2.70    0.35
  -7   0  12    2.70    0.34
   7   0 -12    2.43    0.35
   8   0 -12    1.87    0.35
  -8   0  12    1.38    0.33
   8   0  12    1.83    0.35
   9   0  12    4.72    0.52
   9   0 -12    6.61    0.56
   0   0 -13    0.08    0.13
   0   0  13    0.31    0.16
   1   0 -13   19.25    0.83
  -1   0  13   19.22    0.79
  -1   0 -13   18.74    0.83
  -1   0  13   19.43    0.83
  -2   0  13    0.73    0.16
   2   0 -13    0.74    0.16
  -2   0  13    0.41    0.18
   2   0  13    0.86    0.19
   2   0  13    0.77    0.16
   3   0  13   37.37    1.54
   3   0  13   35.33    1.56
  -3   0  13   37.24    1.51
   3   0 -13   38.86    1.58
  -3   0  13   40.05    1.50
  -4   0  13   34.46    1.34
   4   0  13   30.53    1.39
  -4   0  13   32.89    1.34
   4   0  13   32.85    1.37
   4   0 -13   34.41    1.42
   5   0  13    2.42    0.29
  -5   0  13    2.40    0.27
   5   0  13    1.95    0.26
   5   0 -13    2.39    0.29
   6   0  13    9.61    0.57
   6   0  13    9.06    0.56
   6   0 -13    9.32    0.58
  -6   0  13    9.69    0.56
  -7   0  13    5.46    0.44
   7   0  13    5.66    0.48
   7   0 -13    4.32    0.44
   8   0  13   39.72    1.76
  -8   0  13   38.59    1.68
   8   0 -13   40.32    1.77
   9   0  13    1.05    0.36
   9   0 -13    0.45    0.33
   0   0 -14   34.41    1.39
   0   0  14   32.53    1.38
  -1   0  14   84.81    3.35
  -1   0 -14   87.65    3.46
   1   0 -14   89.14    3.47
   2   0 -14   15.75    0.69
  -2   0  14   15.06    0.69
   2   0  14   14.28    0.68
  -2   0  14   13.58    0.64
   2   0  14   13.82    0.70
  -3   0  14   21.60    0.95
   3   0  14   22.63    0.97
   3   0 -14   21.95    0.98
  -3   0  14   21.78    0.93
   3   0  14   21.98    0.97
  -4   0  14    8.96    0.52
  -4   0  14    9.89    0.51
   4   0 -14    9.31    0.54
   4   0  14    9.63    0.55
   4   0  14    9.53    0.52
  -5   0  14   17.72    0.79
   5   0 -14   16.28    0.82
   5   0  14   17.24    0.82
   5   0  14   16.06    0.81
  -6   0  14    0.78    0.25
   6   0  14    1.35    0.28
   6   0 -14    0.81    0.26
   6   0  14    0.89    0.28
   7   0 -14   17.34    0.88
   7   0  14   16.18    0.86
  -7   0  14   15.95    0.83
   8   0  14    2.30    0.38
   8   0 -14    1.82    0.35
  -8   0  14    1.42    0.35
   9   0  14    4.21    0.50
   9   0 -14    4.63    0.50
   0   0 -15   -0.02    0.16
   0   0  15   -0.04    0.16
  -1   0  15   58.84    2.30
   1   0 -15   58.88    2.36
   1   0  15   58.16    2.31
  -1   0 -15   57.86    2.35
   2   0 -15   15.16    0.75
   2   0  15   16.62    0.75
  -2   0  15   15.27    0.74
   2   0  15   18.09    0.79
   3   0  15   33.31    1.37
  -3   0  15   30.14    1.33
  -3   0  15   33.19    1.31
   3   0 -15   32.91    1.37
   3   0  15   31.11    1.35
   4   0  15    7.40    0.49
  -4   0  15    8.26    0.48
   4   0 -15    8.40    0.50
  -4   0  15    8.67    0.49
   4   0  15    8.60    0.53
  -5   0  15   31.29    1.30
   5   0  15   30.69    1.35
   5   0 -15   30.44    1.37
   5   0  15   32.13    1.34
  -6   0  15    1.21    0.28
   6   0 -15    1.63    0.30
   6   0  15    1.26    0.29
   6   0  15    1.32    0.29
  -7   0  15    1.88    0.33
   7   0 -15    1.87    0.35
  -8   0  15   24.19    1.14
   0   0  16   48.09    1.94
  -1   0  16   28.09    1.20
   1   0  16   27.93    1.21
   2   0  16   57.79    2.31
  -2   0  16   57.86    2.29
   3   0  16   12.67    0.70
  -3   0  16   13.46    0.66
   4   0  16   17.37    0.88
  -4   0  16   18.91    0.82
  -4   0  16   16.96    0.82
  -5   0  16    7.49    0.48
   5   0  16    6.62    0.53
   6   0  16    2.68    0.36
  -6   0  16    3.75    0.37
   7   0  16    0.83    0.35
  -7   0  16    0.22    0.27
  -8   0  16    1.20    0.35
   0   0  17    0.11    0.22
   1   0  17   28.88    1.27
  -1   0  17   30.35    1.28
  -2   0  17    1.16    0.26
   2   0  17    1.00    0.24
  -3   0  17   17.89    0.85
   3   0  17   18.43    0.90
  -4   0  17    1.04    0.26
   4   0  17    0.54    0.27
  -5   0  17   20.30    0.93
   5   0  17   19.82    0.99
  -6   0  17    2.89    0.35
   6   0  17    3.01    0.39
   7   0  17    1.71    0.36
  -7   0  17    1.27    0.32
  -8   0  17    9.36    0.66
   0   0  18   27.84    1.22
  -1   0  18    4.87    0.42
   1   0  18    4.55    0.41
  -2   0  18   33.45    1.40
   2   0  18   32.04    1.41
  -3   0  18   19.78    0.92
   3   0  18   18.85    0.94
   4   0  18   11.01    0.69
  -4   0  18   10.75    0.62
   5   0  18    0.44    0.29
   6   0  18    1.26    0.33
   7   0  18    4.16    0.47
  -7   0  18    3.36    0.40
   0   0  19    0.17    0.26
  -1   0  19   35.96    1.50
   1   0  19   33.66    1.50
   2   0  19    4.22    0.43
  -2   0  19    4.54    0.41
   3   0  19    7.49    0.55
  -3   0  19    7.82    0.53
   4   0  19    5.84    0.52
  -4   0  19    6.20    0.49
   5   0  19   44.67    1.92
   6   0  19    6.18    0.57
   7   0  19    0.45    0.34
   0   0  20    2.62    0.35
  -1   0  20    8.77    0.60
   1   0  20    7.77    0.56
  -2   0  20   33.03    1.43
   2   0  20   32.61    1.46
  -3   0  20    7.61    0.56
   3   0  20    7.89    0.57
   4   0  20   10.12    0.70
  -4   0  20    9.79    0.63
   5   0  20    5.26    0.50
   6   0  20   18.59    1.02
   0   0  21   -0.19    0.29
  -1   0  21   17.92    0.91
   1   0  21   18.87    0.96
  -2   0  21    1.36    0.29
   2   0  21    1.43    0.35
   3   0  21    5.98    0.54
  -3   0  21    5.64    0.48
   4   0  21    1.62    0.38
  -4   0  21    1.39    0.34
   5   0  21   28.69    1.38
   0   0  22    8.02    0.63
  -1   0  22    2.55    0.40
   1   0  22    2.85    0.43
   2   0  22   27.36    1.29
  -2   0  22   27.63    1.28
  -3   0  22    6.64    0.54
   3   0  22    5.88    0.57
   4   0  22    3.77    0.50
   5   0  22   10.49    0.79
   0   0  23    0.00    0.32
  -1   0  23   29.95    1.37
   1   0  23   28.66    1.36
  -2   0  23    0.33    0.33
   2   0  23    0.80    0.38
   3   0  23    0.30    0.37
  -3   0  23    0.03    0.32
   4   0  23    2.90    0.48
   0   0  24    1.15    0.39
   1   0  24    6.73    0.60
  -1   0  24    5.16    0.51
   2   0  24    9.47    0.76
  -2   0  24    9.44    0.70
   1   1   0    0.17    0.06
   2   1   0    8.49    0.37
  -2   1   0    8.56    0.35
   3   1   0    0.79    0.10
   3   1   0    0.80    0.07
  -3   1   0    0.90    0.10
   4   1   0   10.00    0.48
  -4   1   0   10.25    0.44
   4   1   0    9.81    0.41
   5   1   0    0.88    0.10
   5   1   0    0.65    0.14
  -5   1   0    0.83    0.15
   5  -1   0    0.40    0.11
   7   1   0    0.80    0.22
   7  -1   0    0.40    0.19
   8  -1   0    4.90    0.41
   8   1   0    4.84    0.41
   9   1   0    0.01    0.30
   9  -1   0   -0.25    0.29
  10   1   0   24.06    1.18
  10  -1   0   23.33    1.19
   1  -1  -1   55.99    2.15
   1   1   1   54.17    2.15
  -2   1  -1   70.07    2.46
   2   1   1   65.76    2.59
   2  -1  -1   62.53    2.59
  -2   1   1   64.99    2.47
   3   1   1   82.19    3.00
   3   1   1   79.08    3.16
  -3   1  -1   76.40    3.00
   3   1  -1   84.08    3.00
  -3   1   1   79.44    3.01
   4  -1  -1   33.17    1.38
  -4   1  -1   34.21    1.30
   4   1   1   33.85    1.28
   4   1   1   33.27    1.37
  -4   1   1   33.51    1.31
   4   1  -1   33.36    1.27
   5   1   1   52.17    2.11
   5   1   1   53.44    1.97
   5  -1  -1   48.72    2.11
   5   1  -1   52.76    1.96
   5  -1   1   53.26    1.95
  -5   1   1   51.37    2.00
   6  -1  -1    2.14    0.24
   6   1   1    2.23    0.23
  -6   1   1    3.12    0.26
   7   1   1   38.33    1.59
   7  -1  -1   40.00    1.61
   7  -1   1   34.57    1.57
   7   1  -1   35.31    1.58
   8   1   1    5.81    0.45
   8  -1  -1    6.01    0.49
   8  -1   1    5.92    0.48
   8   1  -1    5.88    0.48
   9   1   1   38.77    1.76
   9  -1  -1   41.06    1.79
   9  -1   1   39.23    1.78
   9   1  -1   41.43    1.79
  10   1   1    0.67    0.30
  10  -1  -1    0.04    0.32
  10   1  -1    0.81    0.36
  10  -1   1    0.59    0.30
   0  -1   2    0.76    0.06
   1  -1  -2   13.94    0.55
   1   1   2   13.28    0.55
   1  -1   2   13.74    0.55
   2  -1  -2  340.58   12.23
   2   1   2  324.11   12.24
   2   1   2  333.42   11.64
  -2   1  -2  321.38   11.62
   2   1  -2  264.07   12.17
   2  -1   2  299.47   12.16
  -3   1   2  184.64    6.86
   4  -1  -2   16.49    0.68
   4   1   2   14.13    0.66
   4   1   2   14.28    0.60
   4  -1   2   15.76    0.67
   4   1  -2   14.69    0.67
   4  -1   2   15.26    0.60
  -4   1   2   14.14    0.64
   4   1  -2   16.31    0.60
   5   1   2    8.96    0.46
   5   1   2    7.29    0.37
   5  -1  -2    8.99    0.46
   5   1  -2    8.88    0.46
   5  -1   2    8.81    0.45
  -5   1   2    9.17    0.44
   5  -1   2    9.46    0.38
   5   1  -2    8.99    0.37
   6   1   2   62.37    2.60
   6  -1  -2   64.08    2.61
  -6   1   2   66.46    2.48
   7  -1  -2    2.24    0.27
   7   1   2    1.54    0.27
   7  -1   2    1.44    0.26
   7   1  -2    2.01    0.28
   8  -1  -2    6.83    0.52
   8   1   2    7.75    0.50
   8  -1   2    6.65    0.52
   8   1  -2    7.20    0.52
   9   1   2    0.25    0.30
   9  -1  -2    0.19    0.26
   9   1  -2    0.23    0.29
   9  -1   2   -0.20    0.24
  10   1   2   33.18    1.61
  10  -1  -2   36.20    1.65
  10   1  -2   36.30    1.64
  10  -1   2   35.30    1.65
   0  -1   3  274.26   11.05
   0  -1  -3  294.69   11.05
   1   1   3    0.43    0.05
   1  -1  -3    0.28    0.05
   1   1   3    0.43    0.05
  -1   1   3    0.51    0.06
   1  -1   3    0.60    0.07
   1   1  -3    0.46    0.06
   1  -1   3    0.61    0.06
  -2  -1   3   20.10    0.81
   2   1   3   21.56    0.81
   2   1   3   20.75    0.85
   2  -1  -3   19.90    0.85
   2   1  -3   20.51    0.86
   2  -1   3   21.37    0.81
   2  -1   3   22.09    0.85
  -3  -1   3  146.07    5.60
   3   1  -3  154.90    5.89
   4   1   3  142.17    5.97
   4   1   3  167.20    6.28
   4  -1  -3  153.19    6.29
   4  -1   3  166.94    5.98
   4   1  -3  167.59    6.30
   4  -1   3  166.66    6.29
   5  -1  -3    0.59    0.15
   5   1   3    1.31    0.19
  -5  -1   3    0.50    0.10
  -5   1   3    1.09    0.17
   5  -1   3    1.16    0.11
   5  -1   3    1.36    0.17
   5   1  -3    0.59    0.10
   5   1  -3    0.52    0.17
   6  -1  -3    1.13    0.20
   6   1   3    1.93    0.24
   6   1   3    1.76    0.16
   6  -1   3    1.32    0.21
   6   1  -3    1.18    0.21
  -6   1   3    1.37    0.21
   7  -1  -3   31.43    1.34
   7   1   3   30.30    1.32
  -7   1   3   30.44    1.25
   7   1  -3   29.23    1.32
   7  -1   3   28.94    1.31
   8  -1  -3    2.05    0.32
   8   1   3    1.51    0.27
   8  -1   3    1.39    0.29
   8   1  -3    1.99    0.32
   9   1   3   33.46    1.53
   9  -1  -3   33.47    1.56
   9   1  -3   35.48    1.55
   9  -1   3   33.20    1.55
  10   1   3    0.35    0.29
  10  -1  -3    0.50    0.31
  10   1  -3    0.50    0.31
  10  -1   3    0.51    0.31
   0  -1   4    0.13    0.05
   0  -1  -4    0.02    0.04
   0  -1   4    0.02    0.04
   1   1   4  128.57    5.07
  -1  -1   4  124.11    4.84
   1  -1  -4  136.22    5.08
   1   1   4  127.90    4.86
  -1  -1   4  121.10    4.86
  -1   1   4  130.93    4.86
   1  -1   4  132.48    4.87
   1   1  -4  134.29    5.09
  -1   1   4  128.82    4.84
   1  -1   4  141.03    5.09
  -2  -1   4    6.56    0.29
   2   1   4    6.98    0.30
   2  -1  -4    6.82    0.32
   2   1   4    6.73    0.31
  -2  -1   4    6.46    0.30
   2  -1   4    6.49    0.31
   2   1  -4    7.26    0.33
  -2   1   4    6.77    0.29
  -2   1   4    6.68    0.31
   2  -1   4    6.90    0.30
   3   1   4  200.35    7.42
   3   1   4  174.18    7.08
  -3  -1   4  192.10    7.08
   3   1  -4  169.22    7.43
   3  -1   4  202.42    7.09
  -3   1   4  194.90    7.08
   3  -1   4  201.87    7.43
  -3   1   4  188.62    7.07
  -4  -1   4  107.41    4.09
   4  -1  -4  105.44    4.29
   4   1   4  112.17    4.28
   4  -1   4  110.34    4.07
   4  -1   4  111.31    4.29
   4   1  -4  105.77    4.30
   5   1   4   31.42    1.22
   5  -1  -4   30.36    1.32
   5   1   4   30.92    1.30
   5   1  -4   32.16    1.33
   5  -1   4   31.28    1.32
   6  -1  -4   44.61    1.86
   6   1   4   47.88    1.73
   6   1   4   43.02    1.85
   6   1  -4   44.03    1.87
   6  -1   4   43.69    1.86
   7   1   4   24.73    1.14
   7  -1  -4   25.12    1.15
   7  -1   4   24.98    1.14
  -7   1   4   25.31    1.09
   7   1  -4   26.59    1.17
   8   1   4    8.62    0.56
   8  -1  -4    7.77    0.56
   8  -1   4    7.66    0.55
   8   1  -4    7.34    0.55
   9   1   4    8.18    0.61
   9  -1  -4    8.92    0.60
   9  -1   4    7.36    0.57
   9   1  -4    9.05    0.64
  10  -1  -4   13.84    0.82
  10   1   4   13.99    0.85
  10   1  -4   13.08    0.84
  10  -1   4   12.26    0.79
   0  -1   5  173.03    6.31
   0   1   5  160.32    6.00
   0   1   5  153.53    6.03
   0  -1  -5  162.13    6.29
   1  -1  -5    4.22    0.22
  -1  -1   5    4.38    0.22
  -1  -1   5    4.01    0.21
   1   1   5    4.43    0.21
  -1   1   5    4.49    0.21
   1  -1   5    4.65    0.23
  -1   1   5    4.77    0.21
   1   1  -5    4.47    0.23
   1  -1   5    4.78    0.22
   2  -1  -5   52.85    2.08
  -2  -1   5   51.24    1.98
   2   1   5   53.25    2.07
  -2  -1   5   52.19    1.99
   2  -1   5   54.90    1.99
  -2   1   5   54.61    1.98
   2  -1   5   56.05    2.08
   2   1  -5   44.64    2.08
   3   1   5   36.40    1.45
  -3  -1   5   35.11    1.39
  -3   1   5   37.01    1.40
  -3   1   5   34.64    1.37
   3  -1   5   36.87    1.45
   3   1  -5   35.61    1.47
  -4  -1   5  190.55    7.32
   4   1   5  200.96    7.32
   4   1   5  201.61    7.67
   4  -1  -5  190.21    7.68
  -4   1   5  187.79    7.31
   4  -1   5  210.14    7.68
   4   1  -5  193.61    7.69
  -5  -1   5   50.06    1.96
   5   1   5   50.07    2.04
   5  -1  -5   46.33    2.05
   5   1   5   52.98    1.93
   5  -1   5   49.26    1.93
   5   1  -5   52.43    2.07
   5  -1   5   50.92    2.05
   6  -1  -5   13.21    0.65
   6   1   5   12.17    0.61
   6   1   5   12.17    0.55
   6   1  -5   12.49    0.65
   6  -1   5   11.77    0.62
   7   1   5    5.07    0.39
   7  -1  -5    5.04    0.40
   7   1  -5    4.99    0.43
  -7   1   5    5.92    0.39
   7  -1   5    5.54    0.40
   8  -1  -5    0.66    0.24
   8   1   5    0.53    0.23
   8  -1   5    0.66    0.24
   8   1  -5    0.36    0.23
   9   1   5    8.36    0.63
   9  -1  -5    9.51    0.63
   9   1  -5    9.58    0.67
   9  -1   5    8.87    0.65
  10  -1  -5    0.03    0.34
  10   1   5    0.13    0.28
  10  -1   5    0.27    0.34
  10   1  -5    0.43    0.30
   0   1  -6    0.04    0.07
   0   1   6    0.04    0.07
   0   1   6    0.18    0.06
   0  -1  -6    0.07    0.06
   0  -1   6    0.10    0.06
   1   1   6   45.22    1.85
  -1  -1   6   46.06    1.77
   1  -1  -6   48.03    1.86
  -1  -1   6   46.61    1.80
   1   1  -6   50.05    1.87
  -1   1   6   47.48    1.77
  -1   1   6   46.28    1.79
   1  -1   6   46.78    1.86
  -2  -1   6   24.86    1.03
   2   1   6   26.24    1.07
   2  -1  -6   27.92    1.09
   2  -1   6   26.13    1.08
  -2   1   6   27.41    1.03
  -3  -1   6  184.13    7.06
  -3  -1   6  191.72    7.07
   3   1   6  199.06    7.08
   3  -1  -6  181.69    7.41
   3   1   6  195.40    7.40
   3  -1   6  194.27    7.41
  -3   1   6  200.78    7.07
   3  -1   6  170.50    7.07
   3   1  -6  188.38    7.42
  -3   1   6  192.46    7.06
  -4  -1   6   49.52    1.99
   4   1   6   52.73    2.08
   4  -1  -6   50.75    2.10
   4   1   6   52.82    1.98
   4  -1   6   52.92    1.99
   4   1  -6   48.49    2.10
   4  -1   6   53.47    2.09
  -4   1   6   53.65    2.00
   5   1   6    2.16    0.18
   5  -1  -6    1.41    0.21
   5   1   6    1.46    0.19
  -5  -1   6    1.18    0.20
  -5   1   6    1.21    0.18
   5   1  -6    1.14    0.19
   5  -1   6    1.56    0.16
   5  -1   6    1.18    0.19
   6  -1  -6   16.65    0.79
  -6  -1   6   15.43    0.74
   6   1   6   16.43    0.78
   6   1   6   16.42    0.70
   6  -1   6   16.97    0.71
   6   1  -6   17.10    0.81
   6  -1   6   15.20    0.77
   7   1   6   12.54    0.67
   7  -1  -6   12.01    0.68
   7  -1   6   12.38    0.65
  -7   1   6   12.65    0.63
   7   1  -6   11.90    0.66
   8   1   6   30.69    1.40
   8  -1  -6   30.37    1.40
   8  -1   6   29.48    1.40
   8   1  -6   34.38    1.44
  -8   1   6   30.48    1.33
   9   1   6   16.35    0.87
   9  -1  -6   14.33    0.84
   9   1  -6   16.09    0.89
   9  -1   6   15.40    0.87
  10  -1  -6    1.31    0.39
  10   1   6    0.91    0.37
  10  -1   6    1.00    0.37
  10   1  -6    1.13    0.38
   0   1   7  146.34    5.54
   0  -1   7  144.96    5.55
   0   1  -7  150.17    5.79
   0   1   7  147.05    5.50
   0  -1  -7  153.94    5.78
   1   1   7    8.55    0.37
   1  -1  -7    9.23    0.38
  -1  -1   7    8.53    0.36
  -1  -1   7    8.34    0.38
  -1   1   7    8.18    0.36
   1   1  -7    8.71    0.39
  -1   1   7    8.11    0.37
   1  -1   7    8.11    0.38
   1  -1   7    8.09    0.38
   2   1   7  151.27    5.94
   2   1   7  156.75    5.69
   2  -1  -7  144.80    5.95
  -2  -1   7  154.27    5.70
   2  -1   7  158.07    5.70
  -2   1   7  161.64    5.69
   2  -1   7  161.56    5.95
  -2   1   7  130.81    5.66
   3   1   7    1.89    0.16
  -3  -1   7    1.33    0.14
   3   1   7    1.76    0.16
   3  -1  -7    1.99    0.19
  -3  -1   7    1.52    0.16
  -3   1   7    1.61    0.17
   3  -1   7    1.82    0.16
   3   1  -7    1.82    0.18
  -3   1   7    1.72    0.14
   3  -1   7    1.84    0.17
  -4  -1   7   36.51    1.41
   4   1   7   36.78    1.39
   4  -1  -7   34.26    1.47
   4   1   7   35.36    1.45
  -4   1   7   33.92    1.37
  -4   1   7   37.04    1.41
   4  -1   7   36.65    1.40
   4  -1   7   34.70    1.46
   4   1  -7   34.08    1.48
  -5  -1   7   22.85    1.01
   5   1   7   24.89    1.05
   5  -1  -7   21.48    1.05
   5   1   7   25.80    0.99
  -5   1   7   24.43    1.01
   5  -1   7   23.83    1.05
   5  -1   7   24.77    0.99
   5   1  -7   25.77    1.08
   6   1   7    0.47    0.20
   6  -1  -7    0.46    0.19
  -6  -1   7    0.32    0.18
   6   1   7    0.64    0.16
  -6   1   7    0.55    0.19
   6  -1   7    0.61    0.16
   6   1  -7    0.62    0.22
   6  -1   7    0.76    0.19
   7  -1  -7    1.24    0.25
   7   1   7    2.15    0.27
   7  -1   7    1.30    0.24
   7   1  -7    1.14    0.28
  -7   1   7    1.29    0.24
   8   1   7    1.65    0.32
   8  -1  -7    1.72    0.30
  -8   1   7    2.14    0.32
   8   1  -7    1.34    0.32
   8  -1   7    1.97    0.33
   9   1   7    4.08    0.43
   9  -1  -7    5.33    0.50
   9   1  -7    4.54    0.45
   9  -1   7    4.44    0.47
  10   1   7    0.09    0.34
  10  -1  -7    0.32    0.35
  10  -1   7    0.16    0.35
  10   1  -7    0.05    0.29
   0  -1   8    0.10    0.06
   0   1  -8    0.04    0.07
   0  -1  -8    0.14    0.07
   0   1   8    0.12    0.08
   0  -1   8    0.15    0.10
   0   1   8    0.07    0.07
   1  -1  -8  157.97    6.03
  -1  -1   8  162.40    5.75
   1   1   8  151.48    6.03
  -1  -1   8  154.97    5.79
   1  -1   8  151.45    6.04
  -1   1   8  153.35    5.78
   1  -1   8  151.74    5.79
   2   1   8    6.74    0.34
   2   1   8    7.00    0.34
  -2  -1   8    6.85    0.34
  -2   1   8    7.21    0.34
   2   1  -8    6.81    0.36
   2  -1   8    6.39    0.34
   2  -1   8    7.01    0.35
  -2   1   8    7.53    0.34
   3   1   8  111.86    4.40
   3  -1  -8  113.93    4.42
  -3  -1   8  114.10    4.21
  -3  -1   8  105.38    4.21
   3   1   8  116.76    4.23
  -3   1   8  110.38    4.21
  -3   1   8  109.83    4.21
   3  -1   8  112.69    4.23
   3   1  -8  117.93    4.43
   3  -1   8  109.56    4.41
  -4  -1   8   23.23    0.96
   4   1   8   23.32    0.99
   4  -1  -8   22.36    1.01
   4   1   8   23.56    0.95
   4  -1   8   22.71    1.00
   4  -1   8   23.67    0.96
   4   1  -8   22.58    1.02
  -4   1   8   24.46    0.97
  -4   1   8   23.53    0.93
   5  -1  -8   -0.07    0.13
   5   1   8    0.06    0.15
  -5  -1   8    0.08    0.17
   5   1   8    0.13    0.13
   5  -1   8    0.15    0.16
  -5   1   8    0.09    0.17
   5   1  -8    0.05    0.15
   5  -1   8    0.20    0.14
  -6  -1   8    4.87    0.39
   6   1   8    5.12    0.38
   6  -1  -8    4.67    0.40
   6   1   8    5.23    0.35
   6   1  -8    4.78    0.40
   6  -1   8    4.67    0.34
   6  -1   8    4.84    0.39
  -6   1   8    5.09    0.39
   7   1   8   22.95    1.08
  -7  -1   8   23.47    1.04
   7  -1  -8   23.38    1.09
   7   1  -8   22.72    1.10
  -7   1   8   23.42    1.04
   7  -1   8   23.57    1.09
   8  -1  -8    3.89    0.41
   8   1   8    3.99    0.40
  -8   1   8    3.96    0.39
   8  -1   8    4.02    0.41
   8   1  -8    3.00    0.37
   9  -1  -8   12.19    0.74
   9   1   8   11.76    0.76
   9   1  -8   13.83    0.79
   9  -1   8   11.70    0.76
  10  -1  -8    0.08    0.33
  10   1   8    0.29    0.34
  10  -1   8    0.32    0.31
  10   1  -8    0.58    0.36
   0   1   9  280.28   10.51
   0   1   9  272.23   10.44
   0  -1   9  290.19   10.53
   0  -1   9  286.57   10.44
   0  -1  -9  283.67   10.97
   1  -1  -9    2.06    0.16
  -1  -1   9    1.82    0.15
   1   1   9    1.96    0.16
  -1  -1   9    1.48    0.16
   1  -1   9    2.01    0.17
   1   1  -9    1.97    0.16
   1  -1   9    1.89    0.17
  -1   1   9    1.63    0.15
   2   1   9   52.78    2.16
  -2  -1   9   54.16    2.07
   2   1   9   54.32    2.09
  -2  -1   9   54.16    2.09
   2  -1   9   53.68    2.17
  -2   1   9   56.50    2.08
   2  -1   9   54.41    2.10
   2   1  -9   54.19    2.18
  -2   1   9   55.47    2.09
   3  -1  -9   51.28    2.13
  -3  -1   9   51.79    2.03
  -3  -1   9   50.89    2.03
   3   1   9   53.16    2.04
   3   1   9   52.09    2.12
   3   1  -9   52.11    2.14
  -3   1   9   53.35    2.03
  -3   1   9   55.70    2.03
   3  -1   9   53.31    2.12
   3  -1   9   54.57    2.05
   4  -1  -9   16.33    0.75
   4   1   9   16.76    0.71
  -4  -1   9   15.36    0.69
  -4  -1   9   16.67    0.72
   4   1   9   16.01    0.72
   4  -1   9   16.66    0.71
  -4   1   9   16.47    0.71
  -4   1   9   17.03    0.68
   4   1  -9   14.79    0.74
   4  -1   9   15.91    0.74
   5   1   9   30.66    1.28
   5  -1  -9   32.40    1.37
  -5  -1   9   31.51    1.30
   5   1   9   31.75    1.34
   5   1  -9   32.65    1.37
   5  -1   9   32.55    1.36
  -5   1   9   31.07    1.30
   5  -1   9   31.74    1.29
   6   1   9    1.09    0.20
   6   1   9    1.13    0.23
  -6  -1   9    1.30    0.25
   6  -1  -9    1.04    0.25
   6   1  -9    1.35    0.26
   6  -1   9    0.93    0.23
   6  -1   9    1.26    0.21
  -6   1   9    1.37    0.25
  -7  -1   9    3.06    0.33
   7  -1  -9    2.64    0.34
   7   1   9    2.93    0.33
   7   1  -9    2.99    0.34
   7  -1   9    2.88    0.35
  -7   1   9    3.58    0.35
   8   1   9    4.13    0.41
   8  -1  -9    2.55    0.37
   8   1  -9    3.22    0.40
  -8   1   9    3.99    0.39
   8  -1   9    3.14    0.36
   9   1   9    8.02    0.61
   9  -1  -9    7.29    0.61
   9  -1   9    8.07    0.62
   9   1  -9    6.39    0.58
  10   1   9    0.48    0.36
  10  -1  -9    0.56    0.36
  10   1  -9    0.24    0.36
  10  -1   9    0.57    0.37
   0   1 -10    0.06    0.10
   0   1  10    0.11    0.10
   0  -1  10    0.16    0.10
   0  -1 -10    0.14    0.08
   0   1  10    0.05    0.07
   0  -1  10    0.18    0.07
   1   1  10   45.95    1.81
  -1  -1  10   44.64    1.77
   1  -1  10   46.02    1.82
  -1   1  10   40.58    1.72
   1  -1  10   49.94    1.70
   1  -1  10   43.14    1.77
   1   1 -10   46.97    1.82
  -1   1  10   44.45    1.76
  -2  -1  10   28.15    1.12
   2   1  10   28.57    1.12
   2  -1 -10   25.60    1.15
  -2  -1  10   29.09    1.10
   2   1  10   27.58    1.14
   2  -1  10   28.02    1.15
  -2   1  10   27.64    1.11
   2   1 -10   26.17    1.16
   2  -1  10   28.72    1.13
  -2   1  10   28.19    1.10
   3   1  10  138.96    5.65
  -3  -1  10  153.17    5.41
  -3  -1  10  143.72    5.42
   3  -1 -10  133.49    5.67
   3   1  10  145.08    5.43
   3  -1  10  144.87    5.44
   3   1 -10  150.45    5.68
   3  -1  10  146.15    5.67
  -3   1  10  142.54    5.42
  -3   1  10  145.43    5.40
  -4  -1  10    9.29    0.48
   4   1  10    9.71    0.48
   4  -1 -10    9.54    0.51
   4   1  10    9.76    0.49
  -4  -1  10    8.95    0.47
  -4   1  10    9.44    0.45
   4   1 -10   10.49    0.52
   4  -1  10   10.13    0.50
   4  -1  10    9.52    0.49
  -4   1  10    9.97    0.49
  -5  -1  10    9.10    0.49
   5  -1 -10    9.23    0.51
   5   1  10    9.22    0.49
   5   1  10    8.86    0.49
   5  -1  10    8.45    0.47
   5  -1  10    8.52    0.48
   5   1 -10    9.60    0.53
  -5   1  10    9.31    0.49
   6   1  10   24.65    1.10
   6  -1 -10   25.27    1.13
  -6  -1  10   24.10    1.07
   6   1  10   25.78    1.06
   6   1 -10   24.00    1.12
   6  -1  10   25.44    1.07
   6  -1  10   24.00    1.11
  -6   1  10   24.61    1.06
   7   1  10    4.74    0.40
  -7  -1  10    3.98    0.37
   7  -1 -10    4.52    0.42
   7   1 -10    6.12    0.48
  -7   1  10    3.96    0.37
   7  -1  10    4.26    0.41
   8   1  10    8.39    0.59
   8  -1 -10    8.46    0.60
   8  -1  10    8.18    0.60
  -8   1  10    9.09    0.59
   8   1 -10    8.22    0.61
   9   1  10    0.35    0.32
   9  -1 -10    0.60    0.32
   9  -1  10    0.52    0.33
   9   1 -10    0.07    0.32
  10   1  10    9.32    0.73
  10  -1 -10    9.48    0.73
  10   1 -10    9.07    0.72
  10  -1  10    8.89    0.72
   0   1 -11   22.00    0.97
   0  -1  11   23.12    0.97
   0   1  11   23.32    0.95
   0  -1  11   24.11    0.90
  -1  -1  11   28.54    1.10
   1  -1 -11   22.51    1.09
   1   1  11   25.36    1.09
   1   1  11   24.39    1.02
  -1   1  11   29.13    1.09
   1  -1  11   28.27    1.01
  -1   1  11   28.35    1.05
   1   1 -11   26.41    1.11
   1  -1  11   30.21    1.11
   1  -1  11   22.98    1.08
  -2  -1  11   67.87    2.53
   2  -1 -11   67.08    2.62
   2   1  11   65.78    2.53
   2   1  11   64.60    2.61
  -2  -1  11   66.02    2.49
   2   1 -11   61.71    2.62
   2  -1  11   67.41    2.54
  -2   1  11   69.14    2.50
  -2   1  11   63.35    2.51
   2  -1  11   63.71    2.62
   3   1  11  114.62    4.59
  -3  -1  11  122.17    4.39
  -3  -1  11  118.60    4.41
   3   1  11  116.65    4.41
   3  -1 -11  114.20    4.60
   3  -1  11  117.08    4.60
  -3   1  11  115.07    4.38
   3   1 -11  112.33    4.61
   3  -1  11  119.30    4.43
  -3   1  11  115.75    4.40
   4   1  11   21.91    0.96
   4  -1 -11   22.26    1.00
  -4  -1  11   22.49    0.94
  -4  -1  11   22.87    0.96
   4   1  11   22.42    0.98
   4  -1  11   22.06    0.97
  -4   1  11   23.85    0.94
   4  -1  11   21.77    0.99
   4   1 -11   23.91    1.01
  -4   1  11   23.19    0.96
  -5  -1  11    2.91    0.28
   5  -1 -11    2.36    0.27
   5   1  11    1.94    0.24
   5   1  11    2.54    0.26
   5   1 -11    1.95    0.25
   5  -1  11    2.75    0.27
  -5   1  11    2.57    0.25
   5  -1  11    2.07    0.26
  -6  -1  11   13.19    0.68
   6  -1 -11   12.60    0.70
   6   1  11   14.48    0.67
   6   1  11   13.17    0.69
  -6   1  11   12.75    0.67
   6   1 -11   13.93    0.72
   6  -1  11   12.98    0.70
   6  -1  11   13.52    0.68
   7   1  11    0.59    0.26
  -7  -1  11    0.10    0.25
   7  -1 -11    0.77    0.27
   7   1 -11    0.86    0.28
   7  -1  11    0.67    0.24
  -7   1  11    0.12    0.25
   8  -1 -11    0.54    0.30
   8   1  11    1.66    0.33
   8   1 -11    1.72    0.34
  -8   1  11    0.93    0.27
   8  -1  11    1.50    0.33
   9   1  11    4.51    0.45
   9  -1 -11    4.15    0.45
   9  -1  11    5.51    0.52
   9   1 -11    4.06    0.48
  10   1  11   11.42    0.79
  10  -1 -11   11.31    0.79
  10  -1  11   11.18    0.81
   0   1  12    0.00    0.12
   0  -1  12    0.04    0.09
   0   1 -12    0.05    0.13
   0   1  12    0.01    0.08
   0  -1  12    0.14    0.13
   0  -1 -12    0.14    0.11
   1  -1 -12   74.88    2.95
  -1  -1  12   74.70    2.87
  -1  -1  12   71.32    2.80
   1   1  12   74.28    2.95
   1  -1  12   72.34    2.96
   1   1 -12   74.46    2.96
  -1   1  12   75.20    2.86
  -1   1  12   78.75    2.81
   2   1  12   13.85    0.65
  -2  -1  12   14.62    0.66
   2   1  12   15.42    0.67
   2  -1 -12   14.24    0.66
  -2  -1  12   15.80    0.63
  -2   1  12   14.39    0.63
   2  -1  12   13.27    0.65
   2   1 -12   14.12    0.67
  -2   1  12   15.36    0.66
   2  -1  12   13.88    0.66
   3  -1 -12   13.52    0.65
   3   1  12   13.81    0.64
  -3  -1  12   15.46    0.63
  -3  -1  12   12.66    0.64
   3   1  12   13.68    0.64
  -3   1  12   13.90    0.63
   3  -1  12   13.05    0.64
   3   1 -12   13.97    0.66
   3  -1  12   13.85    0.65
  -3   1  12   13.71    0.62
  -4  -1  12    4.46    0.34
   4   1  12    4.98    0.36
  -4  -1  12    4.55    0.34
   4  -1 -12    5.57    0.39
   4   1  12    4.78    0.33
  -4   1  12    4.76    0.34
   4   1 -12    4.63    0.36
   4  -1  12    5.27    0.37
  -4   1  12    4.92    0.31
   4  -1  12    4.63    0.35
   5   1  12   36.92    1.60
   5  -1 -12   39.07    1.62
  -5  -1  12   39.93    1.55
   5   1  12   38.54    1.55
   5  -1  12   38.86    1.56
  -5   1  12   38.00    1.54
   5  -1  12   35.79    1.60
   5   1 -12   37.48    1.63
   6  -1 -12   49.67    2.10
  -6  -1  12   50.29    2.00
   6   1  12   47.57    2.08
   6   1  12   53.06    2.01
   6  -1  12   51.77    2.01
   6   1 -12   47.83    2.09
  -6   1  12   49.37    1.99
   6  -1  12   49.96    2.09
   7   1  12    0.54    0.26
  -7  -1  12    0.48    0.24
   7  -1 -12    0.97    0.29
  -7   1  12    0.95    0.27
   7   1 -12    1.07    0.29
   7  -1  12    0.58    0.28
   8  -1 -12    1.18    0.32
   8   1  12    1.66    0.33
   8  -1  12    2.09    0.36
   8   1 -12    1.63    0.35
  -8   1  12    1.05    0.31
   9   1  12    0.99    0.35
   9  -1 -12    0.80    0.34
   9  -1  12    0.36    0.33
  -9   1  12    0.72    0.30
   9   1 -12    0.76    0.35
   0   1  13    0.55    0.11
   0  -1 -13    0.31    0.13
   0   1  13    0.23    0.14
   0  -1  13    0.46    0.17
   0   1 -13    0.37    0.14
  -1  -1  13    4.33    0.26
  -1  -1  13    4.27    0.33
   1  -1 -13    4.49    0.28
  -1   1 -13    3.78    0.28
   1  -1  13    3.79    0.28
  -1  -1 -13    4.05    0.28
   1   1 -13    4.36    0.29
  -1   1  13    3.81    0.31
  -1   1  13    3.89    0.26
  -2  -1  13   75.88    2.66
  -2  -1  13   70.61    2.70
   2   1  13   69.39    2.78
   2   1  13   69.86    2.70
   2  -1 -13   67.59    2.78
   2  -1  13   70.72    2.71
   2   1 -13   67.13    2.79
  -2   1  13   67.40    2.65
   2  -1  13   69.52    2.79
  -2   1  13   68.99    2.69
  -3  -1  13   29.03    1.20
   3   1  13   28.78    1.21
  -3  -1  13   29.92    1.18
   3   1  13   28.35    1.22
   3  -1 -13   31.07    1.25
  -3   1  13   29.57    1.18
   3  -1  13   29.67    1.22
   3   1 -13   28.84    1.25
   3  -1  13   27.55    1.24
  -3   1  13   28.28    1.19
   4  -1 -13    2.80    0.28
   4   1  13    2.74    0.28
   4   1  13    2.93    0.26
  -4  -1  13    2.56    0.26
  -4  -1  13    2.73    0.27
  -4   1  13    2.71    0.27
   4   1 -13    3.05    0.29
   4  -1  13    3.10    0.28
  -4   1  13    2.96    0.25
   4  -1  13    2.75    0.27
   5  -1 -13   33.29    1.41
  -5  -1  13   33.15    1.34
   5   1  13   33.09    1.35
   5   1  13   30.54    1.38
  -5   1  13   34.01    1.34
   5  -1  13   33.90    1.37
   5  -1  13   30.93    1.39
   5   1 -13   29.99    1.41
  -6  -1  13    8.52    0.54
   6   1  13    9.11    0.55
   6   1  13    9.42    0.55
   6  -1 -13    8.54    0.57
   6  -1  13    9.16    0.55
  -6   1  13    8.25    0.54
   6   1 -13    9.01    0.57
   6  -1  13    8.86    0.55
  -7  -1  13   11.60    0.65
   7  -1 -13   11.89    0.70
   7   1  13   12.49    0.67
   7   1  13   12.08    0.69
   7   1 -13   11.53    0.71
   7  -1  13   12.14    0.71
  -7   1  13   12.19    0.68
   8  -1 -13    2.84    0.39
   8   1  13    2.92    0.39
   8   1 -13    2.31    0.38
   8  -1  13    2.20    0.39
  -8   1  13    2.42    0.37
   9   1  13    4.97    0.51
   9  -1 -13    4.53    0.50
  -9   1  13    4.10    0.47
   9  -1  13    4.87    0.52
   9   1 -13    4.52    0.50
   0   1 -14    0.01    0.16
   0   1  14   -0.21    0.13
   0  -1 -14    0.12    0.14
   0  -1  14   -0.03    0.17
   1  -1 -14   66.49    2.65
  -1  -1  14   67.35    2.59
  -1   1 -14   67.13    2.66
  -1   1  14   67.17    2.53
   1   1 -14   68.16    2.67
  -1  -1 -14   65.98    2.65
  -1   1  14   62.36    2.57
   2   1  14   14.92    0.70
  -2  -1  14   15.82    0.72
  -2  -1  14   16.10    0.68
   2  -1 -14   15.55    0.71
   2   1  14   14.72    0.72
   2  -1  14   15.61    0.73
   2   1 -14   15.13    0.72
  -2   1  14   15.03    0.71
  -2   1  14   15.44    0.68
   2  -1  14   15.24    0.71
   3   1  14    1.27    0.23
  -3  -1  14    1.01    0.21
   3  -1 -14    1.32    0.21
  -3  -1  14    1.27    0.20
   3   1  14    1.39    0.20
  -3   1  14    1.25    0.21
   3  -1  14    1.30    0.24
  -3   1  14    0.98    0.20
   3  -1  14    1.12    0.21
   3   1 -14    1.11    0.21
   4  -1 -14   18.09    0.87
   4   1  14   18.29    0.86
  -4  -1  14   20.01    0.84
  -4  -1  14   19.06    0.85
   4   1  14   17.70    0.85
  -4   1  14   18.26    0.84
   4  -1  14   18.41    0.87
  -4   1  14   20.03    0.84
   4  -1  14   20.25    0.90
   4   1 -14   19.45    0.89
   5   1  14    4.49    0.39
   5   1  14    3.88    0.36
   5  -1 -14    3.53    0.35
  -5  -1  14    4.10    0.34
   5  -1  14    4.42    0.38
   5   1 -14    4.55    0.39
  -5   1  14    4.07    0.35
   5  -1  14    4.05    0.38
  -6  -1  14   27.02    1.15
   6  -1 -14   25.58    1.20
   6   1  14   27.25    1.17
   6   1  14   25.56    1.18
  -6   1  14   26.73    1.15
   6  -1  14   26.93    1.18
   6   1 -14   25.35    1.21
   6  -1  14   25.56    1.19
   7  -1 -14    0.70    0.28
   7   1  14    0.39    0.29
   7   1  14    0.48    0.27
  -7  -1  14    0.82    0.28
  -7   1  14    0.20    0.27
   7   1 -14    0.89    0.30
   7  -1  14    0.48    0.28
   8  -1 -14    1.84    0.37
   8   1 -14    1.75    0.36
   8  -1  14    2.07    0.38
  -8   1  14    2.51    0.34
  -9   1  14    4.58    0.45
   9  -1  14    4.46    0.51
   9   1 -14    4.14    0.49
   0  -1  15    4.12    0.35
   0   1  15    4.03    0.34
   0   1 -15    4.84    0.32
  -1   1 -15    1.56    0.21
   1   1  15    0.87    0.22
  -1  -1  15    1.09    0.21
  -1   1  15    1.01    0.22
   1   1 -15    1.37    0.20
   1  -1  15    1.19    0.22
  -2  -1  15   60.29    2.41
   2   1  15   59.95    2.41
   2  -1  15   64.66    2.48
  -2   1  15   58.34    2.40
   2   1 -15   62.14    2.49
  -2   1  15   61.63    2.36
   2  -1  15   61.62    2.43
   3   1  15    4.74    0.37
  -3  -1  15    4.65    0.39
  -3  -1  15    4.93    0.35
  -3   1  15    5.23    0.35
   3   1 -15    4.82    0.37
   3  -1  15    4.97    0.42
   3  -1  15    4.83    0.36
  -3   1  15    4.66    0.39
  -4  -1  15    1.27    0.23
  -4  -1  15    1.26    0.22
   4   1  15    1.28    0.26
  -4   1  15    0.95    0.22
   4  -1  15    0.81    0.22
   4  -1  15    1.15    0.26
   4   1 -15    1.00    0.25
  -4   1  15    1.00    0.23
  -5  -1  15   28.56    1.18
   5   1  15   27.92    1.21
   5  -1  15   27.39    1.22
  -5   1  15   27.17    1.17
   5  -1  15   25.20    1.21
   5   1 -15   27.87    1.24
  -6  -1  15    1.71    0.29
   6   1  15    1.81    0.30
   6   1 -15    1.99    0.32
   6  -1  15    1.79    0.33
  -6   1  15    1.90    0.29
   6  -1  15    1.69    0.32
   7   1  15   10.97    0.67
  -7  -1  15   12.26    0.68
  -7   1  15   11.35    0.66
   7   1 -15   10.62    0.69
   7  -1  15   10.09    0.68
   8   1 -15    0.64    0.32
   8  -1  15    1.06    0.37
  -8   1  15    0.76    0.32
   9   1 -15   13.69    0.87
   0   1 -16   -0.02    0.18
   0   1  16   -0.02    0.20
   0  -1  16    0.01    0.21
  -1   1 -16    5.19    0.35
   1   1  16    4.94    0.41
  -1  -1  16    4.15    0.37
   1  -1  16    4.71    0.39
   1   1 -16    5.09    0.37
  -1   1  16    5.13    0.40
   2   1  16    1.48    0.27
  -2  -1  16    1.24    0.25
   2   1 -16    1.68    0.24
   2  -1  16    1.63    0.26
  -2   1  16    1.51    0.26
   2  -1  16    1.99    0.25
  -3  -1  16    0.12    0.20
   3   1  16    0.19    0.22
  -3   1  16    0.31    0.20
   3  -1  16    0.33    0.21
   3   1 -16    0.20    0.19
  -3   1  16    0.34    0.19
   3  -1  16    0.02    0.20
  -4  -1  16   28.74    1.26
   4   1  16   29.14    1.29
   4  -1  16   30.60    1.32
   4   1 -16   28.00    1.31
  -4   1  16   32.10    1.25
   4  -1  16   30.31    1.31
  -4   1  16   29.43    1.25
  -5  -1  16   26.75    1.16
   5   1  16   26.70    1.20
  -5   1  16   27.07    1.15
   5  -1  16   25.35    1.21
   5  -1  16   25.63    1.22
   5   1 -16   28.07    1.24
   6   1  16   13.13    0.77
  -6  -1  16   15.40    0.74
  -6   1  16   13.97    0.73
   6  -1  16   14.11    0.79
   7   1  16    2.90    0.39
  -7  -1  16    3.11    0.38
  -7   1  16    2.78    0.37
  -8   1  16   11.53    0.71
   0   1  17   22.39    1.02
   0  -1  17   23.63    1.05
  -1  -1  17    8.97    0.54
   1   1  17    9.80    0.58
  -1   1  17    8.93    0.53
   1  -1  17    9.78    0.58
   2   1  17   21.30    0.97
  -2  -1  17   20.06    0.94
   2  -1  17   20.57    0.97
  -2   1  17   20.35    0.94
  -3  -1  17    0.06    0.21
   3   1  17    0.04    0.23
   3  -1  17   -0.20    0.23
  -3   1  17    0.01    0.21
  -4  -1  17    1.06    0.27
   4   1  17    1.47    0.30
  -4   1  17    1.38    0.27
   4  -1  17    1.14    0.26
   5   1  17   27.48    1.25
   5  -1  17   28.41    1.27
  -5   1  17   26.34    1.19
   6   1  17    2.42    0.37
  -6  -1  17    2.43    0.33
  -6   1  17    2.56    0.33
   6  -1  17    2.19    0.37
   7   1  17   27.08    1.31
  -7  -1  17   28.85    1.27
  -7   1  17   28.71    1.27
  -8   1  17    0.27    0.34
   0   1  18   -0.03    0.20
   0  -1  18   -0.10    0.24
   1   1  18    2.32    0.32
  -1  -1  18    2.29    0.32
  -1   1  18    1.90    0.31
   1  -1  18    1.93    0.29
   2   1  18    1.91    0.32
  -2  -1  18    1.60    0.30
  -2   1  18    1.67    0.29
   2  -1  18    1.82    0.29
   3   1  18    4.62    0.42
  -3  -1  18    5.07    0.41
   3  -1  18    5.17    0.46
  -3   1  18    4.70    0.39
   4   1  18   36.40    1.56
  -4  -1  18   34.97    1.50
   4  -1  18   35.59    1.56
  -4   1  18   36.05    1.51
   5   1  18    3.62    0.41
   5  -1  18    3.76    0.43
   6   1  18    2.44    0.39
  -6   1  18    2.94    0.35
   6  -1  18    2.12    0.39
   7   1  18    1.38    0.36
  -7   1  18    2.23    0.36
   0  -1  19    1.80    0.32
   0   1  19    1.04    0.30
   1   1  19    1.35    0.32
  -1  -1  19    0.78    0.29
   1  -1  19    1.61    0.32
  -1   1  19    0.94    0.29
   2   1  19    1.01    0.30
  -2  -1  19    1.29    0.29
   2  -1  19    1.79    0.33
  -2   1  19    0.90    0.28
  -3  -1  19    1.13    0.28
   3   1  19    1.57    0.33
  -3   1  19    1.18    0.28
   3  -1  19    1.55    0.31
   4   1  19    2.68    0.39
  -4  -1  19    3.33    0.38
  -4   1  19    2.55    0.35
   4  -1  19    2.50    0.39
   5   1  19   27.74    1.29
   5  -1  19   26.72    1.27
   6   1  19    0.25    0.31
   6  -1  19   -0.13    0.30
   7   1  19    5.31    0.55
   0   1  20    0.38    0.29
   0  -1  20    0.29    0.28
  -1  -1  20    3.87    0.42
   1   1  20    3.83    0.42
  -1   1  20    3.74    0.41
   1  -1  20    3.30    0.41
   2   1  20   -0.13    0.28
  -2  -1  20    0.07    0.28
   2  -1  20    0.03    0.28
  -2   1  20   -0.27    0.26
   3   1  20    0.83    0.32
  -3  -1  20    0.51    0.27
   3  -1  20    0.69    0.32
  -3   1  20    0.33    0.27
  -4  -1  20   23.66    1.14
   4   1  20   26.49    1.22
   4  -1  20   25.17    1.22
   5   1  20    0.75    0.35
   5  -1  20    0.74    0.36
   6   1  20    0.06    0.32
   6  -1  20   -0.14    0.32
   0  -1  21   13.69    0.79
   0   1  21   13.48    0.75
  -1  -1  21    5.61    0.50
   1   1  21    5.36    0.50
   1  -1  21    6.02    0.52
  -1   1  21    5.01    0.49
  -2  -1  21    7.49    0.60
   2   1  21    8.71    0.64
   2  -1  21    8.93    0.65
  -2   1  21    7.96    0.60
   3   1  21    2.93    0.43
  -3  -1  21    2.77    0.38
   3  -1  21    2.40    0.42
  -3   1  21    2.82    0.38
  -4  -1  21    1.06    0.31
   4   1  21    0.37    0.29
   4  -1  21    0.14    0.33
   5   1  21   10.87    0.76
   5  -1  21    9.93    0.77
   0   1  22    0.33    0.33
   0  -1  22   -0.20    0.26
   1   1  22   13.78    0.80
  -1  -1  22   13.78    0.81
  -1   1  22   15.25    0.83
   1  -1  22   13.31    0.83
  -2  -1  22    1.92    0.37
   2   1  22    1.34    0.38
   2  -1  22    1.88    0.40
  -2   1  22    1.29    0.35
   3   1  22    2.25    0.42
  -3  -1  22    1.77    0.37
  -3   1  22    2.06    0.37
   3  -1  22    2.33    0.39
  -4  -1  22    7.13    0.60
   4   1  22    8.30    0.64
   4  -1  22    8.41    0.70
   5   1  22    1.13    0.41
   5  -1  22    1.22    0.41
   0  -1  23    7.19    0.60
   0   1  23    7.10    0.59
  -1  -1  23    1.84    0.40
   1   1  23    2.62    0.40
   1  -1  23    2.20    0.41
  -1   1  23    2.44    0.42
  -2  -1  23   30.16    1.44
   2   1  23   32.97    1.49
  -2   1  23   30.74    1.43
   2  -1  23   33.55    1.50
   3   1  23    0.87    0.39
  -3  -1  23    0.59    0.34
   3  -1  23    0.99    0.41
  -3   1  23    0.40    0.33
   4   1  23    1.51    0.38
   4  -1  23    1.34    0.42
   0   1  24    0.04    0.30
   0  -1  24    0.13    0.35
   1   1  24    9.48    0.74
  -1  -1  24    9.79    0.73
  -1   1  24    8.45    0.71
   1  -1  24    9.97    0.74
  -2  -1  24    0.00    0.33
   2   1  24    1.05    0.40
  -2   1  24    0.15    0.35
   2  -1  24    0.11    0.36
   0  -2   0  543.19   21.08
   1   2   0    0.88    0.07
   1  -2   0    0.96    0.07
  -2   2   0  470.06   18.40
   2  -2   0  504.69   19.36
   2   2   0  515.43   18.47
   2   2   0  498.65   19.35
   3   2   0    0.05    0.06
   3   2   0    0.17    0.08
  -3   2   0    0.11    0.08
   3  -2   0   -0.02    0.03
   4  -2   0   37.13    1.45
  -4   2   0   34.11    1.37
   4   2   0   35.28    1.34
   4   2   0   34.70    1.44
   5   2   0    0.52    0.14
   5  -2   0    0.70    0.16
   5   2   0    0.44    0.09
  -5   2   0    0.58    0.14
   6   2   0    0.33    0.13
  -6   2   0    0.50    0.15
   6  -2   0    0.16    0.13
   7   2   0    0.16    0.17
   7  -2   0   -0.10    0.17
   8   2   0    1.01    0.24
   8  -2   0    0.64    0.26
   9  -2   0    1.89    0.37
   9   2   0    2.10    0.33
  10  -2   0    0.05    0.28
  10   2   0    0.45    0.33
   0  -2  -1    0.05    0.02
   1   2   1   69.81    2.61
   1  -2  -1   67.04    2.61
   1   2  -1   63.98    2.62
   2   2   1    1.54    0.11
   2   2   1    1.28    0.10
  -2   2  -1    1.49    0.11
   2  -2  -1    1.52    0.11
  -2   2   1    1.55    0.12
   2   2  -1    1.22    0.12
   3   2   1   17.12    0.74
   3   2   1   18.28    0.69
  -3   2  -1   17.20    0.69
  -3   2   1   16.77    0.70
   3   2  -1   18.07    0.68
   4  -2  -1   14.09    0.63
  -4   2  -1   13.93    0.59
   4   2   1   15.30    0.64
   4   2   1   14.76    0.57
   4   2  -1   14.21    0.56
   4   2  -1   11.70    0.62
  -4   2   1   14.69    0.60
   5   2   1    3.95    0.27
   5  -2  -1    4.33    0.30
   5   2  -1    4.02    0.21
   5   2  -1    3.47    0.26
  -5   2   1    4.11    0.27
   6   2   1    3.52    0.20
   7   2   1   14.94    0.73
   7  -2  -1   13.27    0.71
  -7   2   1   14.46    0.66
   7  -2   1   13.78    0.71
   7   2  -1   13.97    0.72
   8   2   1    0.62    0.23
   8  -2  -1    0.93    0.28
   8  -2   1    0.59    0.23
   8   2  -1    0.43    0.26
   9  -2  -1   41.40    1.81
   9   2   1   40.21    1.80
   9  -2   1   41.03    1.82
   9   2  -1   41.09    1.80
  10   2   1    1.02    0.36
  10  -2  -1    1.12    0.39
  10  -2   1    1.66    0.39
  10   2  -1    1.27    0.33
   1   2   2   37.21    1.46
   1   2   2   37.57    1.41
  -2   2  -2   13.31    0.51
   2  -2  -2   12.49    0.55
   2   2   2   12.99    0.54
   2   2   2   13.54    0.52
  -3   2  -2    7.47    0.33
   3   2   2    7.73    0.36
   3   2   2    7.87    0.33
  -3   2   2    7.46    0.35
   4  -2  -2  106.28    3.97
   4   2   2  105.40    3.97
  -4   2  -2  102.08    3.76
   4   2   2   94.48    3.76
   4  -2   2   99.44    3.75
  -4   2   2   96.23    3.77
   5  -2  -2    0.08    0.12
   5   2   2    0.31    0.13
   5   2   2    0.01    0.04
   5  -2   2    0.18    0.07
   5  -2   2    0.02    0.08
   5   2  -2    0.04    0.03
  -5   2   2    0.29    0.12
   5   2  -2    0.17    0.08
   6  -2  -2    4.53    0.37
   6   2   2    5.08    0.27
   6   2   2    4.97    0.36
  -6   2   2    5.34    0.35
   7   2   2    1.01    0.21
   7  -2  -2    0.76    0.24
   7   2  -2    1.07    0.24
  -7   2   2    1.17    0.23
   7  -2   2    0.87    0.24
   8   2   2    0.21    0.22
   8  -2  -2    0.13    0.21
   8   2  -2    0.33    0.21
   8  -2   2   -0.09    0.19
   9   2   2    2.00    0.36
   9  -2  -2    2.08    0.34
   9  -2   2    1.41    0.32
   9   2  -2    2.16    0.33
  10   2   2    3.81    0.47
  10  -2  -2    3.31    0.43
  10  -2   2    4.08    0.50
  10   2  -2    4.93    0.51
   0  -2   3    0.24    0.05
   0   2   3    0.09    0.04
   0  -2  -3    0.12    0.02
   1  -2  -3  295.10   11.74
  -1  -2   3  295.70   11.17
   1   2   3  308.67   11.72
   1  -2   3  319.45   11.69
   1  -2   3  297.97   11.17
  -1   2   3  298.64   11.14
   1   2  -3  292.52   11.72
   2   2   3  100.33    3.71
   2  -2  -3   98.24    3.88
   2   2   3   99.32    3.88
  -2  -2   3  101.39    3.70
   2  -2   3   96.99    3.88
   2  -2   3   99.90    3.71
   3   2   3   40.64    1.55
  -3   2  -3   41.06    1.54
   3   2   3   41.24    1.64
   3  -2   3   39.84    1.55
   3  -2   3   41.87    1.64
   4   2   3    1.09    0.14
   4  -2  -3    0.50    0.14
  -4   2   3    1.00    0.14
   4   2  -3    1.20    0.17
   4  -2   3    0.73    0.09
   4  -2   3    1.06    0.14
   5   2   3    3.11    0.20
   5   2   3    3.22    0.27
   5  -2  -3    3.33    0.28
   5   2  -3    3.37    0.26
   5   2  -3    3.13    0.19
   5  -2   3    3.23    0.19
  -5   2   3    3.37    0.26
   5  -2   3    3.04    0.27
   6   2   3   53.81    2.23
   6  -2  -3   53.69    2.24
   6   2   3   57.28    2.09
  -6   2   3   53.24    2.12
   7  -2  -3    4.23    0.37
   7   2   3    4.52    0.36
   7  -2   3    4.14    0.36
   7   2  -3    5.00    0.38
  -7   2   3    4.31    0.35
   8  -2  -3    7.89    0.54
   8   2   3    6.81    0.47
  -8   2   3    5.96    0.44
   8  -2   3    6.33    0.48
   8   2  -3    7.04    0.49
   9   2   3    7.51    0.57
   9  -2  -3    6.30    0.56
   9   2  -3    7.59    0.59
   9  -2   3    6.99    0.59
  10  -2  -3    4.30    0.47
  10   2   3    4.19    0.46
  10   2  -3    4.50    0.50
  10  -2   3    3.81    0.49
   0  -2  -4  174.59    6.92
   0   2   4  181.41    6.61
   0  -2   4  178.04    6.92
   1  -2  -4   15.27    0.59
   1   2   4   13.47    0.58
  -1  -2   4   13.92    0.57
  -1  -2   4   14.64    0.58
  -1   2   4   14.05    0.57
   1  -2   4   14.66    0.61
  -1   2   4   14.95    0.57
   1  -2   4   14.16    0.58
   1   2  -4   15.40    0.61
  -2  -2   4   42.70    1.65
   2   2   4   43.79    1.65
   2   2   4   44.84    1.72
   2  -2  -4   41.38    1.73
   2  -2   4   46.60    1.74
   2   2  -4   40.40    1.74
   2  -2   4   44.64    1.66
  -2   2   4   44.17    1.64
  -3  -2   4    2.30    0.18
   3   2   4    2.64    0.17
  -3   2   4    1.71    0.16
   3   2  -4    3.19    0.20
   3  -2   4    2.12    0.17
   3  -2   4    2.05    0.15
  -4  -2   4    8.72    0.43
   4   2   4   10.66    0.45
   4   2   4    8.11    0.39
   4  -2  -4    9.79    0.45
   4  -2   4    8.58    0.44
   4  -2   4    8.67    0.39
   4   2  -4    8.96    0.46
   5   2   4   10.12    0.49
   5   2   4   10.88    0.44
   5  -2  -4    9.40    0.50
   5   2  -4    9.80    0.52
  -5   2   4    7.98    0.46
   5  -2   4   11.29    0.50
   5  -2   4    9.05    0.42
   6  -2  -4   10.85    0.58
   6   2   4   10.61    0.56
   6   2   4   10.83    0.48
   6  -2   4   10.13    0.55
   6   2  -4   10.24    0.58
   7  -2  -4    0.45    0.22
   7   2   4    0.49    0.21
   7  -2   4    0.44    0.22
  -7   2   4    0.09    0.20
   7   2  -4    0.22    0.19
   8   2   4   -0.15    0.24
   8  -2  -4   -0.38    0.23
   8  -2   4    0.18    0.22
  -8   2   4    0.22    0.24
   8   2  -4    0.01    0.21
   9  -2  -4    6.20    0.54
   9   2   4    5.50    0.50
   9   2  -4    5.96    0.51
   9  -2   4    5.84    0.51
  10   2   4    1.42    0.37
  10  -2  -4    1.31    0.35
  10  -2   4    1.74    0.40
  10   2  -4    1.78    0.40
   0  -2   5    0.05    0.06
   0  -2  -5    0.06    0.04
   0   2   5    0.05    0.05
   0  -2   5    0.02    0.02
  -1  -2   5   31.81    1.24
  -1  -2   5   32.38    1.26
   1   2   5   33.30    1.29
   1  -2  -5   32.11    1.30
   1   2  -5   33.14    1.31
  -1   2   5   32.92    1.24
  -1   2   5   33.57    1.25
   1  -2   5   32.98    1.31
   1  -2   5   32.04    1.27
   2   2   5    0.63    0.08
  -2  -2   5    0.82    0.09
   2  -2  -5    0.44    0.09
  -2  -2   5    0.75    0.09
  -2   2   5    0.74    0.08
   2  -2   5    0.62    0.09
   2  -2   5    0.62    0.09
   3   2   5    2.51    0.17
   3   2   5    1.75    0.15
  -3  -2   5    1.99    0.16
   3   2  -5    1.56    0.17
  -3   2   5    1.91    0.13
  -3   2   5    1.78    0.16
   3  -2   5    1.91    0.17
   3  -2   5    1.52    0.14
  -4  -2   5    0.45    0.12
   4  -2  -5    0.56    0.14
   4   2   5    0.55    0.11
   4   2   5    0.57    0.13
  -4   2   5    0.41    0.12
   4   2  -5    0.44    0.14
   4  -2   5    0.29    0.14
   5   2   5    0.07    0.15
   5  -2  -5    0.36    0.13
   5   2   5    0.00    0.11
  -5   2   5   -0.04    0.05
   5  -2   5    0.39    0.16
   5  -2   5    0.09    0.08
   5   2  -5    0.26    0.17
   6   2   5   85.95    3.28
   6  -2  -5   93.33    3.50
   6   2   5   83.46    3.47
   6   2  -5   84.03    3.49
   6  -2   5   87.28    3.49
   7   2   5    1.74    0.27
   7  -2  -5    1.76    0.28
  -7   2   5    1.88    0.27
   7  -2   5    2.17    0.29
   7   2  -5    2.22    0.28
   8   2   5    2.45    0.31
   8  -2  -5    2.26    0.32
   8  -2   5    2.66    0.32
  -8   2   5    2.04    0.31
   8   2  -5    2.46    0.35
   9  -2  -5    0.28    0.31
   9   2   5    0.35    0.30
   9   2  -5    0.74    0.28
   9  -2   5    0.52    0.31
  10   2   5   12.48    0.77
  10  -2  -5   13.02    0.84
  10  -2   5   12.95    0.82
  10   2  -5   11.79    0.81
   0   2   6    0.33    0.07
   0  -2   6    0.32    0.08
   0  -2  -6    0.51    0.06
   0   2  -6    0.16    0.07
   1   2   6    1.37    0.10
  -1  -2   6    1.21    0.12
  -1  -2   6    1.45    0.11
   1  -2  -6    1.31    0.11
  -1   2   6    1.09    0.10
   1  -2   6    1.38    0.12
  -1   2   6    1.20    0.11
   1   2  -6    1.22    0.12
   2   2   6   40.25    1.55
  -2  -2   6   36.38    1.50
   2  -2  -6   42.40    1.57
   2   2   6   37.51    1.50
   2  -2   6   37.22    1.57
  -2   2   6   40.59    1.49
   3   2   6  101.79    3.79
   3   2   6  100.40    3.96
  -3  -2   6   96.65    3.79
   3   2  -6   98.91    3.99
  -3   2   6  102.04    3.79
  -3   2   6   97.09    3.77
   3  -2   6  109.85    3.98
  -4  -2   6    6.45    0.34
   4   2   6    6.41    0.33
   4   2   6    7.15    0.35
   4  -2  -6    6.67    0.36
  -4   2   6    6.64    0.34
  -4   2   6    6.55    0.29
   4   2  -6    6.93    0.38
   4  -2   6    5.08    0.34
   4  -2   6    5.48    0.32
   5   2   6    0.54    0.13
   5  -2  -6    0.89    0.16
   5   2   6    0.94    0.17
  -5  -2   6    0.85    0.18
  -5   2   6    0.61    0.16
   5  -2   6    0.82    0.16
   5   2  -6    1.12    0.19
   5  -2   6    1.04    0.14
   6   2   6    5.17    0.37
   6  -2  -6    5.64    0.40
   6   2   6    5.04    0.31
   6   2  -6    4.97    0.37
   6  -2   6    4.48    0.35
   7   2   6   21.09    0.99
   7  -2  -6   20.54    0.99
  -7   2   6   21.73    0.95
   7  -2   6   21.64    1.01
   7   2  -6   21.09    1.02
   8  -2  -6    2.38    0.35
   8   2   6    2.44    0.32
  -8   2   6    2.43    0.33
   8   2  -6    2.38    0.36
   8  -2   6    2.63    0.33
   9  -2  -6   11.64    0.76
   9   2   6   12.03    0.74
   9   2  -6   12.83    0.73
   9  -2   6   11.15    0.71
  10   2   6    0.89    0.36
  10  -2  -6    0.44    0.36
  10  -2   6    0.36    0.30
  10   2  -6    0.71    0.36
   0   2   7   -0.02    0.06
   0  -2  -7    0.03    0.06
   0  -2   7    0.03    0.07
   0   2  -7    0.01    0.06
   0   2   7    0.18    0.07
  -1  -2   7   11.53    0.51
   1  -2  -7   11.14    0.49
  -1  -2   7    9.83    0.47
   1   2   7   12.31    0.49
   1  -2   7   11.98    0.51
  -1   2   7   11.72    0.49
   1  -2   7   12.52    0.51
   2   2   7   60.98    2.38
   2  -2  -7   66.51    2.49
  -2  -2   7   58.75    2.38
   2   2   7   62.71    2.47
   2  -2   7   65.40    2.49
   2  -2   7   62.33    2.39
  -2   2   7   62.71    2.37
  -2   2   7   60.71    2.37
   2   2  -7   64.63    2.50
   3   2   7    9.24    0.41
   3   2   7    8.99    0.41
  -3  -2   7    8.21    0.41
   3  -2  -7    8.81    0.43
  -3  -2   7    7.90    0.40
  -3   2   7    8.94    0.39
   3  -2   7    8.86    0.42
   3   2  -7    9.28    0.45
  -3   2   7    9.00    0.42
   3  -2   7    8.28    0.43
   4   2   7    2.22    0.19
   4   2   7    2.18    0.18
   4  -2  -7    2.08    0.21
  -4  -2   7    2.05    0.20
   4   2  -7    2.06    0.22
  -4   2   7    2.22    0.21
   4  -2   7    2.41    0.22
   4  -2   7    2.18    0.19
  -4   2   7    2.19    0.16
   5   2   7   12.82    0.61
  -5  -2   7   12.30    0.60
   5  -2  -7   13.22    0.63
   5   2   7   12.72    0.56
  -5   2   7   12.76    0.59
   5  -2   7   12.30    0.56
   5  -2   7   11.20    0.60
   5   2  -7   13.60    0.64
   6  -2  -7   57.51    2.44
   6   2   7   59.45    2.29
   6   2   7   62.00    2.43
   6   2  -7   59.94    2.45
  -6   2   7   59.72    2.32
   6  -2   7   57.98    2.43
   7   2   7   28.88    1.30
   7  -2  -7   30.32    1.33
  -7   2   7   29.86    1.26
   7  -2   7   28.68    1.31
   7   2  -7   30.27    1.33
   8   2   7    2.30    0.31
   8  -2  -7    2.52    0.35
  -8   2   7    2.98    0.32
   8  -2   7    2.94    0.37
   8   2  -7    2.98    0.38
   9  -2  -7   11.54    0.76
   9   2   7   11.95    0.74
   9   2  -7   12.33    0.77
  -9   2   7   11.92    0.72
   9  -2   7   12.35    0.73
  10   2   7   16.40    0.97
  10  -2  -7   18.14    1.01
  10  -2   7   16.95    0.99
  10   2  -7   17.18    1.00
   0  -2   8   42.37    1.79
   0   2   8   46.36    1.75
   0  -2  -8   48.61    1.83
   0   2   8   48.12    1.78
   1  -2  -8   17.71    0.73
   1   2   8   18.56    0.73
  -1  -2   8   17.11    0.70
  -1  -2   8   17.87    0.73
   1  -2   8   17.65    0.75
   1   2  -8   14.68    0.74
  -1   2   8   17.85    0.72
   1  -2   8   19.77    0.74
  -2  -2   8   36.58    1.48
   2  -2  -8   34.66    1.52
   2   2   8   39.45    1.47
   2   2   8   39.96    1.52
  -2   2   8   36.43    1.46
   2  -2   8   38.63    1.49
   2   2  -8   38.92    1.55
  -2   2   8   39.24    1.46
   2  -2   8   37.00    1.53
  -3  -2   8   52.16    2.03
   3   2   8   52.52    2.03
   3   2   8   53.94    2.11
   3  -2  -8   52.06    2.13
  -3  -2   8   49.70    2.03
  -3   2   8   54.92    2.02
   3   2  -8   50.62    2.14
   3  -2   8   55.56    2.13
   3  -2   8   52.90    2.05
  -3   2   8   54.80    2.03
   4   2   8    3.31    0.25
   4  -2  -8    3.43    0.27
   4   2   8    4.05    0.26
  -4  -2   8    3.30    0.27
   4  -2   8    4.16    0.29
  -4   2   8    3.54    0.22
  -4   2   8    3.85    0.28
   4  -2   8    3.67    0.26
   4   2  -8    3.81    0.28
   5   2   8    1.44    0.20
  -5  -2   8    1.41    0.21
   5  -2  -8    1.77    0.23
   5   2   8    1.44    0.18
   5   2  -8    1.77    0.25
   5  -2   8    1.77    0.20
   5  -2   8    2.01    0.24
  -5   2   8    1.87    0.23
   6  -2  -8   14.44    0.70
  -6  -2   8   14.13    0.69
   6   2   8   13.82    0.64
   6   2   8   13.46    0.67
  -6   2   8   14.37    0.68
   6  -2   8   13.75    0.64
   6  -2   8   13.43    0.69
   6   2  -8   14.36    0.71
   7  -2  -8   14.56    0.81
   7   2   8   16.62    0.80
  -7   2   8   15.32    0.77
   7  -2   8   16.76    0.80
   7   2  -8   15.80    0.81
   8  -2  -8   -0.07    0.21
   8   2   8   -0.01    0.21
   8   2  -8    0.08    0.23
   8  -2   8    0.11    0.23
  -8   2   8    0.09    0.25
   9  -2  -8    1.26    0.35
   9   2   8    0.87    0.32
   9   2  -8    0.54    0.29
  -9   2   8    1.06    0.33
   9  -2   8    1.29    0.32
  10  -2  -8   -0.01    0.33
  10   2   8   -0.36    0.32
  10   2  -8    0.23    0.30
  10  -2   8    0.15    0.30
   0  -2   9    0.09    0.07
   0   2   9    0.02    0.06
   0   2  -9   -0.01    0.10
   0  -2  -9    0.23    0.08
   0  -2   9   -0.06    0.11
   0   2   9    0.16    0.10
  -1  -2   9   13.72    0.55
   1  -2  -9   13.63    0.57
   1   2   9   12.73    0.56
  -1  -2   9   13.60    0.59
   1  -2   9   13.39    0.59
   1  -2   9   13.52    0.59
  -1   2   9   11.87    0.54
  -1   2   9   13.26    0.57
   1   2  -9   13.91    0.59
  -2  -2   9   64.28    2.43
   2   2   9   63.37    2.43
   2   2   9   63.35    2.51
  -2  -2   9   55.61    2.40
   2   2  -9   64.97    2.54
  -2   2   9   63.67    2.42
   2  -2   9   66.47    2.45
  -2   2   9   65.21    2.41
   2  -2   9   65.02    2.53
   3   2   9    7.07    0.37
   3   2   9    6.75    0.36
  -3  -2   9    7.49    0.38
   3  -2  -9    6.30    0.38
  -3  -2   9    7.82    0.38
  -3   2   9    7.50    0.38
   3  -2   9    7.82    0.39
   3  -2   9    8.14    0.40
   3   2  -9    7.05    0.40
  -3   2   9    7.24    0.36
   4   2   9    1.25    0.18
   4  -2  -9    1.31    0.19
   4   2   9    1.59    0.18
  -4  -2   9    1.46    0.20
  -4   2   9    1.55    0.15
   4  -2   9    1.80    0.20
   4  -2   9    1.71    0.19
  -4   2   9    1.48    0.18
   4   2  -9    1.60    0.20
   5  -2  -9   15.40    0.73
   5   2   9   16.25    0.72
  -5  -2   9   14.71    0.70
   5   2   9   15.09    0.68
   5   2  -9   16.60    0.76
  -5   2   9   14.67    0.69
   5  -2   9   14.56    0.73
   5  -2   9   15.09    0.69
   6  -2  -9   16.52    0.81
  -6  -2   9   16.89    0.79
   6   2   9   16.05    0.79
   6   2   9   17.05    0.75
   6  -2   9   15.44    0.75
  -6   2   9   17.19    0.78
   6   2  -9   16.81    0.83
   6  -2   9   17.08    0.82
   7   2   9   33.56    1.48
   7  -2  -9   37.42    1.51
  -7   2   9   32.93    1.41
   7  -2   9   32.86    1.48
   7   2  -9   32.52    1.50
   8  -2  -9    2.51    0.36
   8   2   9    2.65    0.35
  -8   2   9    2.50    0.35
   8  -2   9    2.44    0.37
   8   2  -9    3.02    0.40
   9  -2  -9    1.86    0.37
   9   2   9    1.57    0.35
   9   2  -9    1.86    0.38
   9  -2   9    1.52    0.33
  -9   2   9    1.70    0.36
  10   2   9    0.38    0.36
  10  -2  -9    0.55    0.36
  10  -2   9    1.14    0.39
  10   2  -9    0.08    0.35
   0  -2  10    4.03    0.28
   0  -2 -10    4.02    0.22
   0   2 -10    3.94    0.25
   0   2  10    3.80    0.25
   0  -2  10    3.86    0.20
  -1  -2  10   11.62    0.48
  -1  -2  10   11.52    0.53
   1  -2 -10   10.51    0.49
   1   2  10   11.23    0.49
  -1   2  10   11.12    0.51
  -1   2  10   11.24    0.48
   1  -2  10   11.19    0.52
   1  -2  10   12.05    0.54
   1   2 -10   10.94    0.52
   2   2  10   25.83    1.03
  -2  -2  10   25.43    1.01
  -2  -2  10   26.05    1.04
   2   2  10   26.39    1.05
  -2   2  10   25.08    1.01
   2  -2  10   25.23    1.07
   2  -2  10   24.91    1.05
   2   2 -10   23.78    1.07
  -2   2  10   25.50    1.02
   3   2  10   18.73    0.86
  -3  -2  10   20.56    0.86
   3  -2 -10   20.26    0.89
   3   2  10   19.63    0.86
  -3  -2  10   21.44    0.85
  -3   2  10   21.17    0.84
   3  -2  10   20.79    0.88
  -3   2  10   20.32    0.85
   3  -2  10   20.91    0.89
   3   2 -10   19.76    0.89
  -4  -2  10    0.50    0.16
   4   2  10    0.42    0.14
   4  -2 -10    0.46    0.17
   4   2  10    0.59    0.15
   4  -2  10    0.73    0.18
  -4   2  10    0.25    0.13
   4  -2  10    0.63    0.16
   4   2 -10    0.45    0.18
  -4   2  10    0.28    0.16
   5   2  10   22.56    0.96
   5   2  10   22.46    0.99
   5  -2 -10   23.73    1.02
  -5  -2  10   21.65    0.97
   5  -2  10   23.01    1.01
   5  -2  10   22.43    0.97
  -5   2  10   22.10    0.96
   5   2 -10   21.85    1.02
   6  -2 -10    3.35    0.33
   6   2  10    3.29    0.31
  -6  -2  10    2.49    0.31
   6   2  10    3.50    0.29
  -6   2  10    3.37    0.32
   6  -2  10    3.37    0.31
   6  -2  10    3.02    0.33
   6   2 -10    3.05    0.32
   7   2  10   28.61    1.27
   7  -2 -10   26.90    1.28
   7   2 -10   29.01    1.30
   7  -2  10   28.91    1.29
  -7   2  10   27.45    1.22
   8  -2 -10    1.17    0.31
   8   2  10    0.64    0.29
  -8   2  10    1.03    0.27
   8   2 -10    1.10    0.33
   8  -2  10    0.92    0.28
   9  -2 -10    5.27    0.50
   9   2  10    4.36    0.47
   9  -2  10    4.38    0.46
  -9   2  10    5.02    0.48
   9   2 -10    4.76    0.50
  10  -2 -10   -0.03    0.34
  10   2  10    0.28    0.35
  10   2 -10    0.24    0.35
  10  -2  10    0.19    0.37
   0  -2  11    0.12    0.08
   0   2  11    0.12    0.13
   0   2 -11   -0.04    0.11
   0  -2 -11    0.00    0.08
   0  -2  11   -0.07    0.11
   0   2  11    0.00    0.09
  -1  -2  11    1.03    0.16
   1   2  11    0.57    0.12
   1   2  11    1.55    0.14
   1   2 -11    1.08    0.15
   1  -2  11    1.15    0.15
   1  -2  11    1.22    0.17
  -1   2  11    1.35    0.17
  -1   2  11    1.31    0.14
   2   2  11   25.15    1.08
  -2  -2  11   25.77    1.04
   2   2  11   27.66    1.08
  -2  -2  11   25.89    1.07
   2  -2 -11   26.74    1.09
  -2   2  11   26.20    1.04
  -2   2  11   26.66    1.06
   2   2 -11   25.07    1.11
   2  -2  11   26.74    1.09
   2  -2  11   25.31    1.10
   3   2  11    3.46    0.28
   3   2  11    3.35    0.24
  -3  -2  11    2.91    0.26
  -3  -2  11    3.30    0.26
   3  -2 -11    3.15    0.27
   3  -2  11    3.09    0.28
   3   2 -11    4.27    0.30
  -3   2  11    3.43    0.27
  -3   2  11    4.08    0.28
   3  -2  11    3.22    0.27
   4  -2 -11    4.12    0.33
  -4  -2  11    4.09    0.31
  -4  -2  11    4.30    0.30
   4   2  11    4.16    0.29
   4   2  11    3.72    0.29
   4   2 -11    4.18    0.34
   4  -2  11    4.20    0.33
  -4   2  11    4.08    0.32
   4  -2  11    4.08    0.30
  -4   2  11    4.41    0.29
   5  -2 -11   20.46    0.93
   5   2  11   18.94    0.87
   5   2  11   20.92    0.91
  -5  -2  11   20.60    0.89
  -5   2  11   21.14    0.89
   5  -2  11   19.14    0.90
   5  -2  11   19.49    0.92
   5   2 -11   20.10    0.94
  -6  -2  11   19.91    0.94
   6   2  11   20.11    0.96
   6   2  11   20.67    0.93
   6  -2 -11   21.91    0.99
   6   2 -11   21.64    0.99
   6  -2  11   21.15    0.95
  -6   2  11   21.26    0.93
   6  -2  11   20.80    0.99
   7   2  11   12.67    0.69
   7  -2 -11   12.37    0.71
   7   2  11   12.84    0.66
   7   2 -11   12.23    0.73
  -7   2  11   12.14    0.67
   7  -2  11   12.70    0.72
   8  -2 -11   28.29    1.29
   8   2  11   26.78    1.27
   8  -2  11   25.54    1.28
   8   2 -11   28.35    1.31
  -8   2  11   27.66    1.23
   9  -2 -11    1.77    0.38
   9   2  11    1.83    0.38
   9   2 -11    1.57    0.34
   9  -2  11    1.92    0.40
  -9   2  11    1.64    0.33
  10  -2 -11    4.53    0.50
  10   2  11    4.98    0.53
   0   2  12   14.11    0.57
   0  -2  12   12.26    0.62
   0   2 -12   13.00    0.62
   0   2  12   14.88    0.62
   1   2  12   24.70    0.99
   1   2  12   19.91    0.92
  -1  -2  12   24.63    1.01
  -1   2  12   25.01    0.95
   1  -2  12   24.69    1.01
   1   2 -12   22.54    1.01
  -1   2  12   25.17    0.99
   2   2  12    8.03    0.46
  -2  -2  12    9.15    0.48
  -2  -2  12    9.49    0.44
   2  -2 -12    9.79    0.46
   2   2  12    9.80    0.45
  -2   2  12    9.80    0.47
   2  -2  12    7.61    0.46
   2   2 -12    9.19    0.48
   2  -2  12    9.54    0.49
  -2   2  12    9.20    0.44
  -3  -2  12    2.02    0.22
   3  -2 -12    1.90    0.22
   3   2  12    2.38    0.21
  -3  -2  12    2.80    0.23
   3   2  12    1.89    0.22
   3   2 -12    2.46    0.25
  -3   2  12    2.32    0.22
  -3   2  12    1.93    0.21
   3  -2  12    2.07    0.23
   3  -2  12    1.99    0.23
   4  -2 -12    0.84    0.19
   4   2  12    1.11    0.20
  -4  -2  12    0.89    0.18
   4   2  12    1.32    0.19
  -4  -2  12    0.81    0.18
   4  -2  12    0.98    0.21
  -4   2  12    0.69    0.17
   4   2 -12    1.25    0.22
   4  -2  12    0.70    0.17
  -4   2  12    0.73    0.19
   5   2  12   31.60    1.32
   5   2  12   31.95    1.29
  -5  -2  12   32.25    1.28
   5  -2 -12   30.34    1.33
   5   2 -12   28.88    1.35
   5  -2  12   30.95    1.30
  -5   2  12   30.39    1.27
   5  -2  12   29.36    1.33
   6  -2 -12    2.04    0.29
  -6  -2  12    1.61    0.28
   6   2  12    1.33    0.26
   6   2  12    1.86    0.27
   6  -2  12    1.87    0.27
   6  -2  12    1.74    0.29
   6   2 -12    1.48    0.29
  -6   2  12    1.51    0.24
   7  -2 -12   17.53    0.87
   7   2  12   17.25    0.85
   7   2  12   15.49    0.80
  -7   2  12   17.60    0.83
   7  -2  12   16.50    0.87
   7   2 -12   15.87    0.87
   8   2  12    4.33    0.44
   8  -2 -12    5.01    0.46
   8   2 -12    4.75    0.47
  -8   2  12    4.91    0.44
   8  -2  12    3.76    0.45
   9  -2 -12    5.98    0.54
   9   2  12    5.71    0.54
   9   2 -12    6.16    0.56
  -9   2  12    6.49    0.54
   9  -2  12    5.77    0.56
  10  -2 -12    0.02    0.35
  10   2  12    0.38    0.38
   0  -2 -13    0.05    0.11
   0   2 -13    0.03    0.13
   0   2  13    0.20    0.13
   0  -2  13    0.06    0.09
   0   2  13    0.04    0.11
   1   2  13    5.40    0.28
   1  -2 -13    5.75    0.32
  -1  -2  13    5.91    0.38
   1   2 -13    5.73    0.36
   1  -2  13    5.18    0.34
  -1   2  13    5.98    0.32
  -1  -2 -13    5.13    0.31
  -1   2  13    5.16    0.35
   2   2  13    0.68    0.15
   2   2  13    0.21    0.16
  -2  -2  13    0.38    0.14
   2  -2 -13    0.50    0.15
  -2  -2  13    0.34    0.16
  -2   2  13    0.27    0.14
   2  -2  13    0.40    0.17
   2  -2  13    0.71    0.17
   2   2 -13    0.34    0.16
  -2   2  13    0.53    0.17
  -3  -2  13   46.57    1.72
  -3  -2  13   44.55    1.75
   3   2  13   43.18    1.79
   3   2  13   43.76    1.76
   3  -2 -13   42.48    1.80
   3   2 -13   45.19    1.83
   3  -2  13   43.59    1.81
   3  -2  13   44.15    1.78
  -3   2  13   42.48    1.72
  -3   2  13   43.06    1.73
   4  -2 -13   11.34    0.59
   4   2  13   12.14    0.60
  -4  -2  13   10.81    0.57
  -4  -2  13   12.34    0.59
   4   2  13   10.86    0.57
   4   2 -13   12.29    0.62
  -4   2  13   11.83    0.58
   4  -2  13   11.41    0.60
   4  -2  13   11.23    0.62
  -4   2  13   12.23    0.57
   5   2  13    1.32    0.24
   5   2  13    0.92    0.21
  -5  -2  13    1.12    0.23
   5  -2 -13    1.19    0.23
   5   2 -13    0.97    0.22
  -5   2  13    0.93    0.23
   5  -2  13    0.99    0.24
   5  -2  13    1.09    0.24
   6   2  13    0.34    0.22
   6  -2 -13    0.39    0.25
  -6  -2  13    0.07    0.23
   6   2  13    0.56    0.24
   6  -2  13    0.30    0.22
   6  -2  13    0.60    0.25
   6   2 -13    0.51    0.23
  -6   2  13    0.62    0.24
   7  -2 -13    3.93    0.40
   7   2  13    3.98    0.38
   7   2  13    3.44    0.38
   7   2 -13    3.90    0.42
   7  -2  13    4.13    0.42
  -7   2  13    4.05    0.39
   8  -2 -13   18.97    1.05
   8   2  13   20.92    1.05
   8  -2  13   22.21    1.09
  -8   2  13   21.58    1.02
   8   2 -13   21.44    1.08
   9   2 -13    0.11    0.33
   9  -2  13    0.47    0.35
  -9   2  13    0.55    0.33
   0   2  14   20.02    0.87
   0   2 -14   20.43    0.88
   0  -2  14   17.93    0.88
   0   2  14   21.10    0.82
  -1  -2  14   71.47    2.84
  -1   2 -14   75.43    2.93
  -1   2  14   74.28    2.83
   1   2 -14   73.21    2.93
  -1   2  14   71.16    2.77
   2   2  14    4.21    0.35
  -2  -2  14    4.68    0.34
   2   2 -14    4.38    0.35
  -2   2  14    4.76    0.32
   2  -2  14    4.74    0.33
  -2   2  14    4.78    0.35
   2  -2  14    4.37    0.35
  -3  -2  14    4.40    0.33
  -3  -2  14    4.21    0.36
   3   2  14    5.06    0.38
   3   2 -14    4.96    0.36
   3  -2  14    5.28    0.40
  -3   2  14    4.94    0.33
  -3   2  14    4.90    0.35
   3  -2  14    4.15    0.34
  -4  -2  14   13.19    0.66
   4   2  14   13.78    0.68
  -4  -2  14   14.43    0.65
  -4   2  14   13.12    0.64
   4  -2  14   12.61    0.67
   4   2 -14   13.04    0.68
  -4   2  14   13.33    0.64
   4  -2  14   12.99    0.69
   5   2  14    6.77    0.48
  -5  -2  14    7.56    0.46
   5   2 -14    6.65    0.49
   5  -2  14    7.26    0.48
  -5   2  14    6.92    0.46
   5  -2  14    7.01    0.52
   6   2  14    1.20    0.26
  -6  -2  14    1.01    0.28
   6   2 -14    1.45    0.27
  -6   2  14    1.13    0.26
   6  -2  14    1.03    0.26
   6  -2  14    1.18    0.29
   7   2  14    5.25    0.44
  -7   2  14    4.79    0.41
   7   2 -14    5.60    0.48
   7  -2  14    5.67    0.48
   8  -2  14    1.14    0.34
  -8   2  14    1.40    0.34
   8   2 -14    1.02    0.33
  -9   2  14    0.53    0.34
   9   2 -14    0.75    0.36
   9  -2  14    0.75    0.37
   0   2 -15   -0.12    0.17
   0   2  15    0.00    0.18
   0  -2  15    0.15    0.20
  -1  -2  15   21.15    0.98
   1   2  15   19.84    0.96
  -1   2 -15   23.95    0.98
  -1   2  15   21.56    0.96
   1   2 -15   23.79    0.99
   1  -2  15   21.43    0.99
   2   2  15    2.60    0.27
  -2  -2  15    2.06    0.27
   2  -2  15    2.97    0.27
   2  -2  15    2.34    0.28
  -2   2  15    2.16    0.27
  -2   2  15    2.62    0.25
   2   2 -15    2.91    0.29
  -3  -2  15   18.09    0.81
   3   2  15   17.53    0.82
  -3   2  15   16.90    0.79
   3   2 -15   16.52    0.81
   3  -2  15   16.77    0.83
  -3   2  15   17.61    0.77
   3  -2  15   16.87    0.81
   4   2  15   10.12    0.58
  -4  -2  15   11.45    0.55
  -4  -2  15    9.90    0.56
   4  -2  15    8.98    0.54
   4  -2  15    9.01    0.56
  -4   2  15    9.07    0.51
  -4   2  15    9.25    0.52
   4   2 -15    9.79    0.57
   5   2  15   23.17    1.02
  -5  -2  15   22.62    0.99
   5  -2  15   21.81    1.03
   5  -2  15   21.59    1.02
   5   2 -15   21.61    1.04
  -5   2  15   20.84    0.97
  -6  -2  15    4.99    0.42
   6   2  15    5.47    0.45
   6   2 -15    4.91    0.44
   6  -2  15    4.50    0.42
  -6   2  15    4.48    0.40
   6  -2  15    5.57    0.46
   7   2  15    0.32    0.27
   7   2 -15    0.67    0.30
  -7   2  15    0.67    0.29
   7  -2  15    0.49    0.31
  -8   2  15   13.51    0.77
   8   2 -15   12.87    0.82
   8  -2  15   14.39    0.83
   9   2 -15    1.73    0.41
  -9   2  15    1.35    0.38
   9  -2  15    1.24    0.40
   0   2 -16    5.28    0.37
   0   2  16    4.69    0.40
   0  -2  16    4.88    0.42
  -1   2 -16   20.33    0.92
   1   2  16   19.26    0.90
  -1  -2  16   19.73    0.92
   1  -2  16   20.73    0.94
   1   2 -16   20.84    0.92
  -1   2  16   19.82    0.90
  -2  -2  16   11.07    0.58
   2   2  16   10.71    0.60
   2  -2  16   10.10    0.60
   2   2 -16   11.82    0.59
   2  -2  16   12.20    0.60
  -2   2  16    9.81    0.58
   3   2  16    7.26    0.47
  -3  -2  16    7.62    0.48
   3  -2  16    8.05    0.50
   3  -2  16    6.79    0.46
  -3   2  16    8.28    0.45
  -3   2  16    7.92    0.47
   3   2 -16    6.86    0.47
   4   2  16    7.08    0.50
  -4  -2  16    6.92    0.46
   4  -2  16    6.65    0.52
   4  -2  16    6.90    0.47
   4   2 -16    7.10    0.48
  -4   2  16    6.80    0.46
  -4   2  16    6.47    0.46
  -5  -2  16    3.53    0.34
   5   2  16    3.34    0.37
   5   2 -16    3.23    0.36
   5  -2  16    3.14    0.38
   5  -2  16    3.52    0.36
  -5   2  16    3.37    0.33
  -6  -2  16    0.17    0.24
   6   2  16    0.02    0.25
   6  -2  16    0.21    0.26
  -6   2  16    0.34    0.25
   6   2 -16    0.21    0.26
   6  -2  16    0.30    0.26
   7   2  16    0.34    0.28
  -7   2  16    0.71    0.29
   7   2 -16    0.45    0.30
   7  -2  16    0.69    0.31
  -8   2  16    1.85    0.36
   8   2 -16    1.83    0.38
   0  -2  17   -0.05    0.19
   0   2  17   -0.21    0.21
   0   2 -17   -0.07    0.21
   1   2  17   25.79    1.14
  -1   2 -17   24.69    1.16
  -1  -2  17   26.12    1.15
   1   2 -17   27.66    1.17
  -1   2  17   24.99    1.13
   1  -2  17   25.99    1.16
   2   2  17    0.45    0.24
  -2  -2  17    0.46    0.24
  -2   2  17    0.67    0.23
   2   2 -17    0.70    0.24
   2  -2  17    0.61    0.26
   2  -2  17    0.66    0.22
   3   2  17    8.77    0.56
  -3  -2  17    8.02    0.53
   3  -2  17    8.79    0.58
  -3   2  17    7.62    0.50
   3  -2  17    8.47    0.52
   3   2 -17    8.99    0.53
   4   2  17    0.72    0.24
  -4  -2  17    0.70    0.26
  -4   2  17    0.85    0.24
  -4   2  17    0.95    0.25
   4  -2  17    0.83    0.28
   5   2  17   14.34    0.79
  -5   2  17   14.30    0.72
   5  -2  17   13.96    0.80
   6   2  17    7.90    0.60
  -6   2  17    7.87    0.54
   6  -2  17    8.52    0.61
   7   2  17    1.28    0.34
  -7   2  17    1.36    0.33
  -8   2  17    1.08    0.35
   0  -2  18    5.52    0.47
   0   2  18    5.81    0.47
   1   2  18    3.87    0.39
  -1  -2  18    4.07    0.38
  -1   2  18    4.48    0.40
   1  -2  18    5.17    0.44
   2   2  18   25.86    1.19
  -2  -2  18   27.70    1.19
   2  -2  18   27.18    1.22
  -2   2  18   25.82    1.17
  -3  -2  18    9.69    0.58
   3   2  18    9.13    0.57
   3  -2  18    9.62    0.63
  -3   2  18    8.56    0.55
   4   2  18    2.77    0.37
  -4  -2  18    2.96    0.34
   4  -2  18    2.95    0.39
  -4   2  18    2.37    0.33
   5   2  18    0.30    0.29
   5  -2  18    0.15    0.28
   6   2  18    1.30    0.33
   6  -2  18    1.39    0.35
  -6   2  18    1.36    0.31
   7   2  18    0.14    0.30
  -7   2  18    0.24    0.30
   0  -2  19    0.09    0.27
   0   2  19   -0.41    0.24
   1   2  19   52.17    2.13
  -1  -2  19   53.48    2.13
  -1   2  19   50.40    2.10
   1  -2  19   52.19    2.14
   2   2  19    0.16    0.23
  -2  -2  19    0.40    0.23
   2  -2  19    0.27    0.28
  -2   2  19   -0.19    0.24
   3   2  19    4.24    0.43
  -3  -2  19    3.69    0.39
  -3   2  19    3.28    0.36
   3  -2  19    3.45    0.39
   4   2  19    0.65    0.27
  -4  -2  19    0.81    0.28
   4  -2  19    0.81    0.32
   5   2  19   15.35    0.85
   5  -2  19   14.26    0.86
   6   2  19    0.11    0.31
   6  -2  19    0.42    0.33
   7   2  19    1.62    0.39
  -7   2  19    2.60    0.40
   0  -2  20    1.96    0.35
   0   2  20    1.41    0.32
  -1  -2  20    1.70    0.34
   1   2  20    2.30    0.33
   1  -2  20    1.58    0.35
  -1   2  20    2.17    0.35
  -2  -2  20   33.62    1.45
   2   2  20   33.80    1.47
   2  -2  20   32.56    1.46
  -2   2  20   32.28    1.43
  -3  -2  20    0.20    0.27
   3   2  20    0.26    0.30
   3  -2  20    0.38    0.31
  -3   2  20    0.40    0.27
  -4  -2  20    0.43    0.30
   4   2  20    0.69    0.33
   4  -2  20    0.33    0.28
   5   2  20    0.50    0.28
   5  -2  20    0.21    0.32
   6   2  20    2.71    0.44
   6  -2  20    2.34    0.43
   0  -2  21   -0.03    0.30
   0   2  21   -0.23    0.29
   1   2  21   13.86    0.76
  -1  -2  21   13.50    0.75
   1  -2  21   13.05    0.79
  -1   2  21   13.65    0.78
   2   2  21    1.27    0.35
  -2  -2  21    0.95    0.32
   2  -2  21    1.49    0.36
  -2   2  21    1.04    0.32
   3   2  21    1.27    0.32
  -3  -2  21    1.30    0.33
  -3   2  21    1.37    0.32
   3  -2  21    1.16    0.33
  -4  -2  21    6.13    0.51
   4   2  21    6.15    0.57
   4  -2  21    6.52    0.59
   5   2  21   11.95    0.80
   5  -2  21   11.47    0.81
   0  -2  22    0.30    0.32
   0   2  22    0.39    0.33
  -1  -2  22    5.62    0.52
   1   2  22    5.24    0.48
   1  -2  22    5.32    0.50
  -1   2  22    6.00    0.50
   2   2  22    7.42    0.59
  -2  -2  22    6.25    0.54
  -2   2  22    6.95    0.58
   2  -2  22    6.49    0.58
   3   2  22    0.07    0.34
  -3  -2  22    0.23    0.30
  -3   2  22    0.16    0.30
   3  -2  22    0.08    0.34
   4   2  22    0.36    0.31
  -4  -2  22    0.03    0.30
   4  -2  22   -0.27    0.29
   5   2  22   10.63    0.78
   5  -2  22   10.30    0.80
   0   2  23   -0.01    0.33
   0  -2  23   -0.19    0.33
   1   2  23    5.75    0.52
  -1  -2  23    5.24    0.52
  -1   2  23    5.27    0.52
   1  -2  23    5.69    0.55
   2   2  23    1.39    0.40
  -2  -2  23    1.25    0.36
  -2   2  23    1.65    0.38
   2  -2  23    1.60    0.37
  -3  -2  23   -0.04    0.31
   3   2  23    0.35    0.36
  -3   2  23    0.30    0.35
   3  -2  23   -0.07    0.35
   0   2  24    0.10    0.36
   0  -2  24   -0.01    0.36
  -1  -2  24    6.66    0.59
   1   2  24    5.45    0.53
   1  -2  24    6.96    0.61
  -1   2  24    5.70    0.56
   2   2  24    1.14    0.40
  -2  -2  24    1.48    0.39
   2  -2  24    1.05    0.41
  -2   2  24    0.93    0.37
   0  -3   0    0.08    0.04
   1   3   0    0.11    0.04
   1  -3   0    0.11    0.04
   2  -3   0  248.30   10.93
  -2   3   0  284.15   10.41
   2   3   0  295.23   10.94
   2   3   0  299.22   10.44
  -3   3   0    0.29    0.09
   3   3   0    0.38    0.07
   3   3   0    0.56    0.10
  -4   3   0    7.47    0.36
   4   3   0    7.04    0.34
   4   3   0    8.51    0.39
   4  -3   0    7.92    0.39
   5  -3   0    0.47    0.14
  -5   3   0    0.74    0.15
   5   3   0    0.59    0.15
  -6   3   0   10.33    0.47
   6   3   0    8.32    0.49
   6  -3   0    9.58    0.51
   6   3   0    9.56    0.43
  -7   3   0    0.31    0.19
   7   3   0    0.20    0.18
   7  -3   0   -0.21    0.19
   8   3   0    0.75    0.24
   8  -3   0    1.44    0.30
   9   3   0   -0.01    0.28
   9  -3   0   -0.03    0.25
  10  -3   0    6.36    0.58
  10   3   0    8.27    0.65
   0  -3  -1   11.21    0.49
   0  -3   1   13.18    0.50
   1  -3  -1    3.61    0.17
   1   3   1    2.78    0.16
   1   3   1    4.01    0.17
   1  -3   1    3.67    0.18
  -1   3   1    3.50    0.16
   1   3  -1    3.91    0.19
   2   3   1    0.84    0.09
   2   3   1    1.05    0.10
   2  -3  -1    0.95    0.09
  -2   3  -1    1.12    0.09
   2  -3   1    0.94    0.09
   2   3  -1    1.10    0.11
  -2   3   1    1.00    0.10
   3   3   1    4.35    0.25
   3   3   1    4.49    0.22
  -3   3  -1    4.76    0.24
   3   3  -1    5.65    0.28
  -3   3   1    4.95    0.25
  -4   3  -1    1.80    0.15
   4  -3  -1    1.38    0.17
   4   3   1    1.04    0.15
   4   3  -1    1.72    0.18
   4   3  -1    1.69    0.14
   4  -3   1    2.01    0.17
  -4   3   1    1.47    0.15
   5  -3  -1   34.72    1.48
   5   3   1   37.18    1.49
  -5   3  -1   36.51    1.40
   5  -3   1   33.27    1.47
   5   3  -1   36.97    1.49
  -5   3   1   34.92    1.40
  -6   3  -1    0.62    0.14
   6  -3  -1    0.28    0.19
   6   3   1    0.49    0.18
   6   3   1    0.76    0.12
   6   3  -1    0.37    0.11
  -6   3   1    0.62    0.18
   6   3  -1    0.03    0.06
   6  -3   1    0.23    0.10
   7   3   1    8.56    0.49
   7  -3  -1    7.47    0.52
   7  -3   1    8.51    0.53
  -7   3   1    8.19    0.48
   7   3  -1    8.88    0.50
   8   3   1    0.13    0.21
   8  -3  -1    0.15    0.21
   8   3  -1   -0.07    0.24
   8  -3   1    0.27    0.21
   9  -3  -1    0.91    0.30
   9   3   1    1.26    0.33
   9   3  -1    1.66    0.34
   9  -3   1    0.84    0.29
  10  -3  -1    0.05    0.34
  10   3   1    1.11    0.36
  10   3  -1    0.80    0.31
  10  -3   1    0.39    0.35
   0   3   2    0.02    0.02
   1   3  -2    5.61    0.26
   2   3   2   23.80    0.99
   2   3   2   24.83    0.94
   2  -3  -2   24.16    0.99
  -2   3  -2   25.93    0.94
  -2   3   2   23.77    0.94
   3   3   2   14.77    0.61
   3   3   2   15.03    0.65
  -3   3  -2   15.33    0.61
  -3   3   2   16.16    0.63
   4  -3  -2   52.73    2.16
   4   3   2   56.05    2.16
  -4   3  -2   53.75    2.04
  -4   3   2   52.86    2.06
   5   3   2   13.55    0.62
   5   3   2   12.34    0.54
  -5   3  -2   12.45    0.56
   5  -3  -2   12.96    0.61
  -5   3   2   12.67    0.58
   5  -3   2   13.58    0.52
   6  -3  -2   10.32    0.55
   6   3   2   10.19    0.46
  -6   3  -2   10.98    0.50
   6   3   2    9.82    0.53
  -6   3   2   10.62    0.53
   7   3   2    2.54    0.30
   7  -3  -2    2.66    0.30
   7  -3   2    3.42    0.31
  -7   3   2    2.73    0.29
   7   3  -2    2.87    0.30
   8   3   2    1.14    0.26
   8  -3  -2    1.25    0.26
  -8   3   2    1.11    0.24
   8  -3   2    1.32    0.30
   8   3  -2    1.58    0.28
   9   3   2    3.24    0.41
   9  -3  -2    2.92    0.41
   9  -3   2    2.94    0.38
   9   3  -2    2.97    0.40
  10  -3  -2    2.42    0.40
  10   3   2    3.14    0.43
  10   3  -2    3.59    0.47
  10  -3   2    2.72    0.41
   0   3   3    0.23    0.05
   0  -3   3    0.19    0.06
   1   3   3  164.68    6.30
   1  -3  -3  158.48    6.31
   1  -3   3  164.04    6.05
   2  -3  -3  339.52   13.54
   2   3   3  355.68   12.87
   2   3   3  345.44   13.52
   2  -3   3  347.42   12.92
   3   3   3    0.15    0.06
   3   3   3    0.41    0.09
   3  -3  -3    0.29    0.06
  -3   3  -3    0.45    0.08
   3  -3   3    0.38    0.07
   3  -3   3    0.03    0.08
  -3   3   3    0.28    0.08
   4   3   3    7.23    0.34
   4  -3  -3    6.66    0.34
  -4   3  -3    6.10    0.29
   4  -3   3    5.71    0.28
   4  -3   3    4.72    0.31
  -4   3   3    6.76    0.34
   5   3   3   17.91    0.79
  -5   3  -3   17.84    0.73
   5  -3  -3   17.58    0.81
   5   3   3   18.66    0.73
   5  -3   3   17.22    0.71
  -5   3   3   17.99    0.77
   6   3   3   12.92    0.55
   6   3   3   12.31    0.62
   6  -3  -3   11.96    0.62
  -6   3   3   12.72    0.60
   7   3   3    0.20    0.20
   7  -3  -3    0.37    0.22
   7   3  -3    0.13    0.21
  -7   3   3    0.35    0.21
   7  -3   3    0.34    0.19
   8  -3  -3   -0.14    0.25
   8   3   3   -0.08    0.25
  -8   3   3   -0.10    0.19
   8  -3   3    0.02    0.21
   8   3  -3    0.22    0.21
   9   3   3    0.56    0.26
   9  -3  -3    0.77    0.28
   9  -3   3    0.04    0.30
   9   3  -3    0.31    0.29
  10   3   3    0.39    0.29
  10  -3  -3    0.03    0.28
  10   3  -3    0.36    0.29
  10  -3   3   -0.09    0.28
   0  -3   4    0.12    0.08
   0  -3  -4    0.18    0.03
   1   3   4    3.30    0.15
  -1  -3   4    3.55    0.19
   1  -3  -4    3.60    0.16
  -1   3   4    3.26    0.16
   1  -3   4    3.19    0.18
   1  -3   4    3.06    0.18
   1   3  -4    3.20    0.18
  -1   3   4    3.34    0.17
   2  -3  -4   20.56    0.81
   2   3   4   21.60    0.81
   2  -3   4   19.26    0.82
   2  -3   4   18.83    0.78
  -2   3   4   19.10    0.76
  -3   3  -4   58.85    2.19
   3   3   4   58.77    2.32
   3   3  -4   59.87    2.35
   3  -3   4   55.63    2.22
   3  -3   4   59.84    2.33
   4  -3  -4    5.74    0.33
   4   3   4    6.16    0.34
   4   3   4    6.27    0.31
   4   3  -4    5.98    0.36
   4  -3   4    7.12    0.35
   4  -3   4    6.20    0.30
   5  -3  -4   43.50    1.82
   5   3   4   44.74    1.81
   5   3   4   46.37    1.70
  -5   3   4   47.56    1.74
   5  -3   4   44.01    1.81
   5  -3   4   41.32    1.69
   5   3  -4   41.80    1.83
   6   3   4   13.80    0.55
   6  -3  -4   12.76    0.63
   6   3   4   12.71    0.63
  -6   3   4    9.88    0.58
   7   3   4    5.63    0.40
   7  -3  -4    5.16    0.44
   7  -3   4    5.82    0.44
  -7   3   4    5.88    0.39
   7   3  -4    6.44    0.46
   8   3   4    0.59    0.26
   8  -3  -4    0.46    0.27
   8  -3   4    0.89    0.25
   8   3  -4    0.91    0.25
  -8   3   4    0.44    0.25
   9   3   4   11.21    0.69
   9  -3  -4   11.33    0.71
   9   3  -4   12.62    0.75
   9  -3   4   11.80    0.74
  10  -3  -4    3.60    0.44
  10   3   4    3.48    0.46
  10   3  -4    3.29    0.43
  10  -3   4    3.03    0.42
   0  -3  -5  101.57    3.82
   0  -3   5  101.33    3.86
   0   3   5   92.42    3.68
   1  -3  -5   15.63    0.61
   1   3   5   15.24    0.60
  -1  -3   5   14.42    0.61
   1   3  -5   14.82    0.63
  -1   3   5   13.98    0.59
  -1   3   5   15.09    0.59
   1  -3   5   15.27    0.63
   1  -3   5   14.04    0.61
   2   3   5   23.31    0.89
   2  -3  -5   21.00    0.90
  -2   3   5   22.58    0.85
   2  -3   5   22.19    0.91
   2  -3   5   21.21    0.88
   3   3   5    3.01    0.19
   3   3   5    2.70    0.18
   3  -3   5    2.35    0.18
  -3   3   5    2.74    0.20
  -3   3   5    2.87    0.16
   3  -3   5    3.34    0.21
   3   3  -5    3.07    0.24
   4  -3  -5   35.07    1.52
   4   3   5   37.39    1.44
   4   3   5   36.72    1.51
   4  -3   5   39.55    1.53
   4   3  -5   36.68    1.54
   5   3   5   12.05    0.57
   5   3   5   12.94    0.54
   5  -3  -5   11.92    0.59
   5  -3   5   11.62    0.58
   5   3  -5   11.67    0.60
   6  -3  -5   17.88    0.85
   6   3   5   18.56    0.76
   6   3   5   18.30    0.83
   6  -3   5   17.79    0.85
   6   3  -5   17.08    0.84
   7   3   5    0.12    0.20
   7  -3  -5    0.18    0.21
   7   3  -5    0.37    0.24
   7  -3   5    0.16    0.19
  -7   3   5   -0.01    0.20
   8   3   5    0.29    0.26
   8  -3  -5    0.39    0.23
   8  -3   5    0.19    0.22
   8   3  -5    0.33    0.27
  -8   3   5    0.67    0.26
   9   3   5    0.62    0.26
   9  -3  -5    0.12    0.26
   9  -3   5    0.35    0.27
  -9   3   5    0.13    0.29
   9   3  -5    0.52    0.27
  10   3   5    2.20    0.38
  10  -3  -5    2.93    0.46
  10  -3   5    2.96    0.41
  10   3  -5    3.09    0.42
   0   3   6    0.02    0.07
   0  -3   6    0.01    0.08
   0  -3  -6    0.06    0.05
   0   3  -6    0.10    0.07
   0  -3   6   -0.01    0.01
   1   3   6    3.59    0.18
   1  -3  -6    3.51    0.19
  -1  -3   6    4.04    0.19
  -1  -3   6    3.91    0.22
  -1   3   6    4.06    0.20
   1  -3   6    4.00    0.23
   2  -3  -6    0.21    0.08
   2   3   6    0.19    0.09
  -2  -3   6    0.26    0.07
  -2  -3   6    0.26    0.09
   2   3   6    0.27    0.07
   2  -3   6    0.12    0.08
   2  -3   6    0.12    0.05
   2   3  -6    0.09    0.09
  -2   3   6    0.27    0.09
  -2   3   6    0.18    0.07
  -3  -3   6  107.43    4.05
   3   3   6  109.96    4.06
   3   3   6  105.81    4.24
  -3   3   6  109.61    4.06
   3   3  -6  109.28    4.27
  -3   3   6  109.06    4.04
   3  -3   6  105.80    4.25
   4   3   6   19.43    0.78
   4   3   6   18.26    0.81
   4  -3  -6   18.21    0.82
   4  -3   6   18.69    0.78
   4   3  -6   18.05    0.84
  -4   3   6   20.29    0.80
  -4   3   6   18.40    0.74
   4  -3   6   19.71    0.83
   5   3   6    9.29    0.43
   5  -3  -6    7.53    0.46
   5   3   6    9.01    0.46
   5  -3   6    8.75    0.42
   5   3  -6    9.01    0.51
   5  -3   6    9.68    0.49
   6   3   6    1.11    0.17
   6   3   6    0.81    0.18
   6  -3  -6    0.65    0.20
  -6   3   6    0.10    0.11
   6   3  -6    0.78    0.21
   6  -3   6    0.61    0.19
   7  -3  -6    4.65    0.40
   7   3   6    4.67    0.40
  -7   3   6    4.81    0.37
   7  -3   6    5.04    0.42
   7   3  -6    4.84    0.40
   8   3   6    0.03    0.25
   8  -3  -6   -0.02    0.21
  -8   3   6    0.26    0.25
   8   3  -6    0.42    0.27
   8  -3   6    0.38    0.23
   9  -3  -6    0.89    0.29
   9   3   6    0.61    0.32
  -9   3   6    1.12    0.32
   9   3  -6    0.85    0.34
   9  -3   6    0.69    0.33
  10  -3  -6    1.16    0.34
  10   3   6    0.61    0.35
  10   3  -6    0.82    0.38
  10  -3   6    0.80    0.37
   0  -3  -7   47.28    1.79
   0   3   7   43.88    1.74
   1   3   7   19.77    0.80
  -1  -3   7   19.79    0.77
  -1  -3   7   19.93    0.81
   1  -3  -7   20.35    0.81
   1  -3   7   20.69    0.82
   1  -3   7   19.25    0.83
  -1   3   7   19.41    0.79
   2   3   7   54.51    2.08
   2   3   7   52.47    2.01
   2  -3  -7   51.37    2.09
  -2  -3   7   50.66    2.02
   2  -3   7   52.71    2.11
   2  -3   7   53.13    2.03
   2   3  -7   52.27    2.12
  -2   3   7   55.38    2.00
  -2   3   7   52.00    2.00
   3   3   7    3.10    0.22
  -3  -3   7    3.54    0.23
   3   3   7    3.46    0.23
   3  -3   7    3.31    0.24
  -3   3   7    3.57    0.20
   3  -3   7    3.70    0.24
   3   3  -7    4.21    0.28
  -3   3   7    3.06    0.24
   4  -3  -7    3.35    0.27
   4   3   7    3.92    0.26
  -4  -3   7    4.24    0.26
   4   3   7    3.75    0.26
  -4   3   7    4.26    0.29
   4  -3   7    3.92    0.27
  -4   3   7    3.79    0.22
   4   3  -7    4.85    0.30
   4  -3   7    3.89    0.27
   5  -3  -7   11.70    0.57
   5   3   7   11.06    0.51
   5   3   7   11.94    0.55
  -5   3   7    9.70    0.52
   5  -3   7   10.51    0.51
   5  -3   7   10.78    0.56
   5   3  -7   11.36    0.59
   6   3   7    0.08    0.17
   6   3   7    0.19    0.14
   6  -3  -7    0.06    0.18
  -6   3   7    0.24    0.17
   6  -3   7    0.18    0.17
   6   3  -7    0.26    0.21
   7  -3  -7    2.61    0.33
   7   3   7    2.73    0.29
   7   3  -7    2.34    0.33
  -7   3   7    2.81    0.31
   7  -3   7    2.84    0.33
   8  -3  -7    1.35    0.28
   8   3   7    1.45    0.31
  -8   3   7    1.90    0.29
   8   3  -7    2.31    0.36
   8  -3   7    2.05    0.34
   9   3   7    0.03    0.29
   9  -3  -7   -0.34    0.28
   9  -3   7    0.26    0.32
  -9   3   7   -0.05    0.28
   9   3  -7    0.18    0.31
  10   3   7    2.37    0.42
  10  -3  -7    2.07    0.43
  10  -3   7    2.42    0.43
  10   3  -7    2.36    0.39
   0  -3  -8   -0.03    0.06
   0   3  -8   -0.07    0.10
   0   3   8   -0.04    0.09
   0  -3   8   -0.12    0.05
  -1  -3   8   32.01    1.34
   1   3   8   36.39    1.36
  -1  -3   8   31.89    1.30
   1  -3  -8   37.24    1.37
   1  -3   8   35.16    1.39
   1  -3   8   33.95    1.35
  -1   3   8   31.99    1.31
  -1   3   8   32.69    1.32
   1   3  -8   34.76    1.39
   2   3   8    1.25    0.12
  -2  -3   8    1.11    0.15
   2  -3  -8    1.25    0.13
   2   3   8    1.08    0.13
  -2   3   8    0.97    0.13
  -2   3   8    0.97    0.12
   2  -3   8    0.76    0.15
   2  -3   8    1.17    0.16
   2   3  -8    1.09    0.16
   3   3   8    2.14    0.17
  -3  -3   8    2.37    0.19
   3   3   8    1.71    0.17
   3  -3  -8    2.01    0.18
   3  -3   8    2.15    0.20
   3   3  -8    2.02    0.21
  -3   3   8    2.25    0.17
   3  -3   8    2.06    0.19
  -3   3   8    2.35    0.20
   4   3   8   28.99    1.13
   4   3   8   28.23    1.17
   4  -3  -8   27.75    1.19
  -4  -3   8   27.51    1.14
  -4   3   8   27.92    1.10
   4   3  -8   28.67    1.21
   4  -3   8   28.37    1.20
   4  -3   8   27.94    1.15
  -4   3   8   27.81    1.14
   5   3   8    0.54    0.15
   5   3   8    0.39    0.16
   5  -3  -8    0.13    0.15
  -5   3   8    0.74    0.19
   5  -3   8    0.63    0.16
   5  -3   8    0.56    0.19
   5   3  -8    0.48    0.20
   6   3   8    0.59    0.19
   6   3   8    0.18    0.15
   6  -3  -8    0.31    0.19
   6   3  -8    0.32    0.22
  -6   3   8    0.25    0.20
   6  -3   8    0.17    0.20
   7  -3  -8    9.98    0.60
   7   3   8    9.98    0.58
  -7   3   8   10.95    0.58
   7   3  -8    9.89    0.59
   7  -3   8    9.02    0.57
   8  -3  -8   14.63    0.79
   8   3   8   14.20    0.77
   8   3  -8   13.19    0.77
   8  -3   8   15.43    0.80
  -8   3   8   13.09    0.71
   9   3   8    5.43    0.50
   9  -3  -8    5.25    0.49
   9  -3   8    5.80    0.53
   9   3  -8    5.42    0.52
  -9   3   8    5.01    0.44
  10  -3  -8    0.29    0.35
  10   3   8    0.10    0.33
  10  -3   8    0.72    0.33
  10   3  -8    0.31    0.31
   0  -3   9    1.73    0.19
   0   3   9    2.71    0.20
   0   3  -9    2.90    0.21
   0   3   9    1.59    0.15
   0  -3  -9    2.65    0.16
   1   3   9   33.63    1.31
   1  -3  -9   35.33    1.32
  -1  -3   9   28.18    1.25
  -1  -3   9   33.40    1.31
   1   3  -9   32.73    1.34
   1  -3   9   33.56    1.31
  -1   3   9   32.00    1.26
   1  -3   9   33.83    1.35
  -1   3   9   32.57    1.28
  -2  -3   9    5.62    0.32
   2  -3  -9    5.86    0.30
  -2  -3   9    4.21    0.28
   2   3   9    6.06    0.31
   2   3   9    5.56    0.29
   2   3  -9    5.62    0.32
   2  -3   9    5.54    0.32
  -2   3   9    5.44    0.29
  -2   3   9    6.02    0.30
   2  -3   9    5.57    0.32
   3   3   9    3.92    0.23
  -3  -3   9    3.66    0.25
   3   3   9    3.93    0.27
  -3  -3   9    3.50    0.26
   3  -3  -9    3.88    0.26
  -3   3   9    3.37    0.26
   3  -3   9    3.76    0.28
   3   3  -9    3.80    0.27
  -3   3   9    3.67    0.24
   3  -3   9    3.94    0.28
   4   3   9    1.06    0.17
   4  -3  -9    0.95    0.17
  -4  -3   9    0.80    0.17
   4   3   9    0.77    0.15
   4   3  -9    0.56    0.17
   4  -3   9    1.03    0.18
   4  -3   9    0.77    0.18
  -4   3   9    1.03    0.18
  -4   3   9    1.16    0.14
   5   3   9   10.27    0.52
   5   3   9   10.36    0.51
   5  -3  -9   11.19    0.55
  -5  -3   9   10.34    0.54
   5  -3   9    9.47    0.51
   5  -3   9    9.34    0.53
  -5   3   9   10.44    0.53
   5   3  -9   11.14    0.58
   6  -3  -9    5.72    0.41
   6   3   9    5.69    0.36
   6   3   9    5.24    0.38
   6  -3   9    4.93    0.42
  -6   3   9    5.63    0.38
   6   3  -9    5.40    0.41
   7   3   9    1.79    0.25
   7  -3  -9    2.08    0.31
   7   3   9    1.58    0.28
  -7   3   9    2.06    0.30
   7  -3   9    1.86    0.29
   7   3  -9    1.60    0.32
   8   3   9    1.26    0.30
   8  -3  -9    1.74    0.32
   8   3  -9    1.83    0.35
   8  -3   9    1.70    0.31
  -8   3   9    1.64    0.28
   9  -3  -9    0.45    0.31
   9   3   9    0.17    0.29
  -9   3   9    0.37    0.30
   9  -3   9   -0.02    0.32
   9   3  -9    0.55    0.29
  10  -3  -9   -0.06    0.34
  10   3   9    0.04    0.29
  10  -3   9    0.26    0.37
  10   3  -9    0.11    0.31
   0  -3 -10    0.15    0.08
   0   3 -10   -0.07    0.11
   0   3  10   -0.18    0.09
   0   3  10   -0.02    0.09
   0  -3  10   -0.06    0.06
   0  -3  10    0.04    0.10
   1   3  10   10.17    0.47
  -1  -3  10   11.93    0.53
   1   3  10   10.24    0.48
  -1  -3  10   10.60    0.46
   1  -3 -10   11.03    0.48
  -1   3  10   11.01    0.49
   1   3 -10   10.97    0.51
  -1   3  10   10.94    0.47
   1  -3  10   11.41    0.52
   1  -3  10   10.83    0.53
  -2  -3  10   14.75    0.65
  -2  -3  10   16.66    0.69
   2   3  10   15.77    0.67
   2   3  10   16.00    0.68
   2  -3  10   16.10    0.71
  -2   3  10   15.45    0.66
  -2   3  10   15.80    0.67
   2  -3  10   16.10    0.70
   2   3 -10   15.00    0.70
   3   3  10    0.64    0.15
  -3  -3  10    0.35    0.13
   3   3  10    0.75    0.13
  -3  -3  10    0.57    0.15
   3  -3 -10    0.63    0.15
   3  -3  10    0.65    0.16
  -3   3  10    0.56    0.13
   3   3 -10    0.39    0.14
  -3   3  10    0.27    0.14
   3  -3  10    0.45    0.15
   4   3  10   14.71    0.65
   4  -3 -10   14.41    0.68
  -4  -3  10   13.48    0.64
   4   3  10   14.38    0.65
   4   3 -10   14.82    0.70
   4  -3  10   14.06    0.68
   4  -3  10   13.70    0.66
  -4   3  10   14.54    0.62
  -4   3  10   14.05    0.64
   5  -3 -10    0.32    0.17
   5   3  10    0.12    0.16
  -5  -3  10    0.18    0.19
   5   3  10    0.00    0.15
  -5   3  10    0.24    0.19
   5  -3  10    0.04    0.19
   5   3 -10    0.16    0.17
   5  -3  10    0.15    0.15
   6  -3 -10   18.29    0.86
   6   3  10   18.59    0.80
   6   3  10   17.09    0.84
   6   3 -10   17.21    0.88
   6  -3  10   17.04    0.85
  -6   3  10   17.91    0.82
   6  -3  10   17.71    0.82
   7   3  10    1.39    0.28
   7   3  10    1.48    0.25
   7  -3 -10    1.43    0.25
   7  -3  10    1.16    0.29
  -7   3  10    1.33    0.25
   7   3 -10    1.73    0.32
   8   3  10    5.74    0.49
   8  -3 -10    5.54    0.48
  -8   3  10    5.44    0.46
   8   3 -10    4.70    0.48
   8  -3  10    6.00    0.50
   9  -3 -10    0.04    0.28
   9   3  10    0.05    0.29
  -9   3  10   -0.19    0.29
   9  -3  10    0.30    0.33
   9   3 -10    0.08    0.32
  10  -3 -10    6.42    0.60
  10   3  10    6.16    0.58
   0   3  11    6.98    0.36
   0   3 -11    6.98    0.37
   0   3  11    6.72    0.33
   0  -3  11    6.75    0.39
   0  -3  11    6.09    0.30
   0  -3 -11    6.88    0.32
   1  -3 -11   47.58    1.85
   1   3  11   47.44    1.84
  -1  -3  11   41.85    1.76
   1   3  11   44.21    1.80
  -1  -3  11   47.65    1.83
   1  -3  11   49.64    1.88
  -1   3  11   45.42    1.80
  -1   3  11   47.72    1.77
   1   3 -11   44.90    1.88
   1  -3  11   47.03    1.83
   2   3  11    3.29    0.23
   2   3  11    2.69    0.24
  -2  -3  11    3.24    0.26
  -2  -3  11    3.76    0.24
   2   3 -11    3.62    0.28
  -2   3  11    3.17    0.24
  -2   3  11    3.11    0.26
   2  -3  11    3.18    0.28
   2  -3  11    3.87    0.27
   3   3  11   27.82    1.16
   3  -3 -11   28.81    1.19
   3   3  11   28.06    1.15
  -3  -3  11   28.80    1.16
  -3  -3  11   26.89    1.13
   3   3 -11   27.06    1.21
   3  -3  11   28.36    1.20
   3  -3  11   28.34    1.18
  -3   3  11   29.33    1.13
  -3   3  11   27.67    1.14
   4   3  11   18.98    0.82
  -4  -3  11   17.31    0.80
   4  -3 -11   18.76    0.84
   4   3  11   18.42    0.80
  -4   3  11   18.06    0.81
  -4   3  11   19.39    0.78
   4  -3  11   17.68    0.83
   4   3 -11   19.01    0.87
   4  -3  11   18.94    0.85
   5   3  11    3.23    0.28
   5  -3 -11    2.97    0.29
  -5  -3  11    2.74    0.29
   5   3  11    2.76    0.26
   5  -3  11    3.11    0.30
   5  -3  11    2.63    0.29
   5   3 -11    2.40    0.30
  -5   3  11    3.19    0.29
   6   3  11    0.79    0.21
   6   3  11    0.90    0.21
   6  -3 -11    0.70    0.22
   6  -3  11    0.58    0.26
   6   3 -11    0.65    0.26
  -6   3  11    0.63    0.23
   6  -3  11    0.92    0.21
   7   3  11    2.22    0.28
   7  -3 -11    1.73    0.30
   7   3  11    2.02    0.30
   7  -3  11    2.17    0.34
   7   3 -11    2.21    0.35
  -7   3  11    2.22    0.31
   8   3  11    0.50    0.27
   8  -3 -11    0.34    0.28
  -8   3  11    0.35    0.25
   8   3 -11    0.66    0.28
   8  -3  11    0.30    0.30
   9   3  11    1.86    0.37
   9  -3 -11    1.14    0.35
  -9   3  11    2.39    0.35
   9  -3  11    2.07    0.41
  10   3  11    0.61    0.37
  10  -3 -11    0.21    0.36
 -10   3  11    0.54    0.37
   0  -3  12    0.06    0.08
   0  -3 -12    0.11    0.09
   0   3 -12    0.04    0.14
   0   3  12    0.19    0.11
   0   3  12    0.13    0.12
  -1  -3  12    9.45    0.47
   1   3 -12    9.17    0.47
  -1   3  12    9.15    0.46
   1  -3  12    8.42    0.48
  -1   3  12    9.36    0.43
   1  -3  12    8.79    0.47
  -2  -3  12    5.21    0.30
   2  -3 -12    5.72    0.32
   2   3  12    5.46    0.30
  -2  -3  12    5.45    0.36
  -2   3  12    4.58    0.32
  -2   3  12    5.01    0.31
   2   3 -12    5.55    0.35
   2  -3  12    5.37    0.35
   2  -3  12    5.66    0.35
  -3  -3  12   12.62    0.58
   3  -3 -12    9.68    0.56
   3   3  12   11.48    0.55
   3   3  12   11.71    0.57
  -3  -3  12   12.95    0.55
   3  -3  12   12.35    0.59
   3  -3  12   11.54    0.58
   3   3 -12   11.58    0.58
  -3   3  12   11.19    0.55
  -3   3  12   12.59    0.56
  -4  -3  12   13.85    0.69
   4  -3 -12   16.69    0.73
   4   3  12   16.34    0.70
  -4  -3  12   15.11    0.69
   4   3  12   15.65    0.70
  -4   3  12   14.60    0.67
   4  -3  12   15.46    0.73
   4  -3  12   13.44    0.71
  -4   3  12   15.02    0.69
   4   3 -12   15.21    0.75
   5  -3 -12    0.45    0.21
   5   3  12    0.49    0.18
  -5  -3  12    0.30    0.20
   5   3  12    0.27    0.18
   5  -3  12    0.20    0.21
   5   3 -12    0.11    0.22
  -5   3  12    0.31    0.18
   5  -3  12    0.36    0.19
   6   3  12    2.45    0.29
   6   3  12    3.01    0.30
   6  -3 -12    2.66    0.32
   6   3 -12    2.46    0.31
  -6   3  12    3.07    0.32
   6  -3  12    3.02    0.34
   6  -3  12    2.83    0.32
   7  -3 -12    4.03    0.41
   7   3  12    3.71    0.35
   7   3  12    4.01    0.40
   7  -3  12    4.95    0.44
   7   3 -12    4.22    0.43
  -7   3  12    3.74    0.39
   8   3  12    3.57    0.40
   8  -3 -12    3.76    0.41
  -8   3  12    3.13    0.36
   8  -3  12    3.29    0.39
   8   3 -12    3.12    0.43
   9  -3 -12    2.90    0.41
  -9   3  12    2.29    0.39
   9  -3  12    2.61    0.44
   9   3 -12    2.24    0.42
 -10   3  12    1.08    0.39
   0   3  13    2.87    0.22
   0   3  13    2.65    0.24
   0   3 -13    2.66    0.24
   1   3  13   11.98    0.50
  -1  -3  13   11.57    0.58
   1   3 -13   10.32    0.55
  -1   3  13   11.16    0.54
  -1   3  13   12.01    0.51
   1  -3  13   10.57    0.55
  -2  -3  13   36.16    1.42
  -2  -3  13   37.40    1.48
   2  -3  13   34.64    1.51
  -2   3  13   36.83    1.46
  -2   3  13   36.22    1.44
   2  -3  13   36.23    1.50
   2   3 -13   37.45    1.53
   3   3  13    9.36    0.50
  -3  -3  13   10.65    0.53
  -3  -3  13    9.55    0.49
   3   3 -13    9.82    0.54
  -3   3  13    9.90    0.50
   3  -3  13    9.42    0.52
  -3   3  13    9.73    0.50
   3  -3  13   10.34    0.56
  -4  -3  13    0.61    0.20
   4   3  13    0.94    0.21
  -4  -3  13    0.73    0.19
   4  -3  13    0.96    0.23
   4  -3  13    0.91    0.22
  -4   3  13    0.72    0.18
  -4   3  13    0.52    0.19
   4   3 -13    1.28    0.24
   5   3  13    1.03    0.23
   5  -3 -13    0.95    0.26
  -5  -3  13    1.04    0.23
   5  -3  13    1.01    0.25
  -5   3  13    1.00    0.24
   5  -3  13    0.90    0.22
   5   3 -13    1.16    0.26
   6   3  13    0.31    0.21
  -6   3  13    0.35    0.23
   6  -3  13    0.22    0.23
   6   3 -13    0.31    0.26
   6  -3  13    0.37    0.26
   7   3  13    1.15    0.27
  -7   3  13    1.50    0.30
   7   3 -13    1.39    0.32
   7  -3  13    0.98    0.27
   8  -3  13    0.68    0.34
  -8   3  13    0.85    0.28
   8   3 -13    0.39    0.31
  -9   3  13    0.04    0.32
   9  -3  13    0.94    0.38
   9   3 -13    0.13    0.29
   0  -3  14   -0.06    0.12
   0   3  14    0.13    0.13
   0   3 -14   -0.22    0.16
   0   3  14   -0.06    0.14
  -1   3 -14   14.32    0.67
  -1  -3  14   14.37    0.67
   1   3  14   13.37    0.65
  -1   3  14   14.16    0.64
   1   3 -14   15.59    0.68
   1  -3  14   11.45    0.67
  -1   3  14   13.90    0.61
  -2  -3  14    1.45    0.24
   2   3  14    1.53    0.23
   2   3 -14    1.44    0.23
  -2   3  14    1.46    0.22
  -2   3  14    1.49    0.20
   2  -3  14    1.67    0.24
   2  -3  14    2.03    0.23
   3   3  14    6.37    0.42
  -3  -3  14    6.13    0.38
  -3  -3  14    6.57    0.42
  -3   3  14    5.68    0.38
   3  -3  14    5.61    0.40
   3  -3  14    6.68    0.45
  -3   3  14    5.93    0.38
   3   3 -14    6.33    0.42
  -4  -3  14    0.37    0.20
   4   3  14    0.70    0.20
  -4  -3  14    0.66    0.20
   4  -3  14    0.68    0.23
  -4   3  14    0.44    0.19
   4   3 -14    0.37    0.22
  -4   3  14    0.82    0.21
   4  -3  14    0.63    0.22
  -5  -3  14   20.44    0.88
   5   3  14   18.63    0.87
   5   3 -14   18.15    0.92
  -5   3  14   18.58    0.87
   5  -3  14   18.82    0.91
   5  -3  14   19.48    0.92
   6   3  14    5.74    0.46
  -6   3  14    5.99    0.46
   6   3 -14    6.61    0.51
   6  -3  14    5.97    0.48
   6  -3  14    5.53    0.49
   7   3  14    2.02    0.32
  -7   3  14    2.40    0.34
   7  -3  14    2.28    0.36
   7   3 -14    2.42    0.37
   8  -3  14    0.17    0.27
  -8   3  14    0.15    0.29
   8   3 -14    0.12    0.31
   9   3 -14    2.65    0.43
  -9   3  14    2.38    0.37
   9  -3  14    3.62    0.48
   0   3  15   11.60    0.58
   0   3 -15   11.23    0.57
   0  -3  15   10.75    0.58
  -1  -3  15    0.26    0.20
  -1   3 -15    0.50    0.19
   1   3  15    0.05    0.18
  -1   3  15    0.48    0.16
  -1   3  15    0.18    0.18
   1  -3  15    0.06    0.18
   1   3 -15    0.39    0.19
  -2  -3  15   30.54    1.31
   2   3  15   31.14    1.31
  -2   3  15   33.02    1.30
   2  -3  15   28.95    1.33
   2   3 -15   32.05    1.34
  -2   3  15   30.82    1.26
   2  -3  15   31.92    1.34
   3   3  15    4.91    0.41
  -3  -3  15    5.95    0.42
   3  -3  15    5.45    0.45
   3   3 -15    5.97    0.41
  -3   3  15    5.03    0.40
  -3   3  15    5.95    0.38
   3  -3  15    5.03    0.39
   4   3  15    0.10    0.22
  -4  -3  15    0.41    0.21
  -4  -3  15    0.17    0.18
   4  -3  15    0.26    0.21
   4  -3  15    0.26    0.23
  -4   3  15    0.32    0.20
   4   3 -15    0.05    0.21
  -4   3  15    0.01    0.17
   5   3  15    9.27    0.57
  -5  -3  15    9.84    0.57
   5  -3  15    9.79    0.60
   5   3 -15    8.73    0.58
   5  -3  15    9.90    0.58
  -5   3  15    8.94    0.54
   6   3  15    0.67    0.26
  -6   3  15    0.60    0.26
   6   3 -15    0.51    0.28
   6  -3  15    0.60    0.26
   6  -3  15    0.75    0.28
   7   3  15   -0.25    0.25
   7   3 -15    0.31    0.29
  -7   3  15    0.26    0.23
   7  -3  15    0.08    0.30
   8  -3  15    1.24    0.37
   8   3 -15    0.64    0.34
  -8   3  15    1.32    0.34
  -9   3  15    0.70    0.35
   0   3  16    0.08    0.17
   0  -3  16   -0.02    0.20
   0   3 -16    0.14    0.19
  -1  -3  16    8.11    0.52
  -1   3 -16    8.29    0.49
   1   3  16    8.21    0.51
   1   3 -16    8.69    0.49
   1  -3  16    8.67    0.54
  -1   3  16    8.40    0.50
  -2  -3  16    0.06    0.21
   2   3  16    0.22    0.21
  -2   3  16    0.18    0.20
   2   3 -16    0.11    0.20
  -2   3  16    0.21    0.17
   2  -3  16   -0.12    0.20
   2  -3  16    0.26    0.23
   3   3  16    1.46    0.28
  -3  -3  16    1.75    0.27
   3   3 -16    2.05    0.28
   3  -3  16    1.91    0.31
   3  -3  16    1.89    0.26
  -3   3  16    1.59    0.26
  -3   3  16    1.56    0.25
   4   3  16    4.81    0.41
  -4  -3  16    4.14    0.37
   4  -3  16    4.03    0.41
  -4   3  16    4.86    0.37
  -4   3  16    4.38    0.36
   4   3 -16    4.82    0.42
   4  -3  16    4.19    0.37
   5   3  16    9.21    0.59
   5   3 -16    9.64    0.59
   5  -3  16    9.26    0.61
  -5   3  16    8.74    0.54
   5  -3  16    9.20    0.58
   6   3  16    0.32    0.26
   6  -3  16    0.09    0.27
  -6   3  16    0.11    0.25
   6  -3  16    0.09    0.26
   6   3 -16    0.36    0.28
   7   3  16    6.60    0.52
   7  -3  16    6.61    0.56
  -7   3  16    5.56    0.48
   7   3 -16    5.94    0.53
   8  -3  16    0.74    0.35
  -8   3  16    0.26    0.32
   8   3 -16    0.26    0.32
   0   3 -17    3.47    0.33
   0   3  17    2.70    0.32
   0  -3  17    3.79    0.36
  -1   3 -17    8.01    0.49
   1   3  17    7.65    0.51
  -1  -3  17    7.68    0.53
   1   3 -17    7.63    0.51
  -1   3  17    7.74    0.51
   1  -3  17    8.73    0.55
  -2  -3  17    6.69    0.49
   2   3  17    6.90    0.49
  -2   3 -17    6.63    0.49
   2   3 -17    8.05    0.48
   2  -3  17    6.85    0.49
   2  -3  17    7.42    0.48
  -2   3  17    6.57    0.47
   3   3  17    2.07    0.32
  -3  -3  17    2.02    0.30
   3  -3  17    3.11    0.31
   3  -3  17    2.83    0.35
  -3   3  17    3.10    0.30
  -3   3  17    2.32    0.31
   3   3 -17    2.36    0.31
  -4  -3  17    1.09    0.28
   4   3  17    1.09    0.28
   4  -3  17    1.23    0.27
   4   3 -17    0.80    0.26
  -4   3  17    0.67    0.23
   4  -3  17    1.21    0.31
   5   3  17    1.54    0.31
   5  -3  17    1.26    0.30
  -5   3  17    1.56    0.30
   5  -3  17    1.69    0.33
   5   3 -17    1.70    0.31
   6   3  17    0.00    0.27
  -6   3  17   -0.10    0.25
   6  -3  17    0.07    0.28
   6  -3  17    0.31    0.29
   6   3 -17    0.35    0.29
   7   3  17    0.64    0.32
  -7   3  17    0.53    0.29
   7   3 -17    1.25    0.34
  -8   3  17   -0.56    0.31
   0  -3  18   -0.23    0.19
   0   3  18    0.10    0.24
   1   3  18    2.11    0.31
  -1  -3  18    1.86    0.32
  -1   3  18    2.72    0.32
   1  -3  18    2.24    0.31
   2   3  18    1.48    0.26
  -2  -3  18    1.82    0.28
   2  -3  18    1.16    0.28
  -2   3  18    1.90    0.30
  -3  -3  18    0.61    0.26
   3   3  18    0.03    0.26
  -3   3  18    0.82    0.27
   3  -3  18    0.18    0.27
  -4  -3  18    6.68    0.52
   4   3  18    7.93    0.53
   4  -3  18    7.99    0.60
   5   3  18    3.92    0.43
   5  -3  18    3.77    0.44
  -5   3  18    3.53    0.37
   6   3  18    0.74    0.32
  -6   3  18    0.82    0.29
   6  -3  18    1.26    0.35
   7   3  18    2.48    0.41
  -7   3  18    2.51    0.37
   0   3  19   10.27    0.62
   0  -3  19   11.93    0.68
   1   3  19    4.27    0.40
  -1  -3  19    5.19    0.46
  -1   3  19    4.94    0.43
   1  -3  19    5.40    0.47
   2   3  19    0.90    0.29
  -2  -3  19    0.69    0.28
  -2   3  19    0.63    0.26
   2  -3  19    1.05    0.28
   3   3  19    8.86    0.57
  -3  -3  19    8.33    0.58
   3  -3  19    9.39    0.65
  -3   3  19    8.41    0.56
   4   3  19    1.24    0.32
  -4  -3  19    0.97    0.29
   4  -3  19    1.03    0.33
   5   3  19    3.21    0.43
   5  -3  19    4.29    0.48
   6   3  19    0.07    0.31
   6  -3  19    0.50    0.33
   7   3  19    2.70    0.43
  -7   3  19    1.89    0.39
   0   3  20   -0.07    0.27
   0  -3  20   -0.05    0.27
   1   3  20    5.50    0.48
  -1  -3  20    5.02    0.44
   1  -3  20    5.32    0.48
  -1   3  20    5.07    0.45
  -2  -3  20    2.78    0.35
   2   3  20    3.47    0.38
  -2   3  20    3.08    0.38
   2  -3  20    3.21    0.39
   3   3  20    2.95    0.41
  -3  -3  20    2.61    0.36
   3  -3  20    3.24    0.43
  -3   3  20    3.43    0.38
   4   3  20    2.97    0.38
  -4  -3  20    2.77    0.38
   4  -3  20    3.25    0.42
   5   3  20    0.19    0.31
   5  -3  20    0.11    0.33
   6   3  20    0.83    0.37
   6  -3  20    1.87    0.42
   0  -3  21    4.90    0.45
   0   3  21    4.89    0.47
   1   3  21    6.40    0.54
  -1  -3  21    6.57    0.54
  -1   3  21    7.08    0.57
   1  -3  21    7.54    0.60
   2   3  21    0.89    0.34
  -2  -3  21    1.40    0.34
  -2   3  21    0.99    0.32
   2  -3  21    1.22    0.32
  -3  -3  21    5.52    0.48
   3   3  21    5.31    0.49
  -3   3  21    5.53    0.48
   3  -3  21    6.13    0.56
  -4  -3  21    0.76    0.31
   4   3  21   -0.28    0.32
   4  -3  21    0.27    0.34
   5   3  21    0.78    0.35
   5  -3  21    0.34    0.36
   0  -3  22   -0.33    0.30
   0   3  22    0.23    0.33
  -1  -3  22    0.92    0.33
   1   3  22    0.58    0.29
  -1   3  22    0.44    0.28
   1  -3  22    0.64    0.35
  -2  -3  22    0.00    0.31
   2   3  22   -0.19    0.31
   2  -3  22    0.18    0.32
  -2   3  22    0.04    0.29
  -3  -3  22    1.06    0.33
   3   3  22    1.15    0.38
   3  -3  22    1.69    0.40
  -3   3  22    1.40    0.36
   4   3  22    8.48    0.65
  -4  -3  22    8.69    0.64
   4  -3  22    8.52    0.72
   0   3  23    1.20    0.38
   0  -3  23    0.86    0.36
  -1  -3  23    1.45    0.35
   1   3  23    1.89    0.40
   1  -3  23    1.88    0.41
  -1   3  23    1.92    0.39
   2   3  23    4.53    0.48
  -2  -3  23    4.34    0.49
  -2   3  23    4.93    0.50
   2  -3  23    4.89    0.54
   3   3  23    0.17    0.36
  -3  -3  23   -0.22    0.31
   3  -3  23    0.23    0.36
  -3   3  23    0.01    0.31
   0  -3  24    0.25    0.36
   0   3  24   -0.28    0.34
  -1  -3  24    2.24    0.43
   1   3  24    1.48    0.42
  -1   3  24    1.92    0.42
   1  -3  24    1.08    0.41
   2   3  24    1.30    0.41
  -2  -3  24    0.94    0.38
   2  -3  24    1.28    0.41
  -2   3  24    0.92    0.37
   0  -4   0    8.15    0.35
   1   4   0    0.29    0.06
   1  -4   0    0.63    0.07
  -1   4   0    0.34    0.06
   2   4   0   22.16    0.95
  -2   4   0   23.61    0.90
   2  -4   0   22.57    0.94
   2   4   0   24.78    0.90
   3   4   0    0.10    0.07
   3   4   0    0.27    0.10
  -3   4   0    0.04    0.07
   3  -4   0    0.09    0.06
   4   4   0   38.03    1.58
  -4   4   0   38.25    1.50
   4  -4   0   39.92    1.58
   5   4   0    0.29    0.12
   5   4   0    0.25    0.14
   5  -4   0    0.77    0.17
  -5   4   0    0.50    0.14
  -6   4   0    1.73    0.21
   6   4   0    2.11    0.18
   6  -4   0    1.88    0.25
   6   4   0    2.02    0.23
   7  -4   0    1.20    0.23
  -7   4   0    1.19    0.22
   7   4   0    1.64    0.24
   8   4   0    0.35    0.23
  -8   4   0    0.24    0.23
   8  -4   0    0.55    0.26
   9  -4   0   -0.51    0.28
   9   4   0    0.06    0.24
  10   4   0    0.65    0.35
  10  -4   0    0.75    0.36
   0   4   1   -0.01    0.04
   0  -4  -1    0.09    0.04
   0  -4   1    0.05    0.05
   1   4   1  113.43    4.44
   1  -4  -1  111.82    4.44
   1  -4   1  114.69    4.45
   1   4  -1  118.72    4.45
  -1   4   1  110.88    4.23
  -2   4  -1    4.87    0.22
   2   4   1    4.96    0.25
   2   4   1    5.22    0.23
   2  -4  -1    4.21    0.23
   2  -4   1    5.72    0.25
  -2   4   1    5.03    0.23
   2   4  -1    4.89    0.26
   3   4   1    3.08    0.19
   3   4   1    2.03    0.15
  -3   4  -1    2.71    0.17
   3   4  -1    2.93    0.19
  -3   4   1    3.00    0.18
   3  -4   1    2.11    0.16
   4   4   1    0.49    0.13
  -4   4  -1    1.01    0.13
   4  -4  -1    0.84    0.13
   4  -4   1    0.70    0.13
   4   4  -1    0.95    0.16
  -4   4   1    0.92    0.14
   5   4   1   77.56    2.82
  -5   4  -1   78.54    2.84
   5  -4  -1   72.49    2.99
   5   4   1   76.07    2.99
   5   4  -1   71.70    2.82
   5   4  -1   73.79    3.00
  -5   4   1   74.85    2.84
   5  -4   1   72.46    2.99
  -6   4  -1   -0.06    0.14
   6   4   1    0.10    0.12
   6  -4  -1    0.08    0.15
   6   4   1    0.13    0.17
   6   4  -1    0.07    0.14
   6   4  -1    0.31    0.12
  -6   4   1    0.03    0.16
   6  -4   1    0.09    0.17
  -7   4  -1    6.40    0.42
   7   4   1    7.10    0.47
   7  -4  -1    7.20    0.48
   7   4  -1    7.26    0.48
  -7   4   1    7.35    0.44
   7  -4   1    6.81    0.45
   8  -4  -1    7.26    0.53
   8   4   1    8.33    0.53
   8  -4   1    7.54    0.56
   8   4  -1    8.69    0.57
  -8   4   1    8.62    0.52
   9  -4  -1    5.52    0.51
   9   4   1    6.16    0.53
   9  -4   1    5.52    0.49
   9   4  -1    4.46    0.45
  10  -4  -1   -0.28    0.33
  10   4   1    0.37    0.34
  10   4  -1   -0.12    0.31
  10  -4   1   -0.29    0.32
   0  -4   2   22.64    0.91
   0   4   2   22.13    0.89
   0   4   2   22.89    0.87
   1   4   2  219.82    8.37
   1  -4  -2  206.66    8.35
   1  -4   2  213.51    8.36
   1   4  -2  220.58    8.36
  -2   4  -2   46.12    1.73
   2  -4  -2   45.79    1.82
   2   4   2   46.19    1.75
   2   4   2   44.39    1.82
   2   4  -2   47.06    1.84
   2  -4   2   45.08    1.73
  -2   4   2   48.55    1.75
   3   4   2    5.68    0.29
  -3   4  -2    5.81    0.27
   3   4  -2    5.67    0.31
  -3   4   2    5.89    0.29
   3  -4   2    5.57    0.30
   4  -4  -2    4.88    0.30
   4   4   2    4.78    0.29
  -4   4  -2    5.27    0.27
   4   4   2    4.82    0.26
  -4   4   2    5.08    0.30
   4   4  -2    4.96    0.30
   4  -4   2    5.53    0.30
   5  -4  -2    6.88    0.41
  -5   4  -2    8.08    0.38
   5   4   2    8.13    0.38
   5   4   2    7.97    0.43
   5   4  -2    7.51    0.37
  -5   4   2    7.32    0.41
   5   4  -2    8.12    0.45
   5  -4   2    8.15    0.42
   6   4   2    3.35    0.23
   6  -4  -2    2.69    0.27
   6   4   2    2.72    0.26
  -6   4  -2    3.33    0.26
  -6   4   2    2.95    0.26
   6   4  -2    3.43    0.22
   7  -4  -2    0.65    0.20
   7   4   2    0.27    0.21
   7   4  -2    0.76    0.21
   7  -4   2    1.06    0.23
  -7   4   2    0.69    0.21
   8   4   2    0.45    0.23
   8  -4  -2    0.79    0.27
   8   4  -2    0.96    0.25
  -8   4   2    0.36    0.20
   8  -4   2    0.77    0.25
   9   4   2    1.02    0.29
   9  -4  -2    0.77    0.28
   9   4  -2    0.74    0.28
   9  -4   2    0.36    0.27
  10   4   2    3.26    0.45
  10  -4  -2    3.42    0.48
  10  -4   2    3.49    0.44
  10   4  -2    3.52    0.47
   0   4   3    0.17    0.06
   1   4   3  188.34    7.34
   1  -4  -3  193.23    7.33
  -1   4   3  184.18    7.01
   1  -4   3  190.87    7.03
  -2   4  -3   11.87    0.47
   2  -4  -3   12.15    0.50
   2   4   3   11.47    0.49
   2  -4   3   11.61    0.48
   3   4   3   60.64    2.38
  -3   4  -3   60.30    2.25
  -3   4   3   59.89    2.28
   3  -4   3   59.62    2.26
   4   4   3    2.88    0.21
  -4   4  -3    2.92    0.19
   4   4   3    2.66    0.19
   4  -4  -3    2.75    0.22
   4  -4   3    3.00    0.17
  -4   4   3    3.10    0.22
   5   4   3   90.67    3.36
   5   4   3   85.95    3.54
   5  -4  -3   83.69    3.55
  -5   4  -3   90.45    3.35
  -5   4   3   91.86    3.38
   5  -4   3   92.36    3.35
  -6   4  -3    0.56    0.16
   6   4   3    0.54    0.14
   6  -4  -3    0.46    0.17
   6   4   3    0.42    0.18
  -6   4   3    0.41    0.16
   6   4  -3    0.76    0.13
   7   4   3    0.71    0.22
   7  -4  -3    0.47    0.23
   7   4  -3    0.85    0.24
   7  -4   3    0.76    0.21
  -7   4   3    0.51    0.21
   8  -4  -3   23.29    1.14
   8   4   3   25.14    1.13
   8   4  -3   25.54    1.14
  -8   4   3   22.12    1.05
   8  -4   3   23.47    1.12
   9  -4  -3    2.21    0.38
   9   4   3    2.79    0.38
   9   4  -3    1.66    0.36
  -9   4   3    1.92    0.34
   9  -4   3    1.93    0.37
  10  -4  -3    7.65    0.64
  10   4   3    6.64    0.56
  10   4  -3    6.98    0.58
  10  -4   3    7.39    0.64
   0  -4   4    9.48    0.42
   0   4   4   10.75    0.39
   0  -4   4    7.77    0.39
   1  -4  -4  205.46    8.25
   1  -4   4  220.48    7.90
  -1   4   4  211.00    7.87
   2   4   4   21.33    0.86
   2  -4  -4   21.19    0.86
  -2   4   4   20.77    0.81
   2  -4   4   21.82    0.84
   3   4   4    0.72    0.10
  -3   4  -4    0.62    0.08
   3   4   4    0.67    0.10
   3  -4   4    0.66    0.09
   3   4  -4    0.32    0.08
   3  -4   4    0.62    0.11
   4   4   4    6.99    0.31
   4  -4  -4    4.80    0.32
  -4   4  -4    6.15    0.29
   4   4   4    5.60    0.31
  -4   4   4    5.74    0.33
   4  -4   4    5.54    0.33
   4  -4   4    7.10    0.30
   5   4   4   39.40    1.51
  -5   4  -4   37.98    1.50
   5   4   4   38.59    1.60
   5  -4  -4   36.79    1.60
   5  -4   4   39.64    1.50
  -5   4   4   40.66    1.54
   6  -4  -4    0.74    0.18
   6   4   4    0.99    0.16
   6   4   4    0.60    0.19
  -6   4   4    0.92    0.20
   6   4  -4    1.23    0.16
   7   4   4    9.56    0.56
   7  -4  -4    9.08    0.57
  -7   4   4    9.16    0.53
   7   4  -4   10.22    0.57
   7  -4   4    9.25    0.57
   8   4   4    0.85    0.25
   8  -4  -4    0.71    0.25
  -8   4   4    0.59    0.23
   8   4  -4    0.69    0.28
   8  -4   4    0.72    0.27
   9   4   4    0.39    0.28
   9  -4  -4   -0.15    0.28
   9   4  -4    0.16    0.25
  -9   4   4    0.44    0.29
   9  -4   4    0.51    0.31
  10  -4  -4    0.17    0.34
  10   4   4    0.32    0.33
  10  -4   4    0.89    0.37
  10   4  -4    0.28    0.30
   0  -4   5    0.55    0.10
   0   4   5    1.09    0.09
  -1  -4   5   96.45    3.86
   1   4   5  103.98    4.00
   1  -4  -5  101.53    4.00
  -1   4   5  106.91    3.84
   1  -4   5  104.94    4.03
   2  -4  -5    2.90    0.15
   2   4   5    1.91    0.16
   2   4   5    1.87    0.13
   2   4  -5    2.08    0.19
  -2   4   5    2.26    0.13
   2  -4   5    2.18    0.17
  -2   4   5    2.08    0.15
   2  -4   5    2.03    0.16
   3   4   5   10.77    0.48
  -3   4  -5   10.74    0.44
   3   4   5   11.31    0.49
  -3   4   5   11.91    0.45
  -3   4   5   10.27    0.49
   3   4  -5   11.64    0.54
   3  -4   5   11.66    0.52
   4   4   5  133.47    5.20
   4  -4  -5  125.66    5.20
   4   4   5  134.67    4.96
   4   4  -5  133.40    5.23
   4  -4   5  135.21    5.21
   5  -4  -5    1.36    0.20
   5   4   5    1.89    0.18
   5   4   5    1.96    0.21
   5  -4   5    1.71    0.20
   5   4  -5    1.75    0.24
   6   4   5    0.61    0.14
   6  -4  -5    0.40    0.19
   6   4   5    0.67    0.19
  -6   4   5    0.29    0.15
   6   4  -5    0.51    0.20
   6  -4   5    0.19    0.14
   7   4   5    0.04    0.20
   7  -4  -5    0.00    0.21
  -7   4   5    0.39    0.22
   7  -4   5    1.20    0.23
   7   4  -5    0.28    0.23
   8   4   5   28.72    1.32
   8  -4  -5   28.97    1.36
   8   4  -5   29.15    1.35
  -8   4   5   29.72    1.27
   8  -4   5   30.83    1.36
   9   4   5    0.64    0.27
   9  -4  -5    0.39    0.31
  -9   4   5    0.31    0.29
   9  -4   5    0.77    0.28
   9   4  -5    0.78    0.29
  10   4   5   -0.40    0.30
  10  -4  -5   -0.07    0.32
  10   4  -5   -0.14    0.28
  10  -4   5    0.61    0.35
   0  -4   6   19.26    0.83
   0  -4  -6   21.99    0.79
   0   4   6   18.23    0.78
  -1  -4   6  103.30    3.99
   1   4   6  109.36    4.13
   1  -4  -6  105.49    4.13
   1  -4   6  108.76    4.17
  -1   4   6  103.70    3.97
   2   4   6    1.26    0.11
   2   4   6    1.06    0.12
   2  -4  -6    1.13    0.11
   2  -4   6    0.58    0.10
   2   4  -6    0.96    0.13
  -2   4   6    1.20    0.13
   2  -4   6    1.39    0.15
  -2   4   6    1.15    0.10
   3   4   6    2.70    0.20
   3   4   6    2.78    0.19
  -3   4   6    2.45    0.21
   3   4  -6    2.62    0.22
   3  -4   6    2.24    0.20
  -3   4   6    2.75    0.16
   3  -4   6    2.00    0.18
   4  -4  -6    8.86    0.46
   4   4   6   10.19    0.46
   4   4   6    9.62    0.44
   4   4  -6    9.08    0.50
   4  -4   6    8.48    0.44
  -4   4   6   10.28    0.40
   4  -4   6    9.60    0.47
  -4   4   6    9.50    0.46
   5  -4  -6   56.43    2.37
   5   4   6   59.98    2.24
   5   4   6   60.31    2.35
   5  -4   6   55.56    2.24
   5   4  -6   62.25    2.40
   5  -4   6   55.70    2.36
   6   4   6    2.02    0.21
   6  -4  -6    1.60    0.24
   6   4   6    1.75    0.23
   6  -4   6    1.99    0.24
   6   4  -6    2.06    0.28
  -6   4   6    0.96    0.19
   7  -4  -6    6.03    0.47
   7   4   6    7.46    0.47
  -7   4   6    6.17    0.42
   7   4  -6    6.21    0.46
   7  -4   6    6.38    0.45
   8   4   6    3.46    0.36
   8  -4  -6    4.83    0.44
   8  -4   6    4.63    0.41
   8   4  -6    4.16    0.41
  -8   4   6    4.09    0.37
   9  -4  -6    1.07    0.33
   9   4   6    1.08    0.32
  -9   4   6    0.98    0.31
   9   4  -6    1.16    0.32
   9  -4   6    0.96    0.34
  10  -4  -6   -0.27    0.32
  10   4   6    0.18    0.28
  10  -4   6    0.40    0.36
  10   4  -6    0.55    0.37
   0   4  -7    0.23    0.11
   0  -4  -7    0.42    0.05
   0   4   7    0.12    0.09
   1   4   7   73.22    2.80
   1  -4  -7   63.24    2.81
  -1  -4   7   71.99    2.74
  -1   4   7   71.12    2.70
  -1   4   7   71.86    2.70
   1  -4   7   77.59    2.85
   1   4  -7   73.41    2.85
   1  -4   7   72.59    2.74
   2  -4  -7    0.44    0.09
   2   4   7    0.34    0.11
   2   4   7    0.32    0.08
  -2  -4   7    0.36    0.11
   2  -4   7    0.48    0.12
  -2   4   7    0.45    0.11
  -2   4   7    0.46    0.09
   2  -4   7    0.45    0.11
   3   4   7   13.75    0.62
   3   4   7   13.90    0.61
   3   4  -7   14.45    0.67
  -3   4   7   14.23    0.59
   3  -4   7   15.79    0.66
   3  -4   7   14.58    0.63
  -3   4   7   14.92    0.63
   4   4   7   50.58    1.84
   4   4   7   51.14    1.92
   4  -4  -7   43.75    1.92
  -4   4   7   48.81    1.80
   4   4  -7   47.56    1.95
  -4   4   7   49.69    1.85
   4  -4   7   44.11    1.84
   4  -4   7   44.28    1.93
   5   4   7    0.86    0.17
   5  -4  -7    0.92    0.18
   5   4   7    0.75    0.16
  -5   4   7    0.55    0.13
   5  -4   7    0.58    0.14
   5   4  -7    0.99    0.20
   5  -4   7    1.00    0.20
   6   4   7    4.13    0.31
   6   4   7    3.65    0.33
   6  -4  -7    4.25    0.35
   6  -4   7    4.23    0.34
  -6   4   7    4.47    0.35
   6   4  -7    3.99    0.35
   7  -4  -7    6.24    0.48
   7   4   7    6.51    0.47
   7   4   7    6.50    0.41
   7   4  -7    7.37    0.52
   7  -4   7    8.74    0.52
  -7   4   7    6.19    0.46
   8   4   7    9.08    0.59
   8  -4  -7    9.74    0.62
  -8   4   7    8.80    0.57
   8   4  -7    8.84    0.59
   8  -4   7    8.38    0.57
   9  -4  -7    4.40    0.48
   9   4   7    3.93    0.43
   9   4  -7    4.30    0.47
  -9   4   7    4.15    0.42
   9  -4   7    3.72    0.43
  10   4   7    0.22    0.29
  10  -4  -7    0.03    0.29
  10  -4   7    0.22    0.31
  10   4  -7    0.18    0.30
 -10   4   7    0.10    0.32
   0   4  -8   20.33    0.90
   0   4   8   21.56    0.86
   0  -4  -8   22.21    0.85
   1   4   8    0.31    0.10
   1   4   8    0.56    0.07
  -1  -4   8    0.26    0.10
   1  -4  -8    0.30    0.07
   1  -4   8    0.21    0.10
   1   4  -8    0.20    0.12
   1  -4   8    0.32    0.11
  -1   4   8    0.32    0.09
  -1   4   8    0.53    0.11
  -2  -4   8   67.12    2.77
   2  -4  -8   72.21    2.87
   2   4   8   74.13    2.86
   2   4   8   72.93    2.76
  -2   4   8   74.65    2.75
   2  -4   8   75.04    2.90
  -2   4   8   72.48    2.75
   2  -4   8   75.29    2.79
   2   4  -8   71.76    2.90
   3   4   8   28.30    1.14
   3   4   8   27.81    1.17
   3  -4   8   31.35    1.21
  -3   4   8   29.07    1.15
   3  -4   8   28.08    1.16
   3   4  -8   28.31    1.22
  -3   4   8   28.12    1.12
   4   4   8    0.62    0.15
   4  -4  -8    0.71    0.15
   4   4   8    0.48    0.14
   4  -4   8    0.77    0.15
  -4   4   8    0.49    0.11
   4  -4   8    0.57    0.15
   4   4  -8    0.73    0.19
  -4   4   8    0.55    0.15
   5   4   8    3.79    0.28
   5  -4  -8    3.48    0.30
   5   4   8    3.49    0.27
   5  -4   8    3.04    0.28
   5  -4   8    3.17    0.26
   5   4  -8    4.21    0.34
  -5   4   8    3.80    0.29
   6  -4  -8    4.08    0.34
   6   4   8    3.71    0.30
   6   4   8    3.73    0.33
   6   4  -8    4.21    0.36
  -6   4   8    3.86    0.33
   6  -4   8    4.00    0.34
   7   4   8    5.41    0.39
   7   4   8    5.51    0.43
   7  -4  -8    4.80    0.44
   7  -4   8    5.77    0.44
  -7   4   8    5.54    0.43
   7   4  -8    5.86    0.45
   8  -4  -8    0.82    0.29
   8   4   8    0.91    0.29
   8   4  -8    0.98    0.32
  -8   4   8    1.34    0.30
   8  -4   8    1.42    0.32
   9   4   8    0.62    0.32
   9  -4  -8    0.25    0.29
   9  -4   8    0.57    0.33
   9   4  -8    0.88    0.31
  -9   4   8    0.38    0.26
  10   4   8    0.32    0.34
  10  -4  -8   -0.28    0.32
 -10   4   8    0.28    0.33
  10  -4   8    0.34    0.36
  10   4  -8   -0.03    0.35
   0   4   9   -0.05    0.10
   0  -4   9    0.02    0.03
   0   4  -9    0.09    0.12
   0  -4  -9    0.17    0.07
   1  -4  -9   13.08    0.49
  -1  -4   9   11.71    0.54
   1   4   9   11.37    0.48
   1   4   9   11.25    0.51
  -1   4   9   11.41    0.50
   1  -4   9   10.86    0.53
  -1   4   9   10.60    0.49
   1   4  -9   11.22    0.53
   1  -4   9   10.98    0.53
   2   4   9    6.20    0.30
   2  -4  -9    6.01    0.31
  -2  -4   9    6.30    0.35
   2   4   9    6.21    0.32
  -2   4   9    6.40    0.32
   2   4  -9    5.88    0.34
   2  -4   9    5.83    0.35
  -2   4   9    5.85    0.31
   2  -4   9    5.97    0.36
   3  -4  -9   11.71    0.57
   3   4   9   12.59    0.56
   3   4   9   11.65    0.55
   3  -4   9   12.69    0.59
   3   4  -9   13.03    0.62
  -3   4   9   12.91    0.57
  -3   4   9   12.83    0.54
   3  -4   9   13.34    0.60
   4   4   9    2.76    0.23
   4   4   9    3.19    0.24
   4  -4  -9    2.88    0.25
  -4   4   9    2.64    0.23
   4  -4   9    2.58    0.24
   4   4  -9    2.72    0.26
   4  -4   9    2.36    0.23
  -4   4   9    3.37    0.22
   5   4   9    2.66    0.24
   5   4   9    2.53    0.24
   5  -4  -9    3.26    0.28
   5  -4   9    2.57    0.25
   5  -4   9    2.65    0.29
   5   4  -9    2.61    0.28
  -5   4   9    3.84    0.30
   6  -4  -9   -0.05    0.17
   6   4   9    0.24    0.17
   6   4   9    0.08    0.18
  -6   4   9    0.15    0.21
   6   4  -9    0.22    0.23
   6  -4   9    0.13    0.19
   7  -4  -9   12.18    0.71
   7   4   9   12.73    0.70
   7   4   9   13.81    0.65
   7  -4   9   13.23    0.74
   7   4  -9   13.58    0.75
  -7   4   9   13.58    0.69
   8   4   9    9.80    0.61
   8  -4  -9    9.10    0.63
   8   4  -9   10.36    0.64
  -8   4   9    8.77    0.59
   8  -4   9    9.72    0.66
   9   4   9    6.45    0.57
   9  -4  -9    6.57    0.59
   9  -4   9    7.17    0.62
  -9   4   9    7.12    0.56
   9   4  -9    7.09    0.62
  10  -4  -9    0.17    0.31
  10   4   9    0.49    0.36
 -10   4   9    0.66    0.36
  10   4  -9    0.39    0.37
  10  -4   9    0.47    0.38
   0   4  10   18.04    0.73
   0   4 -10   18.48    0.79
   0  -4 -10   17.73    0.74
   0   4  10   17.88    0.75
   1   4  10    0.85    0.10
  -1  -4  10    1.15    0.17
   1   4  10    1.18    0.15
   1  -4 -10    1.55    0.12
   1  -4  10    1.12    0.18
   1   4 -10    0.85    0.16
  -1   4  10    1.50    0.15
  -1   4  10    1.32    0.15
   1  -4  10    1.20    0.17
  -2  -4  10   70.83    2.70
   2  -4 -10   70.42    2.78
  -2  -4  10   64.89    2.65
   2   4  10   71.96    2.76
   2   4  10   73.00    2.68
   2   4 -10   67.39    2.81
  -2   4  10   72.42    2.67
   2  -4  10   69.22    2.81
  -2   4  10   71.16    2.66
   2  -4  10   70.34    2.71
   3   4  10    7.09    0.39
  -3  -4  10    7.17    0.40
   3   4  10    8.02    0.37
   3  -4 -10    7.57    0.38
   3   4 -10    7.25    0.42
  -3   4  10    6.52    0.36
  -3   4  10    6.26    0.38
   3  -4  10    6.52    0.41
   3  -4  10    6.63    0.39
   4   4  10    2.31    0.21
   4   4  10    2.23    0.21
   4  -4 -10    2.75    0.24
   4  -4  10    2.92    0.27
  -4   4  10    2.73    0.25
   4   4 -10    2.42    0.26
  -4   4  10    2.67    0.22
   4  -4  10    2.60    0.25
   5   4  10    1.34    0.21
   5  -4 -10    1.22    0.21
   5   4  10    1.39    0.20
   5   4 -10    1.18    0.22
   5  -4  10    0.93    0.23
  -5   4  10    1.67    0.24
   5  -4  10    1.17    0.20
   6   4  10    5.45    0.38
   6  -4 -10    6.09    0.42
   6   4  10    5.36    0.39
   6   4 -10    5.04    0.43
  -6   4  10    4.89    0.40
   6  -4  10    4.37    0.40
   7  -4 -10   11.45    0.66
   7   4  10   11.92    0.60
   7   4  10   11.25    0.63
  -7   4  10    9.78    0.59
   7   4 -10   11.53    0.69
   7  -4  10   12.49    0.69
   8  -4 -10    0.53    0.28
   8   4  10    0.91    0.29
  -8   4  10    0.75    0.25
   8   4 -10    0.77    0.28
   8  -4  10    0.68    0.32
   9   4  10    0.71    0.32
   9  -4 -10    0.66    0.32
   9   4 -10    0.71    0.31
  -9   4  10    1.34    0.34
   9  -4  10    1.42    0.38
  10  -4 -10    3.38    0.49
  10   4  10    3.15    0.46
 -10   4  10    3.41    0.46
   0  -4 -11    0.22    0.08
   0  -4  11    0.09    0.08
   0   4 -11    0.29    0.14
   0   4  11    0.30    0.11
   0   4  11    0.08    0.11
   1   4  11    6.38    0.29
  -1  -4  11    6.39    0.37
  -1  -4  11    5.92    0.28
   1   4  11    5.95    0.32
   1  -4 -11    5.81    0.29
  -1   4  11    5.79    0.31
  -1   4  11    5.68    0.32
   1  -4  11    4.74    0.34
   1  -4  11    5.61    0.37
   1   4 -11    5.62    0.35
  -2  -4  11   14.02    0.67
   2   4  11   17.98    0.69
  -2  -4  11   17.01    0.73
   2   4 -11   16.44    0.75
  -2   4  11   16.50    0.69
  -2   4  11   15.89    0.69
   2  -4  11   16.61    0.75
   2  -4  11   15.46    0.74
   3   4  11   22.25    0.92
   3   4  11   20.65    0.91
  -3  -4  11   23.16    0.93
  -3  -4  11   20.25    0.89
   3  -4 -11   21.34    0.93
  -3   4  11   20.21    0.90
   3  -4  11   22.37    0.95
   3   4 -11   22.97    0.97
  -3   4  11   22.14    0.89
   3  -4  11   20.93    0.94
   4   4  11    0.76    0.19
   4   4  11    0.67    0.15
   4  -4 -11    0.56    0.17
   4   4 -11    0.33    0.20
  -4   4  11    0.64    0.18
   4  -4  11    0.67    0.19
   4  -4  11    0.48    0.18
  -4   4  11    0.57    0.15
   5  -4 -11    3.79    0.33
   5   4  11    4.60    0.34
   5   4  11    4.47    0.34
  -5   4  11    4.57    0.34
   5   4 -11    4.52    0.36
   5  -4  11    4.23    0.35
   5  -4  11    4.30    0.36
   6   4  11    9.89    0.56
   6  -4 -11    9.61    0.56
   6   4  11   10.30    0.54
   6   4 -11    9.58    0.61
   6  -4  11    9.84    0.56
  -6   4  11    9.12    0.55
   6  -4  11   10.16    0.60
   7   4  11   13.56    0.67
   7   4  11   12.99    0.69
   7  -4 -11   12.07    0.72
   7  -4  11   13.25    0.74
  -7   4  11   12.17    0.66
   7   4 -11   13.43    0.76
   8   4  11    1.70    0.33
   8  -4 -11    1.43    0.32
   8  -4  11    2.19    0.37
  -8   4  11    1.50    0.32
   8   4 -11    1.91    0.37
   9   4  11    1.51    0.36
   9  -4 -11    1.38    0.35
  -9   4  11    1.68    0.35
   9  -4  11    1.23    0.39
   9   4 -11    1.14    0.37
  10  -4 -11    4.22    0.54
 -10   4  11    3.82    0.47
   0   4  12    0.31    0.13
   0   4  12    0.14    0.12
   0   4 -12    0.58    0.17
   0  -4  12    0.06    0.05
  -1  -4  12    2.27    0.25
  -1   4  12    2.23    0.21
  -1   4  12    2.01    0.19
   1  -4  12    2.59    0.26
   1  -4  12    2.38    0.23
   1   4 -12    2.02    0.21
  -2  -4  12   24.91    1.05
  -2  -4  12   22.94    0.99
   2  -4  12   23.48    1.07
   2  -4  12   25.65    1.07
  -2   4  12   25.96    1.02
  -2   4  12   25.20    1.01
   2   4 -12   25.94    1.08
  -3  -4  12   23.32    1.00
   3  -4 -12   25.63    1.05
   3   4  12   23.77    1.01
  -3  -4  12   23.90    1.03
   3   4  12   25.85    1.03
   3   4 -12   24.77    1.08
   3  -4  12   23.30    1.06
  -3   4  12   23.86    0.99
  -3   4  12   23.81    1.01
   3  -4  12   23.58    1.05
   4   4  12    6.17    0.37
   4   4  12    6.26    0.38
   4  -4 -12    6.43    0.40
  -4   4  12    6.46    0.40
   4   4 -12    6.01    0.43
   4  -4  12    6.33    0.43
   4  -4  12    6.45    0.40
  -4   4  12    7.00    0.37
   5   4  12    1.62    0.22
   5  -4 -12    1.45    0.24
   5   4  12    1.71    0.25
   5   4 -12    1.29    0.26
   5  -4  12    1.73    0.25
   5  -4  12    1.31    0.24
  -5   4  12    1.55    0.26
   6  -4 -12    5.74    0.46
   6   4  12    6.36    0.44
   6   4  12    5.95    0.46
   6  -4  12    6.55    0.49
  -6   4  12    6.45    0.46
   6   4 -12    5.26    0.46
   6  -4  12    6.60    0.47
   7   4  12    4.40    0.38
   7  -4  12    3.84    0.42
   7   4 -12    3.76    0.39
  -7   4  12    3.51    0.35
   8   4 -12    0.33    0.27
  -8   4  12    0.05    0.28
   8  -4  12    0.13    0.27
  -9   4  12    1.01    0.30
   9   4 -12    0.56    0.31
   9  -4  12    0.70    0.37
   0  -4  13    0.05    0.04
   0   4 -13    0.22    0.16
   0   4  13    0.24    0.13
   0   4  13    0.12    0.16
  -1   4 -13   20.19    0.87
  -1  -4  13   20.39    0.87
   1   4 -13   20.79    0.89
  -1   4  13   21.63    0.83
   1  -4  13   18.58    0.87
   1  -4  13   15.63    0.85
  -1   4  13   20.74    0.85
  -2  -4  13    0.13    0.18
   2   4  13    0.11    0.09
  -2   4  13    0.33    0.16
  -2   4  13    0.08    0.15
   2   4 -13    0.02    0.17
   2  -4  13    0.02    0.19
   2  -4  13    0.09    0.16
  -3  -4  13    0.45    0.19
   3   4  13    0.35    0.16
  -3  -4  13    0.24    0.16
   3  -4  13    0.45    0.20
  -3   4  13    0.46    0.17
  -3   4  13    0.50    0.16
   3  -4  13    0.54    0.17
   3   4 -13    0.52    0.18
   4   4  13    4.53    0.34
  -4   4  13    4.71    0.34
   4   4 -13    4.82    0.40
  -4   4  13    4.83    0.36
   4  -4  13    4.71    0.35
   4  -4  13    4.80    0.40
   5   4  13   13.63    0.67
   5   4 -13   12.50    0.71
  -5   4  13   13.20    0.66
   5  -4  13   12.70    0.69
   5  -4  13   13.55    0.69
   6   4  13   36.41    1.49
  -6   4  13   34.60    1.48
   6   4 -13   35.10    1.58
   6  -4  13   38.17    1.53
   6  -4  13   34.48    1.57
   7   4  13    5.38    0.44
   7  -4  13    5.40    0.46
  -7   4  13    4.71    0.43
   7   4 -13    4.26    0.43
   8  -4  13    0.14    0.32
  -8   4  13    0.30    0.29
   8   4 -13    0.20    0.32
   9   4 -13    0.40    0.35
  -9   4  13    0.24    0.28
   9  -4  13    0.31    0.36
   0   4  14   11.44    0.51
   0   4 -14   10.63    0.56
   0   4  14   11.25    0.54
  -1   4 -14    8.67    0.46
   1   4  14    7.25    0.43
  -1  -4  14    7.45    0.47
   1   4  14    7.41    0.40
   1  -4  14    7.82    0.49
   1   4 -14    7.98    0.45
  -1   4  14    7.82    0.44
  -1   4  14    7.92    0.41
  -2  -4  14   38.82    1.64
   2   4  14   40.72    1.63
  -2   4  14   39.06    1.59
   2  -4  14   39.18    1.68
   2  -4  14   40.78    1.66
   2   4 -14   41.75    1.69
  -2   4  14   42.32    1.62
  -3  -4  14    5.27    0.39
   3   4  14    4.89    0.35
  -3   4  14    5.02    0.36
   3  -4  14    4.42    0.37
  -3   4  14    5.21    0.37
   3  -4  14    4.93    0.42
   3   4 -14    5.11    0.39
   4   4  14    5.12    0.39
  -4   4  14    4.36    0.35
   4  -4  14    4.56    0.39
   4  -4  14    4.57    0.40
  -4   4  14    4.39    0.33
   4   4 -14    4.68    0.41
   5   4  14    1.71    0.28
  -5   4  14    1.58    0.27
   5  -4  14    1.58    0.28
   5  -4  14    1.65    0.28
   5   4 -14    1.97    0.28
   6   4  14    8.60    0.54
   6  -4  14    8.72    0.55
  -6   4  14    8.43    0.51
   6  -4  14    8.45    0.56
   6   4 -14    8.32    0.60
   7   4  14    3.85    0.39
   7   4 -14    4.10    0.41
   7  -4  14    2.88    0.41
  -7   4  14    3.67    0.39
  -8   4  14    0.11    0.29
   8   4 -14    0.19    0.32
   8  -4  14    0.03    0.32
   9  -4  14    4.38    0.54
  -9   4  14    4.33    0.48
   9   4 -14    5.04    0.53
   0  -4  15    0.24    0.21
   0   4  15    0.22    0.15
   0   4  15    0.18    0.16
   0   4 -15    0.35    0.19
   1   4  15    7.87    0.45
  -1  -4  15    7.98    0.49
  -1   4 -15    7.93    0.47
   1   4 -15    8.02    0.47
   1  -4  15    7.86    0.51
  -1   4  15    8.18    0.46
  -1   4  15    7.63    0.42
   2   4  15    0.04    0.16
  -2  -4  15    0.22    0.21
  -2   4  15    0.30    0.19
  -2   4  15    0.16    0.18
   2  -4  15   -0.19    0.18
   2  -4  15    0.19    0.19
   2   4 -15   -0.14    0.18
  -3  -4  15   14.57    0.71
   3   4  15   13.89    0.70
  -3   4  15   14.05    0.66
  -3   4  15   14.13    0.67
   3   4 -15   14.04    0.72
   3  -4  15   13.03    0.70
   3  -4  15   14.48    0.74
   4   4  15   10.24    0.57
  -4  -4  15   11.23    0.59
   4  -4  15   10.11    0.60
   4  -4  15   10.16    0.60
  -4   4  15   10.37    0.56
   4   4 -15   10.57    0.61
   5   4  15    3.85    0.35
   5   4 -15    4.73    0.42
   5  -4  15    4.79    0.41
   5  -4  15    4.20    0.41
  -5   4  15    4.43    0.38
   6   4  15   15.77    0.82
   6  -4  15   15.68    0.84
  -6   4  15   15.68    0.80
   6  -4  15   16.58    0.85
   6   4 -15   16.69    0.88
   7   4  15    1.40    0.31
   7   4 -15    1.43    0.35
   7  -4  15    1.61    0.32
  -7   4  15    1.26    0.32
   8  -4  15    3.57    0.47
   8   4 -15    3.06    0.43
  -8   4  15    3.35    0.41
  -9   4  15    1.84    0.40
   0   4 -16    5.71    0.40
   0   4  16    5.12    0.40
   0  -4  16    5.43    0.44
  -1  -4  16    1.43    0.26
  -1   4 -16    1.69    0.26
   1   4  16    1.38    0.25
  -1   4  16    1.70    0.25
   1   4 -16    1.78    0.26
   1  -4  16    1.67    0.28
   2   4  16    3.17    0.31
  -2  -4  16    1.44    0.27
  -2   4  16    1.41    0.25
   2  -4  16    1.44    0.25
   2  -4  16    2.03    0.31
   2   4 -16    1.24    0.25
  -2   4  16    1.78    0.24
  -3  -4  16   13.66    0.73
   3   4  16   14.29    0.74
  -3   4  16   13.69    0.70
   3  -4  16   14.88    0.78
   3   4 -16   15.96    0.76
  -3   4  16   14.81    0.71
   3  -4  16   15.32    0.74
  -4  -4  16    1.11    0.26
   4   4  16    1.75    0.30
  -4   4  16    1.39    0.25
   4   4 -16    0.97    0.27
   4  -4  16    1.20    0.27
   4  -4  16    1.32    0.30
   5   4  16    1.09    0.29
   5  -4  16    1.48    0.31
  -5   4  16    0.79    0.26
   5   4 -16    1.01    0.29
   5  -4  16    1.31    0.29
   6   4  16    0.80    0.29
  -6   4  16    0.84    0.28
   6   4 -16    0.81    0.32
   6  -4  16    0.62    0.30
   6  -4  16    1.13    0.31
   7   4  16    0.10    0.28
   7  -4  16    0.05    0.30
   7   4 -16    0.44    0.31
  -7   4  16   -0.06    0.28
   8   4 -16    0.36    0.34
   8  -4  16    0.13    0.34
  -8   4  16   -0.04    0.31
   0   4  17    0.03    0.22
   0   4 -17   -0.07    0.21
   0  -4  17    0.19    0.23
  -1   4 -17   -0.02    0.21
  -1  -4  17    0.26    0.20
   1   4  17    0.36    0.23
   1  -4  17    0.14    0.20
   1   4 -17    0.17    0.22
  -1   4  17    0.14    0.22
   2   4  17   12.77    0.68
  -2   4 -17   13.34    0.69
  -2  -4  17   12.20    0.69
   2   4 -17   13.06    0.69
   2  -4  17   13.22    0.68
  -2   4  17   12.60    0.66
   2  -4  17   12.48    0.69
   3   4  17    2.49    0.32
  -3  -4  17    2.29    0.32
   3   4 -17    2.60    0.32
   3  -4  17    2.24    0.30
  -3   4  17    2.93    0.29
  -3   4  17    2.63    0.30
   3  -4  17    2.73    0.34
  -4  -4  17    3.05    0.35
   4   4  17    3.05    0.36
   4  -4  17    2.18    0.36
   4  -4  17    2.34    0.32
   4   4 -17    2.89    0.35
  -4   4  17    3.05    0.32
   5   4  17    3.18    0.39
  -5   4  17    3.48    0.37
   5   4 -17    3.13    0.38
   5  -4  17    3.53    0.42
   5  -4  17    3.48    0.38
   6   4  17    1.50    0.34
   6   4 -17    2.08    0.37
   6  -4  17    2.34    0.38
  -6   4  17    1.99    0.32
   6  -4  17    1.78    0.35
   7   4  17    1.39    0.35
   7  -4  17    0.90    0.34
   7   4 -17    0.46    0.33
  -7   4  17    1.12    0.32
   8   4 -17    4.01    0.49
  -8   4  17    3.92    0.45
   8  -4  17    3.98    0.50
   0   4 -18   33.79    1.48
   0  -4  18   33.94    1.46
   0   4  18   33.81    1.43
   1   4  18    1.64    0.26
  -1  -4  18    1.64    0.30
  -1   4 -18    1.89    0.30
   1   4 -18    1.86    0.29
   1  -4  18    1.48    0.31
  -1   4  18    1.47    0.29
  -2   4 -18    1.20    0.30
  -2  -4  18    1.50    0.28
   2   4  18    1.77    0.30
  -2   4  18    1.57    0.28
   2   4 -18    1.48    0.28
   2  -4  18    1.41    0.32
  -3  -4  18    4.31    0.40
   3   4  18    4.08    0.41
   3   4 -18    3.95    0.39
  -3   4  18    3.68    0.36
   3  -4  18    3.70    0.42
   3  -4  18    3.66    0.38
   4   4  18   13.86    0.77
  -4  -4  18   13.94    0.75
   4  -4  18   13.37    0.74
   4   4 -18   12.49    0.77
  -4   4  18   14.77    0.73
   4  -4  18   14.56    0.82
   5   4  18   -0.09    0.28
  -5   4  18   -0.02    0.26
   5  -4  18    0.24    0.27
   5   4 -18   -0.23    0.27
   5  -4  18   -0.05    0.28
   6   4  18    0.27    0.30
   6   4 -18    0.19    0.32
   6  -4  18    0.19    0.31
  -6   4  18    0.26    0.28
   7   4  18    1.48    0.36
  -7   4  18    1.02    0.33
   0  -4  19   -0.26    0.25
   0   4  19    0.01    0.26
   1   4  19    2.49    0.35
  -1  -4  19    3.16    0.38
   1  -4  19    2.22    0.33
  -1   4  19    2.83    0.35
  -2  -4  19    1.68    0.33
   2   4  19    1.62    0.28
   2  -4  19    1.57    0.33
  -2   4  19    1.67    0.31
  -3  -4  19    7.22    0.53
   3   4  19    8.35    0.59
  -3   4  19    7.87    0.54
   3  -4  19    8.23    0.62
  -4  -4  19    0.95    0.30
   4   4  19    1.04    0.32
   4  -4  19    0.86    0.29
   5   4  19    0.40    0.27
   5  -4  19    0.39    0.32
   6   4  19    0.63    0.34
  -6   4  19    0.59    0.29
   6  -4  19    0.73    0.34
   7   4  19   14.00    0.83
  -7   4  19   11.87    0.75
   0  -4  20   31.74    1.42
   0   4  20   31.42    1.38
  -1  -4  20    1.21    0.31
   1   4  20    0.98    0.31
   1  -4  20    0.75    0.31
  -1   4  20    0.59    0.25
  -2  -4  20    4.36    0.44
   2   4  20    3.94    0.43
   2  -4  20    5.03    0.46
  -2   4  20    3.52    0.40
   3   4  20    1.67    0.35
  -3  -4  20    1.90    0.35
  -3   4  20    1.80    0.34
   3  -4  20    1.89    0.38
   4   4  20   16.31    0.86
  -4  -4  20   15.42    0.86
   4  -4  20   16.51    0.89
   5   4  20   -0.12    0.31
   5  -4  20    0.06    0.32
   6   4  20    2.34    0.42
   6  -4  20    1.91    0.43
   0  -4  21    0.31    0.30
   0   4  21    0.16    0.30
   1   4  21    2.17    0.38
  -1  -4  21    2.51    0.39
   1  -4  21    2.54    0.40
  -1   4  21    2.01    0.36
  -2  -4  21    2.70    0.39
   2   4  21    2.71    0.40
  -2   4  21    2.05    0.36
   2  -4  21    2.46    0.41
   3   4  21    2.12    0.36
  -3  -4  21    2.63    0.39
  -3   4  21    2.90    0.38
   3  -4  21    2.18    0.42
  -4  -4  21   -0.11    0.31
   4   4  21    0.62    0.34
   4  -4  21    0.38    0.29
   5   4  21    3.01    0.44
   5  -4  21    2.92    0.47
   0  -4  22   26.79    1.25
   0   4  22   25.16    1.23
   1   4  22    0.51    0.33
  -1  -4  22    0.35    0.33
   1  -4  22    0.51    0.30
  -1   4  22   -0.09    0.30
  -2  -4  22   -0.26    0.30
   2   4  22    0.34    0.33
  -2   4  22    0.16    0.30
   2  -4  22    0.14    0.33
   3   4  22    2.75    0.44
  -3  -4  22    2.45    0.40
   3  -4  22    2.84    0.45
  -3   4  22    2.60    0.41
  -4  -4  22    3.88    0.47
   4   4  22    4.79    0.51
   4  -4  22    5.27    0.56
   0   4  23    0.36    0.35
   0  -4  23    0.30    0.29
  -1  -4  23    3.31    0.46
   1   4  23    4.05    0.49
   1  -4  23    3.60    0.45
  -1   4  23    3.75    0.46
   2   4  23    5.28    0.54
  -2  -4  23    4.40    0.50
  -2   4  23    5.23    0.51
   2  -4  23    5.09    0.55
   3   4  23    5.85    0.54
  -3  -4  23    5.18    0.52
  -3   4  23    5.09    0.51
   3  -4  23    6.15    0.60
   0   4  24    0.11    0.31
   0  -4  24    0.42    0.35
  -1  -4  24    1.86    0.43
   1   4  24    2.58    0.44
  -1   4  24    2.58    0.44
   1  -4  24    2.71    0.46
   0  -5   0   -0.01    0.05
   1   5   0    0.16    0.06
   1  -5   0    0.23    0.06
   2   5   0   83.14    3.30
   2  -5   0   87.58    3.45
  -2   5   0   93.00    3.29
   2   5   0   88.74    3.46
   3  -5   0    0.09    0.08
   3   5   0    0.08    0.04
  -3   5   0    0.59    0.10
   3   5   0    0.14    0.10
   4  -5   0  213.14    9.26
   4   5   0  251.38    9.28
   4   5   0  245.58    8.84
  -4   5   0  240.26    8.82
   5  -5   0    3.53    0.29
   5   5   0    2.93    0.24
  -5   5   0    3.46    0.26
   5   5   0    3.51    0.30
   6   5   0    1.54    0.16
  -6   5   0    0.12    0.16
   6  -5   0    0.69    0.18
   6   5   0    0.28    0.16
   7  -5   0   -0.01    0.20
  -7   5   0    0.25    0.19
   7   5   0    0.14    0.18
  -8   5   0   79.03    3.10
   8   5   0   81.72    3.29
   8  -5   0   79.85    3.30
   9  -5   0   -0.17    0.24
   9   5   0   -0.27    0.27
  10  -5   0    5.39    0.53
  10   5   0    5.54    0.54
   0  -5  -1    1.33    0.10
   0   5   1    1.03    0.09
   0  -5   1    1.03    0.11
   0   5   1    1.07    0.11
   1   5   1    0.78    0.08
   1  -5  -1    0.30    0.06
   1   5  -1    0.43    0.08
   1  -5   1    0.55    0.08
   2  -5  -1    5.17    0.24
   2   5   1    4.95    0.25
  -2   5  -1    4.78    0.23
   2   5  -1    5.03    0.26
   2  -5   1    4.34    0.25
  -2   5   1    5.28    0.24
  -3   5  -1    1.20    0.12
   3   5   1    1.38    0.14
  -3   5   1    1.34    0.13
   3  -5   1    1.37    0.14
   3   5  -1    1.38    0.15
   4   5   1    0.57    0.14
  -4   5  -1    1.00    0.13
   4  -5  -1    1.49    0.17
   4   5   1    0.40    0.12
  -4   5   1    0.68    0.14
   4  -5   1    0.66    0.14
   4   5  -1    0.50    0.13
   4   5  -1    0.77    0.14
   5  -5  -1   85.17    3.59
   5   5   1   88.39    3.60
   5   5   1   93.44    3.41
  -5   5  -1   90.92    3.41
   5  -5   1   93.10    3.61
  -5   5   1   88.33    3.42
   5   5  -1   89.98    3.61
   5   5  -1   93.91    3.41
  -6   5  -1    2.77    0.25
   6   5   1    3.43    0.24
   6  -5  -1    3.37    0.29
   6   5   1    3.01    0.29
  -6   5   1    3.11    0.27
   6   5  -1    2.62    0.29
   6  -5   1    3.20    0.30
   6   5  -1    2.74    0.23
   7  -5  -1   17.56    0.86
   7   5   1   17.26    0.86
  -7   5  -1   18.82    0.80
   7  -5   1   17.74    0.88
  -7   5   1   18.20    0.81
   7   5  -1   17.85    0.87
   8  -5  -1    0.91    0.29
  -8   5  -1    1.33    0.25
   8   5   1    0.93    0.29
   8   5  -1    0.92    0.25
  -8   5   1    0.68    0.25
   8  -5   1    1.14    0.30
   9   5   1    5.36    0.48
   9  -5  -1    5.91    0.51
   9  -5   1    5.90    0.53
   9   5  -1    6.26    0.53
  10  -5  -1    0.51    0.36
  10   5   1    1.85    0.39
  10   5  -1    1.33    0.34
  10  -5   1    0.81    0.37
   0   5   2    0.13    0.06
   0   5   2    0.07    0.04
   0  -5   2    0.11    0.07
   1  -5  -2   16.34    0.69
   1   5   2   18.36    0.70
   1  -5   2   17.51    0.71
   1   5  -2   17.26    0.72
  -1   5   2   16.88    0.66
   2  -5  -2   64.56    2.56
  -2   5  -2   63.25    2.43
   2   5   2   62.61    2.56
  -2   5   2   67.69    2.45
   2   5  -2   68.04    2.59
   3   5   2    0.49    0.09
   3   5   2    0.61    0.10
  -3   5  -2    0.84    0.10
  -3   5   2    0.82    0.11
   3   5  -2    0.77    0.12
   3  -5   2    0.80    0.11
   4  -5  -2  167.22    6.57
   4   5   2  170.95    6.26
  -4   5  -2  165.47    6.24
   4   5   2  169.43    6.57
  -4   5   2  166.09    6.26
   4  -5   2  159.86    6.23
   4   5  -2  173.41    6.59
   4  -5   2  170.56    6.57
   5   5   2    3.43    0.25
  -5   5  -2    3.82    0.26
   5   5   2    3.38    0.27
   5  -5  -2    4.58    0.29
  -5   5   2    4.33    0.30
   5   5  -2    4.26    0.30
   5   5  -2    3.85    0.26
   5  -5   2    3.73    0.28
   6   5   2    0.94    0.20
  -6   5  -2    0.99    0.17
   6  -5  -2    0.49    0.17
   6   5   2    0.97    0.15
   6   5  -2    0.90    0.15
   6  -5   2    1.10    0.19
   6   5  -2    0.94    0.19
  -6   5   2    1.13    0.18
  -7   5  -2   13.09    0.61
   7   5   2   12.45    0.67
   7  -5  -2   12.35    0.68
   7  -5   2   12.51    0.69
  -7   5   2   12.90    0.63
   7   5  -2   12.94    0.67
   8  -5  -2   46.07    2.03
   8   5   2   48.26    2.02
  -8   5   2   46.12    1.90
   8   5  -2   48.48    2.04
   8  -5   2   47.91    2.03
   9  -5  -2   10.92    0.72
   9   5   2   10.65    0.70
  -9   5   2   11.39    0.65
   9  -5   2   10.91    0.72
   9   5  -2   10.36    0.71
  10   5   2    3.19    0.45
  10  -5  -2    3.09    0.48
  10   5  -2    3.29    0.46
  10  -5   2    3.20    0.43
   0   5   3   66.61    2.49
   0   5   3   65.99    2.57
   1   5   3   16.63    0.71
   1  -5  -3   18.14    0.71
   1   5  -3   18.40    0.74
  -1   5   3   17.66    0.68
   2   5   3    1.84    0.13
  -2   5   3    1.85    0.10
   2  -5   3    1.92    0.13
  -2   5   3    1.35    0.12
   3   5   3    4.30    0.24
  -3   5  -3    4.18    0.22
   3   5   3    4.32    0.24
   3  -5   3    4.68    0.21
   3   5  -3    4.17    0.26
  -3   5   3    4.11    0.24
   3  -5   3    4.16    0.25
  -4   5  -3   34.17    1.32
   4  -5  -3   33.27    1.41
   4   5   3   32.48    1.40
   4   5   3   34.22    1.33
   4   5  -3   34.18    1.43
   4  -5   3   36.95    1.31
  -4   5   3   35.38    1.35
   4  -5   3   32.83    1.41
  -5   5  -3   34.70    1.35
   5  -5  -3   33.05    1.44
   5   5   3   34.81    1.44
   5   5   3   35.36    1.36
  -5   5   3   36.86    1.38
   5   5  -3   33.81    1.46
   5  -5   3   32.87    1.44
   6   5   3    9.03    0.51
  -6   5  -3    8.90    0.46
   6   5   3    9.51    0.45
   6  -5  -3    9.49    0.51
   6   5  -3    9.43    0.45
  -6   5   3   10.07    0.49
   7   5   3    9.70    0.57
   7  -5  -3   10.13    0.59
  -7   5   3   10.58    0.53
   7   5  -3   10.10    0.60
   7  -5   3   10.01    0.59
   8   5   3    0.68    0.24
   8  -5  -3    0.54    0.26
   8  -5   3    0.79    0.28
   8   5  -3    0.78    0.29
  -8   5   3    0.65    0.26
   9  -5  -3    8.86    0.66
   9   5   3    8.69    0.64
   9  -5   3   10.10    0.67
   9   5  -3    8.99    0.61
  -9   5   3    9.51    0.60
  10   5   3    2.97    0.40
  10  -5  -3    2.99    0.47
  10  -5   3    2.92    0.46
  10   5  -3    2.41    0.39
   0   5   4    0.23    0.07
   1  -5  -4   85.82    3.28
   1   5   4   82.11    3.27
   1  -5   4   84.00    3.17
  -1   5   4   85.15    3.15
   2  -5  -4   35.38    1.31
   2   5   4   30.21    1.26
   2   5   4   33.92    1.31
   2  -5   4   33.99    1.27
  -2   5   4   30.61    1.24
   3   5   4    1.07    0.11
   3   5   4    0.94    0.12
  -3   5   4    0.65    0.11
  -4   5  -4   49.92    1.84
   4   5   4   49.21    1.95
   4   5   4   49.06    1.86
   4  -5  -4   44.50    1.95
  -4   5   4   49.01    1.87
   4  -5   4   49.21    1.85
  -5   5  -4    8.26    0.39
   5   5   4    7.84    0.43
   5   5   4    7.39    0.40
   5  -5  -4    8.07    0.45
   5  -5   4    8.64    0.38
  -5   5   4    8.14    0.42
   6   5   4   14.65    0.65
  -6   5  -4   15.47    0.66
   6  -5  -4   15.86    0.75
   6   5   4   14.75    0.71
   6   5  -4   15.61    0.66
  -6   5   4   14.64    0.70
   7  -5  -4   16.09    0.81
   7   5   4   14.82    0.78
   7  -5   4   16.84    0.81
  -7   5   4   15.96    0.76
   7   5  -4   15.95    0.80
   8   5   4   31.52    1.41
   8  -5  -4   30.54    1.42
  -8   5   4   31.11    1.33
   8  -5   4   30.72    1.41
   8   5  -4   32.52    1.42
   9  -5  -4   11.25    0.74
   9   5   4   11.23    0.71
  -9   5   4   11.30    0.67
   9  -5   4   11.80    0.74
   9   5  -4   12.21    0.75
  10  -5  -4    1.36    0.38
  10   5   4    0.79    0.35
  10  -5   4    0.91    0.37
  10   5  -4    1.22    0.34
   0   5   5   25.18    0.92
   0  -5   5   22.19    0.97
   1   5   5   10.21    0.38
   1  -5  -5    9.55    0.38
  -1   5   5    8.95    0.39
   1  -5   5    8.21    0.42
   2   5   5  206.84    7.56
   2   5   5  192.81    7.24
   2  -5  -5  179.84    7.56
  -2   5   5  193.97    7.22
  -2   5   5  191.62    7.22
   2  -5   5  202.10    7.59
   3   5   5    8.36    0.39
  -3   5  -5    8.75    0.35
   3   5   5    8.35    0.38
  -3   5   5    7.95    0.34
   3  -5   5    8.66    0.42
   4  -5  -5    0.69    0.13
   4   5   5    0.59    0.13
  -4   5  -5    0.66    0.10
   4   5   5    0.84    0.13
   4  -5   5    0.79    0.14
   4   5  -5    0.48    0.13
  -4   5   5    0.23    0.09
   5   5   5    4.84    0.33
   5   5   5    4.47    0.29
   5  -5  -5    5.59    0.34
   6   5   5   15.57    0.68
   6  -5  -5   16.09    0.76
   6   5   5   15.79    0.74
  -6   5   5   14.66    0.71
   7   5   5    7.41    0.48
   7   5   5    6.63    0.40
   7  -5  -5    6.36    0.48
   7   5  -5    7.30    0.51
   7  -5   5    7.40    0.50
  -7   5   5    7.36    0.47
   8  -5  -5    0.54    0.24
   8   5   5    0.96    0.28
   8  -5   5    1.35    0.31
   8   5  -5    0.66    0.30
  -8   5   5    1.07    0.28
   9   5   5    5.35    0.46
   9  -5  -5    5.48    0.51
   9   5  -5    5.51    0.52
  -9   5   5    5.38    0.46
   9  -5   5    5.86    0.51
  10   5   5    1.83    0.40
  10  -5  -5    2.15    0.39
  10  -5   5    2.05    0.38
  10   5  -5    2.28    0.38
 -10   5   5    2.08    0.38
   0   5   6    0.17    0.07
   0  -5   6    0.16    0.10
   0  -5   6    0.20    0.09
   0   5  -6    0.31    0.11
   1   5   6   92.07    3.60
   1  -5  -6  100.42    3.73
   1   5   6  100.03    3.72
   1  -5   6   85.49    3.61
   1   5  -6   96.37    3.77
  -1   5   6   94.11    3.59
   1  -5   6   99.85    3.78
  -1   5   6   98.46    3.59
   2   5   6   16.13    0.68
   2   5   6   16.83    0.68
   2  -5  -6   16.23    0.68
  -2   5   6   16.03    0.65
   2   5  -6   17.56    0.73
  -2   5   6   16.40    0.68
   2  -5   6   17.72    0.72
   2  -5   6   15.44    0.69
   3   5   6   63.14    2.28
   3   5   6   59.71    2.36
   3  -5   6   57.05    2.28
  -3   5   6   61.39    2.25
   3  -5   6   58.16    2.39
   3   5  -6   60.19    2.41
  -3   5   6   58.58    2.27
   4   5   6    0.73    0.14
   4  -5  -6    0.69    0.13
   4   5   6    0.91    0.14
   4  -5   6    1.03    0.16
  -4   5   6    0.57    0.14
   4   5  -6    0.50    0.16
  -4   5   6    0.75    0.09
   4  -5   6    1.16    0.14
   5   5   6  107.00    4.08
   5  -5  -6  103.08    4.28
   5   5   6  109.42    4.27
   5  -5   6  112.58    4.08
   6  -5  -6   17.44    0.83
   6   5   6   17.52    0.80
   6   5   6   17.64    0.75
  -6   5   6   15.92    0.77
   6  -5   6   17.26    0.82
   6   5  -6   18.51    0.86
   7   5   6    3.54    0.29
   7  -5  -6    2.85    0.34
   7   5   6    3.35    0.33
   7  -5   6    3.42    0.35
  -7   5   6    3.02    0.30
   7   5  -6    3.09    0.33
   8   5   6    7.11    0.53
   8  -5  -6    7.07    0.52
   8  -5   6    7.86    0.57
   8   5  -6    7.81    0.59
  -8   5   6    7.92    0.53
   9   5   6    1.33    0.32
   9  -5  -6    0.90    0.33
   9  -5   6    1.48    0.35
  -9   5   6    1.17    0.32
   9   5  -6    1.48    0.36
  10   5   6    0.48    0.35
  10  -5  -6    0.18    0.34
 -10   5   6    0.56    0.33
  10   5  -6    0.72    0.37
  10  -5   6    0.93    0.38
   0  -5   7    5.61    0.33
   0   5  -7    6.62    0.35
   0   5   7    7.70    0.32
   1   5   7   15.10    0.60
  -1  -5   7   15.71    0.65
   1  -5  -7   15.26    0.61
   1   5   7   14.07    0.62
   1  -5   7   15.08    0.64
  -1   5   7   14.99    0.61
   1  -5   7   15.24    0.66
  -1   5   7   15.23    0.62
   1   5  -7   14.97    0.67
   2   5   7  220.32    8.18
   2   5   7  227.84    8.52
   2  -5  -7  201.14    8.53
  -2   5   7  219.04    8.15
   2  -5   7  211.96    8.20
   2   5  -7  223.51    8.57
   2  -5   7  232.35    8.57
  -2   5   7  220.44    8.16
   3   5   7   27.63    1.13
   3   5   7   28.01    1.11
  -3   5   7   27.94    1.11
   3  -5   7   27.01    1.12
   3  -5   7   28.12    1.17
   3   5  -7   28.19    1.18
  -3   5   7   28.12    1.08
   4   5   7    4.67    0.29
   4  -5  -7    4.36    0.29
   4   5   7    4.92    0.30
   4  -5   7    4.14    0.33
  -4   5   7    5.28    0.25
  -4   5   7    5.22    0.31
   4   5  -7    4.76    0.35
   4  -5   7    4.68    0.29
   5   5   7    1.15    0.18
   5   5   7    1.23    0.18
   5  -5  -7    1.27    0.19
   5  -5   7    1.53    0.23
   5   5  -7    1.80    0.26
   5  -5   7    1.36    0.18
   6  -5  -7    3.54    0.31
   6   5   7    3.20    0.29
   6   5   7    2.94    0.26
  -6   5   7    3.06    0.28
   6   5  -7    4.22    0.35
   6  -5   7    3.01    0.32
   7  -5  -7    2.58    0.32
   7   5   7    2.23    0.30
   7   5   7    3.06    0.28
   7  -5   7    2.51    0.30
  -7   5   7    2.61    0.31
   7   5  -7    2.71    0.32
   8  -5  -7    3.13    0.36
   8   5   7    2.73    0.33
   8  -5   7    2.62    0.35
  -8   5   7    2.84    0.35
   8   5  -7    3.83    0.43
   9   5   7    7.04    0.54
   9  -5  -7    7.67    0.61
  -9   5   7    7.88    0.57
   9  -5   7    7.08    0.61
   9   5  -7    7.05    0.57
  10  -5  -7    8.45    0.70
  10   5   7    7.89    0.67
 -10   5   7    8.74    0.66
  10   5  -7    9.66    0.69
  10  -5   7    9.56    0.73
   0  -5   8    0.27    0.08
   0   5  -8    0.69    0.13
   0   5   8    0.65    0.11
   0  -5  -8    0.82    0.06
   1  -5  -8   71.10    2.75
   1   5   8   69.69    2.67
   1   5   8   75.46    2.75
  -1  -5   8   70.33    2.70
  -1   5   8   69.69    2.66
   1  -5   8   67.65    2.70
  -1   5   8   69.27    2.66
   1   5  -8   68.92    2.80
   1  -5   8   71.94    2.81
   2  -5  -8    9.06    0.43
   2   5   8    9.49    0.44
   2   5   8   10.25    0.42
   2  -5   8    8.93    0.46
  -2   5   8    9.56    0.42
   2  -5   8   10.21    0.47
   2   5  -8    9.75    0.47
  -2   5   8    9.66    0.44
   3   5   8   78.59    3.04
   3   5   8   78.20    2.93
   3  -5   8   74.29    2.95
   3  -5   8   77.86    3.08
  -3   5   8   76.88    2.92
   3   5  -8   77.77    3.09
  -3   5   8   76.21    2.90
   4   5   8    0.89    0.14
   4  -5  -8    1.56    0.18
   4   5   8    1.01    0.15
   4  -5   8    1.05    0.18
  -4   5   8    0.85    0.18
   4   5  -8    1.39    0.23
  -4   5   8    1.10    0.13
   4  -5   8    1.16    0.17
   5   5   8   30.12    1.23
   5   5   8   30.56    1.28
   5  -5  -8   30.11    1.30
  -5   5   8   30.78    1.25
   5  -5   8   28.80    1.23
   5  -5   8   31.25    1.32
   5   5  -8   30.97    1.33
   6  -5  -8   18.50    0.86
   6   5   8   19.05    0.80
   6   5   8   17.81    0.84
  -6   5   8   17.09    0.81
   6  -5   8   17.91    0.86
   6   5  -8   19.03    0.91
   7   5   8    2.62    0.28
   7   5   8    2.83    0.31
   7  -5  -8    2.77    0.33
  -7   5   8    3.07    0.33
   7   5  -8    2.76    0.36
   7  -5   8    2.35    0.33
   8  -5  -8    5.47    0.48
   8   5   8    4.41    0.43
  -8   5   8    4.45    0.41
   8  -5   8    5.37    0.47
   8   5  -8    4.75    0.45
   9  -5  -8    0.42    0.30
   9   5   8    0.54    0.30
   9   5  -8    0.56    0.30
  -9   5   8    0.61    0.31
   9  -5   8    0.70    0.35
  10   5   8    8.31    0.67
  10  -5  -8    8.88    0.70
  10  -5   8    8.25    0.72
  10   5  -8    8.64    0.67
 -10   5   8    8.56    0.65
   0  -5  -9  101.18    3.73
   0   5  -9   93.43    3.79
   0   5   9   92.89    3.61
   1   5   9   31.59    1.23
  -1  -5   9   28.97    1.25
   1  -5  -9   31.71    1.24
   1   5   9   29.61    1.22
   1  -5   9   31.07    1.26
   1   5  -9   31.04    1.29
  -1   5   9   31.45    1.21
  -1   5   9   32.07    1.21
   1  -5   9   31.32    1.29
   2   5   9  114.56    4.25
   2  -5  -9  115.81    4.41
  -2  -5   9  109.43    4.27
   2   5   9  114.82    4.40
  -2   5   9  108.03    4.23
   2   5  -9  108.70    4.45
   2  -5   9  114.88    4.45
   2  -5   9  112.03    4.28
  -2   5   9  116.27    4.23
   3   5   9   10.28    0.50
   3   5   9   10.66    0.47
  -3   5   9   10.43    0.50
   3  -5   9   10.52    0.53
  -3   5   9   10.64    0.46
   3  -5   9   10.83    0.52
   3   5  -9   10.03    0.54
   4  -5  -9   20.08    0.91
   4   5   9   21.99    0.89
   4   5   9   21.86    0.88
   4  -5   9   20.37    0.93
   4  -5   9   20.19    0.90
  -4   5   9   21.08    0.84
   4   5  -9   21.68    0.95
  -4   5   9   19.75    0.88
   5  -5  -9    0.61    0.17
   5   5   9    0.30    0.16
   5   5   9    0.59    0.17
  -5   5   9    0.41    0.17
   5  -5   9    0.76    0.22
   5   5  -9    0.72    0.20
   5  -5   9    0.72    0.17
   6  -5  -9    0.38    0.20
   6   5   9    0.29    0.17
   6   5   9    0.23    0.18
   6   5  -9    0.38    0.22
  -6   5   9    0.50    0.22
   6  -5   9    0.31    0.20
   7  -5  -9    0.79    0.25
   7   5   9    1.10    0.25
   7   5   9    1.10    0.23
   7   5  -9    0.74    0.26
  -7   5   9    1.17    0.24
   7  -5   9    1.17    0.30
   8   5   9    2.98    0.36
   8  -5  -9    3.04    0.37
   8   5  -9    3.01    0.39
   8  -5   9    2.95    0.38
  -8   5   9    2.55    0.36
   9  -5  -9    3.93    0.47
   9   5   9    4.56    0.46
   9   5  -9    4.13    0.49
  -9   5   9    4.74    0.46
   9  -5   9    4.05    0.45
  10   5   9    4.39    0.50
  10  -5  -9    4.55    0.53
 -10   5   9    4.26    0.48
   0  -5 -10    0.63    0.08
   0   5  10    0.28    0.13
   0   5 -10    0.34    0.14
   1  -5 -10   56.44    2.05
   1   5  10   51.65    2.00
   1   5  10   52.56    2.04
  -1  -5  10   50.62    2.03
  -1   5  10   50.97    1.99
   1  -5  10   50.96    2.10
   1  -5  10   50.53    2.03
  -1   5  10   53.83    1.99
   1   5 -10   48.88    2.10
   2  -5 -10    5.85    0.29
   2   5  10    4.35    0.31
  -2  -5  10    5.84    0.36
   2   5  10    5.89    0.28
  -2   5  10    5.33    0.30
   2  -5  10    5.28    0.34
  -2   5  10    5.51    0.31
   2   5 -10    6.09    0.36
   2  -5  10    5.38    0.35
   3  -5 -10   98.37    4.17
   3   5  10  105.16    4.01
   3   5  10  114.20    4.16
   3  -5  10  101.61    4.04
  -3   5  10  102.57    3.99
   3   5 -10  108.11    4.22
  -3   5  10  111.11    3.99
   3  -5  10  106.27    4.20
   4  -5 -10   10.72    0.54
   4   5  10   11.26    0.52
   4   5  10   11.10    0.54
  -4   5  10   11.32    0.55
  -4   5  10   11.33    0.50
   4  -5  10   10.00    0.55
   4  -5  10   10.56    0.56
   4   5 -10   11.44    0.59
   5  -5 -10    5.10    0.37
   5   5  10    5.43    0.36
   5   5  10    5.11    0.34
   5  -5  10    4.65    0.39
   5  -5  10    4.54    0.35
   5   5 -10    5.47    0.39
  -5   5  10    5.24    0.38
   6   5  10    1.98    0.25
   6   5  10    2.23    0.25
   6  -5 -10    1.89    0.28
  -6   5  10    2.10    0.29
   6  -5  10    1.59    0.30
   6   5 -10    1.85    0.32
   7   5  10    0.56    0.22
   7   5  10    0.47    0.23
   7  -5 -10    0.34    0.24
  -7   5  10    0.89    0.26
   7   5 -10    0.33    0.25
   7  -5  10    1.10    0.27
   8  -5 -10   19.93    1.02
   8   5  10   22.03    1.02
   8  -5  10   19.30    1.02
  -8   5  10   20.69    0.95
   8   5 -10   19.00    1.01
   9  -5 -10    0.76    0.32
   9   5  10    0.35    0.30
  -9   5  10    0.42    0.31
   9  -5  10    0.69    0.36
   9   5 -10    0.51    0.31
  10   5  10    2.85    0.48
  10  -5 -10    2.72    0.45
 -10   5  10    3.69    0.44
   0   5  11  118.55    4.25
   0   5 -11  102.72    4.47
   0   5  11  118.89    4.28
   1   5  11   29.39    1.22
  -1  -5  11   31.18    1.27
  -1   5  11   31.73    1.22
   1  -5  11   31.08    1.29
   1  -5  11   31.42    1.27
   1   5 -11   29.59    1.29
  -1   5  11   30.44    1.21
  -2  -5  11   49.55    1.97
  -2   5  11   50.38    1.92
   2   5 -11   50.79    2.04
   2  -5  11   50.26    1.98
  -2   5  11   51.62    1.93
   2  -5  11   46.60    2.03
   3   5  11    3.58    0.30
   3   5  11    3.76    0.24
   3  -5 -11    4.03    0.27
  -3   5  11    3.83    0.27
   3   5 -11    4.60    0.35
   3  -5  11    3.96    0.30
  -3   5  11    3.36    0.29
   3  -5  11    3.57    0.30
   4   5  11   24.40    1.02
   4   5  11   24.70    1.02
   4  -5 -11   21.00    1.03
   4   5 -11   24.02    1.08
   4  -5  11   23.34    1.04
   4  -5  11   23.60    1.06
  -4   5  11   25.64    1.03
  -4   5  11   26.03    0.99
   5  -5 -11   16.49    0.75
   5   5  11   15.77    0.72
   5   5  11   15.32    0.72
  -5   5  11   15.33    0.73
   5   5 -11   14.71    0.78
   5  -5  11   15.25    0.77
   5  -5  11   15.53    0.75
   6   5  11    2.10    0.27
   6  -5 -11    2.01    0.27
   6   5  11    2.15    0.27
   6   5 -11    1.94    0.30
   6  -5  11    1.92    0.28
  -6   5  11    1.73    0.29
   7  -5 -11    0.37    0.24
   7   5  11    0.32    0.22
   7   5  11    0.03    0.25
  -7   5  11    0.20    0.25
   7  -5  11    0.59    0.29
   7   5 -11    0.25    0.24
   8   5 -11    0.99    0.34
   8  -5  11    0.77    0.29
  -8   5  11    0.94    0.31
   9   5 -11    1.30    0.39
   9  -5  11    0.81    0.37
  -9   5  11    1.08    0.34
 -10   5  11    2.30    0.42
   0   5  12    0.28    0.15
   0   5 -12    0.23    0.14
   0   5  12    0.25    0.13
  -1  -5  12   62.93    2.46
   1  -5  12   61.33    2.54
   1   5 -12   62.25    2.54
  -1   5  12   62.98    2.40
  -1   5  12   64.20    2.42
   1  -5  12   64.45    2.47
  -2  -5  12    1.50    0.23
  -2   5  12    1.39    0.18
  -2   5  12    1.35    0.18
   2  -5  12    1.47    0.22
   2   5 -12    1.70    0.22
   2  -5  12    1.78    0.22
  -3  -5  12   25.15    1.06
   3   5  12   23.88    1.04
  -3   5  12   23.79    1.03
   3  -5  12   25.65    1.10
  -3   5  12   25.24    1.02
   3   5 -12   25.10    1.10
   3  -5  12   25.19    1.08
   4   5  12    7.30    0.43
   4   5 -12    6.99    0.44
   4  -5  12    6.77    0.45
   4  -5  12    7.01    0.43
  -4   5  12    6.14    0.42
   5   5  12    2.51    0.27
  -5   5  12    1.62    0.26
   5  -5  12    1.52    0.25
   5  -5  12    1.79    0.26
   5   5 -12    1.48    0.26
   6   5  12    0.77    0.23
   6   5 -12    1.08    0.30
   6  -5  12    0.96    0.28
  -6   5  12    0.85    0.23
   7   5  12    7.18    0.49
  -7   5  12    6.87    0.51
   7   5 -12    7.18    0.57
   7  -5  12    6.94    0.56
  -8   5  12   29.24    1.27
   8  -5  12   26.23    1.32
   8   5 -12   29.30    1.36
   9   5 -12    3.58    0.44
   9  -5  12    3.52    0.45
  -9   5  12    3.32    0.43
   0   5 -13   85.38    3.45
   0   5  13   87.40    3.30
   0   5  13   86.76    3.26
   1   5  13   26.13    1.15
  -1   5 -13   29.30    1.21
  -1  -5  13   28.32    1.18
  -1   5  13   27.40    1.12
  -1   5  13   28.16    1.15
   1   5 -13   27.90    1.20
   1  -5  13   28.88    1.21
   1  -5  13   28.52    1.20
  -2  -5  13    8.51    0.49
  -2   5  13    7.88    0.44
   2   5 -13    8.76    0.49
  -2   5  13    8.06    0.45
   2  -5  13    8.66    0.48
   2  -5  13    9.72    0.52
   3   5  13    0.95    0.21
  -3  -5  13    1.10    0.23
   3  -5  13    0.73    0.21
   3   5 -13    1.22    0.24
  -3   5  13    1.20    0.18
  -3   5  13    0.66    0.19
   3  -5  13    1.18    0.23
   4   5  13   50.31    1.94
   4  -5  13   47.62    2.03
   4   5 -13   48.37    2.04
  -4   5  13   47.46    1.92
   4  -5  13   50.11    1.98
   5   5  13   24.71    1.07
   5  -5  13   24.14    1.11
   5  -5  13   25.40    1.13
   5   5 -13   24.58    1.14
  -5   5  13   24.09    1.07
   6   5  13    1.43    0.28
   6  -5  13    1.53    0.31
   6   5 -13    1.80    0.33
  -6   5  13    2.12    0.31
   6  -5  13    1.69    0.33
   7   5  13    1.98    0.31
   7  -5  13    1.66    0.34
   7   5 -13    1.31    0.35
  -7   5  13    2.08    0.30
   8   5 -13    1.73    0.38
  -8   5  13    1.28    0.30
   8  -5  13    1.32    0.33
   9   5 -13    1.68    0.41
   9  -5  13    2.59    0.45
  -9   5  13    2.32    0.40
   0   5  14   -0.12    0.14
   0   5  14   -0.15    0.14
   0  -5  14    0.06    0.17
   0   5 -14    0.15    0.18
  -1   5 -14   48.62    1.97
  -1  -5  14   46.68    1.92
   1   5  14   47.06    1.89
   1   5  14   47.32    1.84
  -1   5  14   45.58    1.88
   1  -5  14   49.75    1.94
  -1   5  14   47.74    1.85
   1   5 -14   49.82    1.98
   2   5  14   14.43    0.67
  -2  -5  14   14.71    0.70
  -2   5  14   14.70    0.67
   2  -5  14   15.23    0.72
   2   5 -14   14.21    0.71
   2  -5  14   13.52    0.70
  -2   5  14   14.48    0.66
   3   5  14   32.18    1.34
  -3  -5  14   32.91    1.36
   3   5 -14   31.11    1.39
  -3   5  14   32.46    1.31
  -3   5  14   33.04    1.32
   3  -5  14   34.65    1.39
   3  -5  14   29.42    1.38
   4   5  14   28.75    1.22
   4   5 -14   27.49    1.27
   4  -5  14   29.55    1.27
   4  -5  14   28.91    1.26
  -4   5  14   28.65    1.20
   5   5  14    4.43    0.38
   5   5 -14    3.97    0.40
   5  -5  14    3.53    0.38
  -5   5  14    4.22    0.37
   5  -5  14    4.23    0.40
   6   5  14    3.06    0.34
   6  -5  14    3.37    0.38
   6  -5  14    3.31    0.37
  -6   5  14    3.08    0.35
   7   5  14   19.05    0.91
   7  -5  14   18.70    0.98
  -7   5  14   17.70    0.90
   7   5 -14   18.66    0.99
   8  -5  14   12.49    0.81
   8   5 -14   12.50    0.80
  -8   5  14   12.35    0.74
  -9   5  14    2.62    0.43
   0   5  15   40.65    1.62
   0   5 -15   41.04    1.73
   0  -5  15   42.36    1.71
   0   5  15   42.69    1.68
  -1  -5  15    0.74    0.21
  -1   5 -15    0.48    0.21
   1   5  15    0.81    0.19
  -1   5  15    0.78    0.20
  -1   5  15    0.77    0.19
   1  -5  15    0.48    0.20
   1   5 -15    0.38    0.18
  -2  -5  15    4.17    0.37
   2   5  15    4.75    0.35
  -2   5  15    4.05    0.34
  -2   5  15    4.96    0.36
   2  -5  15    4.68    0.40
   2   5 -15    4.59    0.39
   2  -5  15    4.98    0.38
  -3  -5  15   10.30    0.59
   3   5  15   10.28    0.57
  -3   5  15   10.58    0.55
   3  -5  15   10.14    0.58
  -3   5  15   10.97    0.55
   3   5 -15    9.95    0.60
   3  -5  15   10.64    0.62
   4   5  15   45.09    1.79
  -4   5  15   43.62    1.76
   4  -5  15   44.38    1.83
   4   5 -15   42.77    1.87
   4  -5  15   43.54    1.86
   5   5  15   14.02    0.72
  -5   5  15   13.14    0.70
   5   5 -15   13.23    0.76
   5  -5  15   14.31    0.76
   5  -5  15   13.79    0.75
   6   5  15    5.03    0.43
   6  -5  15    3.73    0.43
   6   5 -15    5.48    0.47
  -6   5  15    5.16    0.43
   6  -5  15    4.39    0.44
   7   5  15    9.02    0.59
  -7   5  15    7.38    0.57
   7  -5  15    8.11    0.62
   7   5 -15    7.99    0.63
   8  -5  15    0.83    0.38
   8   5 -15    1.02    0.32
  -8   5  15    0.58    0.28
   0  -5  16    0.06    0.22
   0   5  16    0.04    0.20
   0   5 -16    0.17    0.20
  -1   5 -16    0.33    0.22
   1   5  16    0.36    0.21
  -1  -5  16    0.60    0.21
  -1   5  16    0.21    0.18
   1   5 -16    0.61    0.22
   1  -5  16    0.43    0.21
  -1   5  16    0.42    0.21
   2   5  16    8.69    0.52
  -2  -5  16    7.36    0.51
  -2   5  16    8.58    0.51
  -2   5  16    8.94    0.48
   2  -5  16    9.30    0.58
   2  -5  16    8.70    0.53
   2   5 -16    9.11    0.54
  -3  -5  16   15.68    0.83
   3   5  16   17.95    0.82
   3   5 -16   17.82    0.86
  -3   5  16   17.36    0.81
  -3   5  16   17.19    0.80
   3  -5  16   18.32    0.88
   3  -5  16   16.33    0.84
   4   5  16   20.34    0.95
   4  -5  16   19.44    0.99
   4  -5  16   20.27    0.98
   4   5 -16   20.42    0.99
  -4   5  16   20.87    0.92
   5   5  16    0.60    0.27
   5  -5  16    0.18    0.26
   5   5 -16    0.62    0.28
  -5   5  16    0.48    0.25
   5  -5  16    0.25    0.26
   6   5  16   11.97    0.70
  -6   5  16   11.61    0.67
   6  -5  16   12.10    0.72
   6   5 -16   11.37    0.72
   6  -5  16   12.44    0.73
   7   5  16   13.68    0.77
  -7   5  16   14.26    0.77
   7  -5  16   11.93    0.80
   7   5 -16   14.44    0.84
  -8   5  16    0.71    0.33
   8  -5  16    0.60    0.37
   8   5 -16    0.23    0.34
   0   5  17    1.27    0.26
   0   5 -17    0.71    0.25
   0  -5  17    1.19    0.24
   1   5  17    2.81    0.32
  -1  -5  17    3.00    0.35
  -1   5 -17    2.86    0.33
   1   5 -17    3.03    0.33
  -1   5  17    2.70    0.31
   1  -5  17    3.16    0.36
  -2   5 -17    0.91    0.28
  -2  -5  17    0.10    0.20
   2   5  17    0.39    0.23
  -2   5  17    0.19    0.22
  -2   5  17    0.41    0.22
   2  -5  17    0.38    0.23
   2  -5  17    0.57    0.27
   2   5 -17    0.65    0.24
  -3  -5  17   17.83    0.88
   3   5  17   17.18    0.86
  -3   5  17   18.23    0.83
   3   5 -17   18.26    0.90
   3  -5  17   17.50    0.89
   3  -5  17   18.16    0.88
  -3   5  17   17.73    0.84
   4   5  17    3.98    0.38
   4  -5  17    5.05    0.43
   4   5 -17    3.98    0.41
  -4   5  17    4.98    0.40
   4  -5  17    5.49    0.48
   5   5  17    6.01    0.49
  -5   5  17    6.65    0.49
   5   5 -17    5.97    0.53
   5  -5  17    6.10    0.51
   5  -5  17    6.88    0.56
   6   5  17    5.17    0.46
   6   5 -17    4.89    0.47
  -6   5  17    4.49    0.43
   6  -5  17    4.55    0.46
   6  -5  17    4.88    0.49
   7   5  17   13.61    0.79
   7   5 -17   13.66    0.84
  -7   5  17   12.80    0.77
   7  -5  17   14.18    0.83
  -8   5  17    0.28    0.33
   0  -5  18    0.34    0.23
   0   5  18    0.26    0.25
   0   5 -18    0.35    0.25
  -1  -5  18   12.32    0.67
   1   5  18   12.66    0.67
  -1   5 -18   12.20    0.67
  -1   5  18   12.88    0.66
   1  -5  18   11.98    0.68
   1   5 -18   10.69    0.66
   2   5  18    6.30    0.51
  -2  -5  18    7.82    0.54
  -2   5 -18    7.18    0.54
  -2   5  18    7.31    0.50
   2   5 -18    6.53    0.50
   2  -5  18    7.50    0.52
   3   5  18    7.08    0.53
  -3  -5  18    7.13    0.54
   3   5 -18    7.25    0.53
   3  -5  18    6.52    0.54
  -3   5  18    5.85    0.48
   3  -5  18    7.86    0.55
   4   5  18   12.09    0.70
  -4   5  18   14.73    0.72
   4  -5  18   13.08    0.78
   4   5 -18   12.65    0.76
   4  -5  18   12.77    0.73
   5   5  18    2.93    0.37
   5  -5  18    2.94    0.39
   5  -5  18    3.11    0.43
  -5   5  18    3.71    0.38
   5   5 -18    3.45    0.41
   6   5  18   43.03    1.89
   6  -5  18   42.69    1.95
   6   5 -18   46.11    1.97
  -6   5  18   44.76    1.85
   6  -5  18   46.55    1.95
   7   5  18    1.89    0.38
  -7   5  18    1.59    0.35
   7   5 -18    1.34    0.39
   7  -5  18    1.57    0.39
   0  -5  19    1.11    0.28
   0   5 -19    0.85    0.30
   0   5  19    1.21    0.29
  -1  -5  19   14.39    0.79
   1   5  19   13.77    0.76
  -1   5 -19   14.15    0.76
   1   5 -19   13.10    0.77
   1  -5  19   14.27    0.80
  -1   5  19   15.43    0.76
  -2   5 -19    2.77    0.36
   2   5  19    2.83    0.36
  -2  -5  19    2.51    0.37
   2   5 -19    2.01    0.35
   2  -5  19    2.65    0.39
  -2   5  19    2.36    0.34
   3   5  19   30.34    1.33
  -3  -5  19   31.22    1.34
   3  -5  19   29.04    1.35
  -3   5  19   30.06    1.29
   3  -5  19   29.54    1.36
   3   5 -19   28.03    1.35
   4   5  19    0.01    0.28
   4  -5  19    0.01    0.26
   4   5 -19   -0.02    0.28
   4  -5  19    0.07    0.30
   5   5  19   10.28    0.67
   5  -5  19   11.52    0.78
  -5   5  19   10.65    0.64
   6   5  19    1.28    0.36
  -6   5  19    1.52    0.33
   6  -5  19    1.35    0.37
   7   5  19   13.38    0.85
  -7   5  19   14.32    0.81
   0   5  20    0.71    0.31
   0  -5  20    0.78    0.28
   1   5  20    8.52    0.57
  -1  -5  20    8.80    0.64
  -1   5  20    9.74    0.62
   1  -5  20    9.52    0.66
  -2  -5  20    3.18    0.41
   2   5  20    3.50    0.40
   2  -5  20    2.65    0.37
  -2   5  20    2.79    0.36
   3   5  20    0.52    0.31
  -3  -5  20    1.05    0.29
  -3   5  20    1.49    0.33
   3  -5  20    0.62    0.34
   4   5  20    3.07    0.39
   4  -5  20    3.04    0.44
   5   5  20    1.08    0.36
   5  -5  20    1.13    0.37
   6   5  20   40.34    1.78
   6  -5  20   40.28    1.82
   0  -5  21    4.92    0.49
   0   5  21    4.22    0.45
  -1  -5  21    9.90    0.70
   1   5  21   11.16    0.70
  -1   5  21   10.91    0.68
   1  -5  21   10.48    0.68
  -2  -5  21    1.10    0.33
   2   5  21    0.83    0.33
  -2   5  21    0.78    0.31
   2  -5  21    1.46    0.38
   3   5  21   22.76    1.12
  -3  -5  21   23.29    1.15
  -3   5  21   23.90    1.12
   3  -5  21   24.81    1.20
   4   5  21    1.92    0.39
   4  -5  21    1.01    0.37
   5   5  21    0.94    0.36
   5  -5  21    0.52    0.36
   0   5  22    0.07    0.32
   0  -5  22    0.35    0.33
  -1  -5  22    2.50    0.37
   1   5  22    1.77    0.39
  -1   5  22    2.68    0.40
   1  -5  22    1.79    0.40
   2   5  22    1.35    0.33
  -2  -5  22    1.49    0.36
   2  -5  22    1.44    0.39
  -2   5  22    1.49    0.35
   3   5  22   11.48    0.77
  -3  -5  22   12.16    0.77
   3  -5  22   12.62    0.82
  -3   5  22   11.47    0.73
   4   5  22   -0.11    0.35
   4  -5  22   -0.22    0.33
   0   5  23   17.05    0.95
   0  -5  23   17.20    0.97
   1   5  23    0.09    0.34
  -1  -5  23    0.31    0.35
  -1   5  23    0.27    0.35
   1  -5  23    0.73    0.36
   2   5  23    0.57    0.37
  -2  -5  23    0.61    0.35
  -2   5  23    1.06    0.35
   2  -5  23    0.72    0.37
  -3  -5  23    3.97    0.49
   3   5  23    4.96    0.54
   3  -5  23    4.84    0.53
   0   5  24    0.10    0.37
   0  -5  24   -0.15    0.29
  -1  -5  24    2.10    0.43
   1   5  24    2.50    0.45
  -1   5  24    2.64    0.44
   1  -5  24    2.64    0.46
   0  -6   0  237.46    9.26
   1  -6   0    0.08    0.06
   1   6   0    0.11    0.07
   2   6   0   11.18    0.50
  -2   6   0   11.87    0.47
   2  -6   0   10.38    0.49
   3   6   0    0.78    0.12
   3  -6   0    0.79    0.12
  -3   6   0    1.02    0.12
   3   6   0    0.88    0.12
   4   6   0    0.96    0.13
   4   6   0    0.75    0.15
   4  -6   0    1.01    0.14
  -4   6   0    1.24    0.15
   5   6   0   -0.13    0.15
   5  -6   0    0.69    0.16
   5   6   0    0.54    0.17
  -5   6   0    0.33    0.15
   6  -6   0   10.58    0.55
   6   6   0    9.89    0.47
  -6   6   0    9.43    0.49
   6   6   0    9.70    0.53
   7  -6   0    0.61    0.24
   7   6   0    0.35    0.19
  -7   6   0    0.94    0.21
   8  -6   0    1.32    0.31
  -8   6   0    0.97    0.25
   8   6   0    1.22    0.27
   9   6   0    0.06    0.28
   9  -6   0    0.04    0.29
  -9   6   0    0.14    0.25
  10   6   0    6.57    0.56
  10  -6   0    5.71    0.55
   0   6   1   -0.12    0.08
   0   6   1   -0.24    0.06
   0  -6   1   -0.20    0.07
   1   6   1   87.36    3.38
   1  -6  -1   87.13    3.38
   1  -6   1   87.08    3.39
   1   6  -1   86.43    3.39
  -1   6   1   84.52    3.23
   2  -6  -1    3.88    0.21
   2   6   1    3.62    0.21
  -2   6  -1    3.78    0.19
  -2   6   1    3.81    0.20
  -2   6   1    3.29    0.18
   2   6  -1    3.92    0.22
   3  -6  -1   49.28    2.30
  -3   6  -1   57.56    2.19
   3   6   1   60.94    2.21
   3   6   1   60.74    2.32
  -3   6   1   58.80    2.20
   3  -6   1   59.53    2.31
   3   6  -1   60.05    2.33
   4   6   1    1.62    0.17
   4   6   1    1.73    0.17
   4  -6  -1    2.30    0.20
  -4   6  -1    2.48    0.19
   4  -6   1    1.79    0.18
  -4   6   1    1.77    0.18
   4   6  -1    2.57    0.22
   4   6  -1    2.82    0.21
   5   6   1  171.85    6.20
   5   6   1  165.12    6.51
   5  -6  -1  156.14    6.50
  -5   6  -1  166.81    6.18
   5  -6   1  163.49    6.51
   5   6  -1  171.67    6.20
   5   6  -1  160.93    6.51
  -5   6   1  168.39    6.19
  -6   6  -1    4.37    0.30
   6   6   1    3.97    0.31
   6  -6  -1    4.16    0.35
   6   6   1    4.44    0.29
   6  -6   1    4.11    0.32
   6   6  -1    3.78    0.32
  -6   6   1    3.55    0.30
   6   6  -1    4.26    0.28
   7   6   1    6.90    0.46
   7  -6  -1    6.34    0.44
  -7   6  -1    6.04    0.41
  -7   6   1    6.21    0.42
   7  -6   1    7.23    0.45
   7   6  -1    6.15    0.44
  -8   6  -1    6.59    0.43
   8  -6  -1    5.51    0.48
   8   6   1    5.14    0.45
  -8   6   1    5.27    0.44
   8   6  -1    6.05    0.51
   8  -6   1    5.14    0.47
   9   6   1    3.98    0.41
   9  -6  -1    4.07    0.44
  -9   6   1    4.11    0.37
   9  -6   1    3.84    0.43
   9   6  -1    4.88    0.48
  10  -6  -1    1.70    0.37
  10   6   1    1.77    0.35
  10  -6   1    1.27    0.39
  10   6  -1    1.21    0.33
   0   6   2   94.80    3.81
   0  -6   2  100.40    3.84
   0   6   2   98.61    3.66
   1  -6  -2   68.85    2.73
   1   6   2   69.45    2.74
   1   6  -2   69.14    2.75
   1  -6   2   68.47    2.75
  -1   6   2   73.23    2.62
  -2   6  -2  106.62    4.01
   2  -6  -2  103.40    4.21
   2   6   2  107.02    4.22
  -2   6   2  110.62    4.02
   2   6  -2  111.34    4.24
  -2   6   2  107.80    4.01
   3   6   2    3.06    0.20
  -3   6  -2    3.14    0.19
   3   6   2    3.25    0.21
  -3   6   2    3.45    0.21
   3   6  -2    3.16    0.23
   3  -6   2    2.91    0.22
   4  -6  -2    3.01    0.25
  -4   6  -2    3.98    0.25
   4   6   2    3.90    0.26
   4   6   2    4.18    0.24
  -4   6   2    3.77    0.26
   4   6  -2    3.96    0.30
   4  -6   2    4.06    0.28
  -5   6  -2   80.67    3.08
   5   6   2   84.30    3.10
   5  -6  -2   79.95    3.26
   5   6   2   81.43    3.26
   5   6  -2   78.67    3.27
  -5   6   2   84.03    3.11
   5   6  -2   82.58    3.10
   5  -6   2   81.09    3.26
   6   6   2    6.39    0.39
  -6   6  -2    6.88    0.37
   6  -6  -2    6.37    0.40
   6   6   2    5.84    0.36
  -6   6   2    5.91    0.39
   6  -6   2    6.70    0.41
   6   6  -2    6.09    0.35
   6   6  -2    6.33    0.43
  -7   6  -2    1.50    0.22
   7   6   2    0.95    0.24
   7  -6  -2    1.37    0.24
  -7   6   2    1.45    0.24
   7  -6   2    0.74    0.25
   7   6  -2    1.34    0.25
  -8   6  -2    2.06    0.28
   8   6   2    1.41    0.30
   8  -6  -2    1.85    0.30
   8   6  -2    2.01    0.34
   8  -6   2    1.52    0.31
  -8   6   2    1.31    0.27
   9  -6  -2    0.05    0.30
   9   6   2    0.21    0.29
   9   6  -2    0.51    0.31
   9  -6   2    0.11    0.25
  -9   6   2    0.45    0.26
  10  -6  -2    8.90    0.70
  10   6   2    8.23    0.62
  10  -6   2    8.25    0.69
  10   6  -2    8.08    0.67
   0  -6   3    0.38    0.08
   0   6   3    0.59    0.05
   0   6   3    0.60    0.08
   1  -6  -3  417.36   16.17
   1   6   3  422.40   16.17
  -1   6   3  414.50   15.44
   1   6  -3  408.69   16.13
  -2   6  -3   10.55    0.41
   2   6   3   10.84    0.44
   2   6   3    9.64    0.44
   2  -6  -3   10.22    0.44
  -2   6   3    9.74    0.41
   2  -6   3    9.81    0.46
   2   6  -3   10.83    0.48
  -2   6   3   10.30    0.44
   3   6   3    3.05    0.20
   3   6   3    2.85    0.19
  -3   6  -3    2.66    0.18
   3   6  -3    2.87    0.24
  -3   6   3    2.89    0.19
   3  -6   3    3.47    0.22
  -4   6  -3   98.53    3.89
   4  -6  -3  106.29    4.11
   4   6   3  104.03    3.91
   4   6   3  102.53    4.10
   4  -6   3  102.76    3.88
   4  -6   3  107.20    4.11
   4   6  -3  105.78    4.13
  -4   6   3  105.00    3.92
   5   6   3   60.68    2.25
  -5   6  -3   59.59    2.24
   5   6   3   57.99    2.37
   5  -6  -3   59.46    2.38
   5  -6   3   57.91    2.38
   5   6  -3   57.05    2.39
  -5   6   3   57.92    2.26
   6   6   3   22.11    0.91
   6   6   3   22.06    0.98
   6  -6  -3   23.15    1.00
  -6   6  -3   22.75    0.92
   6  -6   3   22.08    1.01
   6   6  -3   19.48    1.00
  -6   6   3   22.83    0.95
   6   6  -3   21.94    0.91
   7   6   3    1.48    0.25
   7  -6  -3    0.77    0.24
   7   6   3    0.91    0.19
  -7   6  -3    1.07    0.21
   7   6  -3    0.88    0.26
   7  -6   3    1.32    0.27
  -7   6   3    1.25    0.22
   8  -6  -3   59.15    2.55
   8   6   3   62.24    2.53
   8  -6   3   59.52    2.54
  -8   6   3   59.20    2.39
   8   6  -3   62.67    2.55
   9  -6  -3    1.88    0.38
   9   6   3    2.08    0.36
   9   6  -3    2.18    0.35
  -9   6   3    2.23    0.34
   9  -6   3    2.37    0.38
  10   6   3    0.44    0.34
  10  -6  -3    0.20    0.30
  10  -6   3    0.57    0.36
 -10   6   3    0.26    0.31
  10   6  -3    0.41    0.36
   0   6   4   80.01    3.06
   0   6   4   77.73    2.96
   1   6   4  145.90    5.72
   1   6   4  133.31    5.49
   1  -6  -4  149.97    5.72
   1   6  -4  139.49    5.75
  -1   6   4  167.79    5.49
  -2   6  -4   80.19    3.05
   2   6   4   83.01    3.09
   2   6   4   89.72    3.21
   2  -6  -4   85.71    3.21
  -2   6   4   80.69    3.06
   2  -6   4   71.99    3.08
   2   6  -4   82.60    3.25
  -3   6  -4   38.18    1.45
   3   6   4   39.31    1.48
   3   6   4   39.75    1.54
  -3   6   4   38.09    1.44
   3  -6   4   39.13    1.47
   3   6  -4   39.36    1.57
  -3   6   4   37.59    1.48
   3  -6   4   34.33    1.55
   4   6   4   11.47    0.52
   4  -6  -4   10.29    0.53
   4   6   4   10.91    0.51
  -4   6  -4   12.23    0.49
   4  -6   4    9.90    0.53
   4  -6   4   12.39    0.48
  -4   6   4   11.99    0.53
   4   6  -4   11.55    0.56
   5  -6  -4   51.34    2.12
  -5   6  -4   53.76    1.99
   5   6   4   50.79    2.11
   5   6   4   51.81    2.01
  -5   6   4   52.74    2.03
   6   6   4    8.40    0.48
   6   6   4    8.21    0.43
   6  -6  -4    8.59    0.50
  -6   6  -4    8.71    0.43
   6   6  -4    9.02    0.45
  -6   6   4    8.39    0.48
   7  -6  -4    6.01    0.46
   7   6   4    6.43    0.42
   7   6   4    6.06    0.38
   7  -6   4    6.05    0.47
   7   6  -4    6.59    0.49
  -7   6   4    6.79    0.44
   8   6   4    6.26    0.49
   8  -6  -4    4.89    0.47
  -8   6   4    5.86    0.43
   8   6  -4    5.62    0.49
   8  -6   4    6.34    0.52
   9   6   4    1.88    0.35
   9  -6  -4    1.47    0.35
  -9   6   4    1.41    0.33
   9   6  -4    1.84    0.37
   9  -6   4    1.14    0.31
  10   6   4    2.54    0.41
  10  -6  -4    2.17    0.44
 -10   6   4    2.38    0.39
  10   6  -4    2.48    0.44
  10  -6   4    2.99    0.42
   0   6   5    0.67    0.09
   1   6   5  281.76   10.12
   1  -6  -5  270.38   10.57
   1   6   5  257.05   10.56
  -1   6   5  279.91   10.10
   2   6   5    3.88    0.19
   2   6   5    3.88    0.21
   2  -6  -5    3.52    0.19
  -2   6   5    2.78    0.20
  -2   6   5    3.67    0.18
   3   6   5   17.63    0.72
   3   6   5   16.62    0.72
  -3   6  -5   17.69    0.68
  -3   6   5   17.23    0.67
   4  -6  -5   38.35    1.71
   4   6   5   44.93    1.64
  -4   6  -5   45.95    1.61
   4   6   5   43.46    1.71
  -4   6   5   37.95    1.64
  -5   6   5   14.33    0.64
   6   6   5    0.95    0.20
   6   6   5    1.09    0.17
   6  -6  -5    0.92    0.21
   6   6  -5    0.89    0.19
  -6   6   5    0.90    0.22
   6  -6   5    0.41    0.15
   7  -6  -5    9.76    0.59
   7   6   5    9.82    0.50
   7   6   5   10.08    0.57
   7   6  -5   10.72    0.60
   7  -6   5    9.25    0.57
  -7   6   5    9.48    0.55
   8  -6  -5   48.78    2.07
   8   6   5   47.99    2.04
  -8   6   5   46.36    1.93
   8   6  -5   48.61    2.07
   8  -6   5   48.45    2.06
   9   6   5    0.54    0.25
   9  -6  -5    0.35    0.32
  -9   6   5    0.66    0.30
   9  -6   5    0.66    0.28
   9   6  -5    0.60    0.33
  10  -6  -5    0.85    0.37
  10   6   5    0.94    0.31
 -10   6   5    0.90    0.34
  10   6  -5    1.22    0.39
  10  -6   5    1.08    0.34
   0   6   6   42.63    1.58
   0  -6   6   40.96    1.60
   0   6  -6   40.26    1.66
   1  -6  -6   94.68    3.62
   1   6   6   86.87    3.61
   1   6   6   91.65    3.50
  -1   6   6   94.99    3.49
   1   6  -6   86.59    3.67
   1  -6   6   99.60    3.68
   1  -6   6   94.98    3.52
  -1   6   6   95.89    3.49
   2  -6  -6  106.26    4.73
   2   6   6  123.77    4.55
   2   6   6  122.59    4.72
  -2   6   6  122.55    4.53
   2   6  -6  119.96    4.78
   2  -6   6  129.47    4.57
   2  -6   6  125.25    4.77
  -2   6   6  121.72    4.53
   3   6   6    1.67    0.15
  -3   6  -6    1.86    0.12
   3   6   6    1.84    0.16
   3  -6   6    2.01    0.17
   3   6  -6    1.88    0.20
   3  -6   6    1.79    0.20
  -3   6   6    1.70    0.13
  -3   6   6    1.87    0.18
   4   6   6   77.71    3.05
   4  -6  -6   75.29    3.06
   4   6   6   77.05    2.93
  -4   6  -6   78.80    2.88
   4   6  -6   69.84    3.09
   4  -6   6   82.94    2.93
   4  -6   6   77.53    3.09
   6  -6  -6   18.36    0.88
   6   6   6   18.71    0.86
   6   6   6   18.66    0.81
  -6   6   6   18.48    0.83
   6   6  -6   19.59    0.91
   6  -6   6   18.14    0.89
   7   6   6   27.59    1.12
   7   6   6   27.24    1.20
   7  -6  -6   23.79    1.21
  -7   6   6   27.40    1.16
   7  -6   6   27.83    1.22
   7   6  -6   27.31    1.25
   8  -6  -6   13.74    0.78
   8   6   6   13.34    0.75
  -8   6   6   15.86    0.75
   8   6  -6   12.79    0.77
   8  -6   6   13.76    0.79
   9  -6  -6    0.56    0.31
   9   6   6    0.65    0.30
   9   6  -6    0.99    0.31
   9  -6   6    0.51    0.28
  -9   6   6    1.25    0.29
  10   6   6    0.15    0.29
  10  -6  -6   -0.38    0.32
  10  -6   6    0.19    0.34
  10   6  -6    0.01    0.35
 -10   6   6    0.23    0.32
   0   6   7    0.58    0.11
   0  -6   7    0.49    0.13
   0   6  -7    0.43    0.14
   1   6   7   44.45    1.72
   1   6   7   42.33    1.70
   1  -6  -7   46.00    1.72
  -1   6   7   45.10    1.69
   1  -6   7   45.06    1.72
  -1   6   7   42.93    1.68
   1   6  -7   43.33    1.79
   1  -6   7   44.03    1.79
   2  -6  -7   15.89    0.68
   2   6   7   16.63    0.68
   2   6   7   15.65    0.69
  -2   6   7   16.56    0.67
   2  -6   7   17.47    0.74
  -2   6   7   16.74    0.69
   2  -6   7   17.00    0.71
   2   6  -7   17.14    0.74
   3   6   7   61.73    2.51
   3   6   7   64.33    2.44
   3  -6   7   66.26    2.57
   3  -6   7   65.17    2.45
   3   6  -7   63.69    2.57
  -3   6   7   63.13    2.43
  -3   6   7   62.25    2.40
   4   6   7  144.53    5.39
   4   6   7  146.88    5.62
   4  -6  -7  138.00    5.63
   4   6  -7  144.23    5.67
   4  -6   7  147.88    5.39
   4  -6   7  138.71    5.65
   5   6   7    3.51    0.28
   5   6   7    3.79    0.28
   5  -6  -7    3.99    0.30
   5  -6   7    2.88    0.28
   5   6  -7    4.23    0.36
   5  -6   7    4.12    0.27
   6   6   7   18.49    0.82
   6   6   7   19.73    0.87
   6  -6  -7   19.74    0.90
   6   6  -7   19.21    0.93
  -6   6   7   18.19    0.84
   6  -6   7   18.95    0.90
   7   6   7    1.18    0.26
   7  -6  -7    1.46    0.28
   7   6   7    1.39    0.24
  -7   6   7    1.43    0.24
   7  -6   7    2.19    0.32
   7   6  -7    1.72    0.32
   8   6   7   29.95    1.37
   8  -6  -7   31.44    1.42
   8  -6   7   28.26    1.40
  -8   6   7   31.79    1.33
   8   6  -7   32.83    1.44
   9   6   7   -0.34    0.27
   9  -6  -7   -0.07    0.28
   9   6  -7   -0.11    0.32
  -9   6   7    0.16    0.29
   9  -6   7    0.64    0.34
  10   6   7    6.60    0.59
  10  -6  -7    6.76    0.62
  10   6  -7    6.91    0.62
 -10   6   7    7.05    0.56
  10  -6   7    6.33    0.62
   0   6   8   81.50    3.10
   0   6  -8   84.70    3.26
   0  -6   8   80.40    3.14
   1   6   8   28.26    1.17
   1   6   8   30.05    1.16
   1  -6  -8   29.70    1.16
  -1  -6   8   29.83    1.20
   1  -6   8   28.87    1.19
  -1   6   8   31.20    1.17
   1   6  -8   29.80    1.24
   1  -6   8   29.59    1.24
  -1   6   8   28.83    1.15
   2   6   8    3.41    0.24
   2  -6  -8    4.31    0.22
   2   6   8    3.78    0.21
  -2   6   8    4.18    0.26
  -2   6   8    3.58    0.23
   2  -6   8    4.73    0.28
   2   6  -8    4.60    0.28
   2  -6   8    4.46    0.27
   3   6   8   17.40    0.75
   3   6   8   18.52    0.75
  -3   6   8   16.99    0.74
  -3   6   8   17.96    0.72
   3  -6   8   17.26    0.80
   3   6  -8   16.80    0.80
   3  -6   8   19.46    0.78
   4  -6  -8    5.99    0.36
   4   6   8    6.96    0.36
   4   6   8    6.83    0.36
   4  -6   8    7.34    0.42
   4  -6   8    6.91    0.38
   4   6  -8    6.64    0.41
  -4   6   8    7.24    0.38
   5   6   8   69.02    2.72
   5   6   8   72.99    2.84
   5  -6  -8   72.18    2.85
   5   6  -8   72.74    2.89
   5  -6   8   67.07    2.86
   5  -6   8   71.86    2.72
  -5   6   8   69.32    2.72
   6  -6  -8    0.56    0.19
   6   6   8    0.76    0.21
   6   6   8    0.73    0.19
   6  -6   8    0.70    0.24
   6   6  -8    0.93    0.24
  -6   6   8    0.91    0.23
   7   6   8   50.74    2.01
   7  -6  -8   51.00    2.15
   7   6   8   50.16    2.11
   7  -6   8   52.29    2.16
   7   6  -8   49.29    2.15
  -7   6   8   51.02    2.03
   8  -6  -8    6.58    0.54
   8   6   8    6.90    0.52
   8   6  -8    6.91    0.54
   8  -6   8    6.55    0.52
  -8   6   8    6.64    0.51
   9   6   8   12.52    0.78
   9  -6  -8   13.11    0.82
   9  -6   8   14.26    0.85
   9   6  -8   14.22    0.82
  -9   6   8   14.42    0.77
  10  -6  -8   -0.42    0.32
  10   6   8    0.42    0.34
 -10   6   8    0.67    0.34
   0   6  -9    0.15    0.12
   0  -6   9    0.10    0.11
   0   6   9    0.22    0.11
   1  -6  -9    6.90    0.30
  -1  -6   9    7.05    0.38
   1   6   9    7.25    0.35
   1   6   9    7.24    0.30
   1  -6   9    7.40    0.38
   1   6  -9    6.19    0.37
   1  -6   9    7.43    0.40
  -1   6   9    6.66    0.34
  -1   6   9    6.58    0.35
   2  -6  -9   62.61    2.20
   2   6   9   54.90    2.18
   2  -6   9   52.77    2.16
   2  -6   9   53.86    2.24
   2   6  -9   53.29    2.25
  -2   6   9   56.57    2.12
  -2   6   9   54.09    2.12
   3   6   9   37.28    1.43
   3   6   9   37.42    1.45
   3  -6   9   33.81    1.45
   3  -6   9   33.47    1.50
  -3   6   9   35.97    1.42
  -3   6   9   37.92    1.40
   3   6  -9   36.69    1.52
   4   6   9   51.98    2.02
   4  -6  -9   48.80    2.04
   4   6   9   50.45    1.96
   4  -6   9   48.33    1.98
   4  -6   9   48.22    2.06
   4   6  -9   52.74    2.09
  -4   6   9   51.42    1.97
   5   6   9    3.12    0.26
   5   6   9    2.83    0.26
   5  -6  -9    3.17    0.28
   5  -6   9    2.68    0.25
   5  -6   9    2.87    0.30
  -5   6   9    2.65    0.26
   5   6  -9    3.70    0.34
   6   6   9   17.32    0.82
   6   6   9   17.69    0.79
   6  -6  -9   17.20    0.83
   6   6  -9   18.42    0.90
   6  -6   9   17.21    0.85
  -6   6   9   16.77    0.80
   7   6   9    7.74    0.49
   7   6   9    8.01    0.51
   7  -6  -9    7.49    0.53
  -7   6   9    7.85    0.52
   7   6  -9    7.83    0.58
   7  -6   9    9.05    0.58
   8  -6  -9   29.61    1.41
   8   6   9   30.12    1.38
  -8   6   9   30.86    1.33
   8  -6   9   31.20    1.44
   8   6  -9   31.13    1.44
   9   6   9    1.74    0.36
   9  -6  -9    1.87    0.37
   9  -6   9    1.72    0.40
  -9   6   9    1.97    0.36
   9   6  -9    1.58    0.36
  10  -6  -9    7.76    0.67
  10   6   9    8.22    0.67
 -10   6   9    8.46    0.65
   0   6  10   84.11    3.21
   0   6 -10   85.30    3.37
  -1  -6  10    0.42    0.16
   1   6  10    0.35    0.12
  -1   6  10    0.51    0.12
   1   6 -10    0.42    0.14
   1  -6  10    0.56    0.16
   1  -6  10    0.36    0.15
  -1   6  10    0.38    0.12
   2  -6 -10   40.48    1.62
  -2  -6  10   40.27    1.61
   2   6  10   41.22    1.61
   2  -6  10   40.12    1.62
   2   6 -10   39.62    1.67
  -2   6  10   40.86    1.58
  -2   6  10   40.27    1.56
   2  -6  10   39.78    1.66
   3   6  10   30.45    1.22
   3   6  10   31.69    1.23
  -3   6  10   31.22    1.19
  -3   6  10   29.48    1.22
   3  -6  10   28.35    1.24
   3   6 -10   29.86    1.29
   3  -6  10   29.76    1.29
   4  -6 -10   14.05    0.61
   4   6  10   13.13    0.59
   4   6  10   12.32    0.59
   4  -6  10   12.39    0.63
   4  -6  10   11.56    0.62
   4   6 -10   12.21    0.64
  -4   6  10   13.05    0.61
   5  -6 -10   22.32    0.98
   5   6  10   22.08    0.95
   5   6  10   21.78    0.93
   5   6 -10   22.32    1.02
   5  -6  10   20.88    1.00
   5  -6  10   20.29    0.94
  -5   6  10   21.93    0.95
   6  -6 -10   14.58    0.76
   6   6  10   15.39    0.74
   6   6  10   15.02    0.72
  -6   6  10   15.49    0.73
   6  -6  10   15.57    0.80
   6   6 -10   14.65    0.81
   7   6  10   45.22    1.95
   7   6  10   48.09    1.88
   7  -6 -10   46.10    1.99
   7  -6  10   47.58    2.02
  -7   6  10   46.10    1.89
   7   6 -10   46.64    2.02
   8  -6 -10    0.19    0.26
   8   6  10    0.52    0.29
  -8   6  10    0.66    0.25
   8  -6  10    0.63    0.32
   8   6 -10    0.04    0.27
   9  -6  10    5.59    0.56
  -9   6  10    6.44    0.52
   9   6 -10    6.12    0.55
 -10   6  10    5.56    0.53
   0   6  11    0.60    0.13
   0   6 -11    0.49    0.15
  -1  -6  11   31.03    1.32
   1   6  11   32.88    1.29
  -1   6  11   33.15    1.29
   1  -6  11   33.48    1.34
  -1   6  11   32.28    1.28
   1   6 -11   32.17    1.36
   1  -6  11   31.89    1.37
  -2  -6  11   19.33    0.82
  -2   6  11   18.00    0.77
   2   6 -11   18.71    0.83
  -2   6  11   19.12    0.78
   2  -6  11   16.83    0.82
   2  -6  11   18.07    0.83
   3   6  11    7.17    0.42
   3   6 -11    8.05    0.47
  -3   6  11    7.99    0.39
  -3   6  11    7.09    0.39
   3  -6  11    6.83    0.42
   3  -6  11    7.46    0.45
   4   6  11    3.20    0.28
  -4   6  11    3.31    0.29
   4   6 -11    3.10    0.32
   4  -6  11    3.21    0.30
   4  -6  11    3.72    0.32
   5   6  11    6.08    0.40
   5   6 -11    5.95    0.43
   5  -6  11    5.30    0.39
  -5   6  11    6.24    0.42
   5  -6  11    5.77    0.42
   6   6  11   82.96    3.17
  -6   6  11   80.17    3.17
   6  -6  11   82.09    3.34
   6   6 -11   82.51    3.36
   7   6  11   13.19    0.67
   7  -6  11   13.39    0.76
  -7   6  11   13.03    0.70
   7   6 -11   12.36    0.74
  -8   6  11   15.84    0.79
   8   6 -11   15.10    0.86
   8  -6  11   15.35    0.89
  -9   6  11    2.31    0.35
   9   6 -11    2.21    0.43
   9  -6  11    2.67    0.46
 -10   6  11   15.62    0.90
   0   6  12   12.93    0.59
   0   6  12   13.13    0.59
   0   6 -12   13.22    0.64
   1   6  12    0.13    0.13
  -1  -6  12    0.34    0.15
  -1   6  12    0.16    0.14
  -1   6  12    0.38    0.15
   1  -6  12    0.38    0.16
   1   6 -12    0.05    0.15
   1  -6  12    0.29    0.17
  -2  -6  12   99.63    3.69
   2  -6  12   92.18    3.69
   2   6 -12   99.26    3.83
  -2   6  12   93.02    3.63
  -2   6  12   98.27    3.64
   2  -6  12   93.44    3.83
   3   6  12   35.90    1.44
  -3   6  12   35.17    1.42
   3  -6  12   35.75    1.52
   3   6 -12   34.64    1.51
   3  -6  12   35.63    1.48
  -3   6  12   36.83    1.41
   4   6  12    1.29    0.20
  -4   6  12    0.63    0.21
   4   6 -12    0.86    0.21
   4  -6  12    0.73    0.20
   4  -6  12    0.65    0.20
   5   6  12   11.30    0.59
   5  -6  12   10.66    0.60
   5  -6  12   11.55    0.64
  -5   6  12   11.72    0.61
   5   6 -12   11.19    0.63
   6   6  12    4.15    0.36
  -6   6  12    4.81    0.40
   6  -6  12    3.56    0.38
   6   6 -12    4.38    0.43
   7   6  12   33.01    1.41
  -7   6  12   32.66    1.42
   7   6 -12   34.44    1.53
   7  -6  12   32.90    1.51
  -8   6  12    2.92    0.35
   8   6 -12    2.59    0.42
   8  -6  12    2.44    0.37
   9  -6  12    8.62    0.67
  -9   6  12    9.84    0.66
   9   6 -12    8.42    0.66
   0   6 -13    0.71    0.20
   0   6  13    0.87    0.18
   0   6  13    0.45    0.17
  -1   6 -13   28.00    1.20
   1   6  13   28.16    1.15
  -1  -6  13   28.27    1.19
  -1   6  13   28.88    1.14
  -1   6  13   26.32    1.12
   1   6 -13   28.20    1.21
   1  -6  13   27.89    1.20
   1  -6  13   27.49    1.21
   2   6  13   26.78    1.23
  -2  -6  13   31.38    1.28
   2  -6  13   31.54    1.29
  -2   6  13   30.66    1.22
   2  -6  13   30.60    1.30
  -2   6  13   29.77    1.22
   2   6 -13   30.53    1.31
   3   6  13    6.45    0.42
   3   6 -13    6.55    0.43
  -3   6  13    6.54    0.39
  -3   6  13    6.40    0.40
   3  -6  13    6.43    0.44
   3  -6  13    6.84    0.46
   4   6  13    0.62    0.22
   4   6 -13    0.26    0.24
  -4   6  13    0.43    0.19
   4  -6  13    0.57    0.23
   4  -6  13    0.20    0.20
   5   6  13    3.83    0.33
   5  -6  13    4.16    0.39
  -5   6  13    3.98    0.36
   5  -6  13    3.84    0.37
   5   6 -13    3.66    0.36
   6   6  13   64.59    2.53
   6   6 -13   60.88    2.67
  -6   6  13   64.30    2.53
   6  -6  13   66.09    2.67
   7   6  13   16.36    0.81
   7  -6  13   15.55    0.89
  -7   6  13   15.15    0.79
   7   6 -13   17.32    0.91
  -8   6  13    7.22    0.56
   8  -6  13    5.66    0.53
   8   6 -13    5.87    0.55
  -9   6  13    0.28    0.29
   0   6  14   20.04    0.90
   0   6  14   21.14    0.88
   0  -6  14   20.20    0.95
   0   6 -14   22.33    0.96
  -1   6 -14   23.12    1.01
  -1  -6  14   23.46    1.02
   1   6  14   22.30    0.96
   1  -6  14   22.11    1.02
   1   6 -14   23.35    1.02
  -1   6  14   22.13    0.96
  -1   6  14   21.94    0.94
  -2  -6  14   44.59    1.83
   2   6  14   44.73    1.80
   2  -6  14   43.84    1.89
   2   6 -14   46.04    1.90
   2  -6  14   46.42    1.85
  -2   6  14   46.12    1.79
  -2   6  14   45.65    1.78
   3   6  14   19.97    0.92
  -3   6  14   20.93    0.89
  -3   6  14   22.48    0.91
   3  -6  14   19.71    0.96
   3   6 -14   20.66    0.97
   3  -6  14   19.98    0.96
   4   6  14    1.25    0.26
   4   6 -14    1.58    0.29
   4  -6  14    1.45    0.28
   4  -6  14    1.28    0.28
  -4   6  14    1.85    0.27
   5   6  14    0.69    0.21
   5  -6  14    0.49    0.23
  -5   6  14    0.60    0.24
   5   6 -14    0.17    0.26
   5  -6  14    0.50    0.23
   6   6  14    0.42    0.25
   6   6 -14    0.35    0.29
  -6   6  14    0.33    0.26
   6  -6  14    1.13    0.31
   7   6  14   11.90    0.68
  -7   6  14   12.24    0.69
   7   6 -14   11.37    0.76
   7  -6  14   11.99    0.75
   8  -6  14    3.32    0.43
  -8   6  14    3.53    0.42
   8   6 -14    2.78    0.43
  -9   6  14   12.41    0.78
   0  -6  15    0.19    0.21
   0   6  15    0.30    0.16
   0   6 -15    0.26    0.21
   0   6  15    0.27    0.19
   1   6  15   29.66    1.24
  -1   6 -15   30.32    1.34
  -1  -6  15   30.68    1.32
   1   6  15   30.32    1.28
   1  -6  15   32.89    1.35
  -1   6  15   32.06    1.28
  -1   6  15   32.10    1.25
   1   6 -15   29.94    1.34
  -2  -6  15   27.74    1.21
   2   6  15   27.08    1.17
   2  -6  15   27.67    1.23
   2   6 -15   29.66    1.25
   2  -6  15   26.30    1.23
  -2   6  15   29.03    1.17
  -2   6  15   27.50    1.15
   3   6  15    4.78    0.41
  -3  -6  15    4.84    0.41
  -3   6  15    5.04    0.38
   3   6 -15    5.14    0.40
  -3   6  15    5.02    0.37
   3  -6  15    5.07    0.43
   3  -6  15    4.81    0.41
   4   6  15    0.39    0.24
   4   6 -15    0.26    0.25
   4  -6  15    0.05    0.24
   4  -6  15    0.23    0.24
  -4   6  15    0.28    0.23
   5   6  15   16.79    0.83
  -5   6  15   15.38    0.80
   5   6 -15   17.17    0.88
   5  -6  15   17.20    0.87
   5  -6  15   16.82    0.86
   6   6  15   53.07    2.15
   6   6 -15   54.76    2.27
  -6   6  15   52.62    2.14
   6  -6  15   51.69    2.26
   7   6  15    0.13    0.28
  -7   6  15    0.68    0.31
   7  -6  15    0.26    0.28
   7   6 -15    0.11    0.32
  -8   6  15    3.76    0.45
   8   6 -15    4.96    0.52
   8  -6  15    4.04    0.50
   0  -6  16  139.82    5.28
   0   6 -16  138.93    5.47
   0   6  16  137.96    5.17
   0   6  16  134.55    5.23
  -1  -6  16    6.78    0.46
   1   6  16    7.20    0.46
  -1   6 -16    6.04    0.46
  -1   6  16    6.27    0.44
   1   6 -16    6.75    0.47
   1  -6  16    7.07    0.48
  -1   6  16    7.01    0.42
   2   6  16   79.53    3.10
  -2  -6  16   80.98    3.14
  -2   6  16   79.26    3.06
   2  -6  16   81.52    3.15
   2  -6  16   76.84    3.24
  -2   6  16   79.80    3.09
   2   6 -16   81.78    3.25
   3   6  16   11.17    0.62
  -3  -6  16   10.98    0.64
   3   6 -16   10.40    0.62
  -3   6  16   11.42    0.59
   3  -6  16   11.88    0.64
  -3   6  16   11.31    0.60
   3  -6  16   10.90    0.64
   4   6  16   45.31    1.81
   4   6 -16   45.38    1.89
  -4   6  16   43.07    1.77
   4  -6  16   44.79    1.86
   4  -6  16   40.94    1.87
   5   6  16    3.71    0.38
   5   6 -16    3.66    0.41
  -5   6  16    3.79    0.36
   5  -6  16    3.38    0.40
   5  -6  16    3.51    0.40
   6   6  16    5.23    0.46
   6  -6  16    5.61    0.50
   6  -6  16    5.53    0.49
  -6   6  16    4.80    0.44
   6   6 -16    4.56    0.47
   7   6  16    6.49    0.53
  -7   6  16    6.95    0.56
   7   6 -16    6.95    0.61
   7  -6  16    6.47    0.55
   8   6 -16   -0.24    0.33
   8  -6  16   -0.13    0.35
  -8   6  16   -0.09    0.31
   0   6  17    0.35    0.20
   0  -6  17    0.26    0.25
   0   6 -17    0.04    0.24
   1   6  17   56.06    2.28
  -1  -6  17   55.81    2.31
  -1   6 -17   57.33    2.38
   1   6 -17   58.05    2.38
   1  -6  17   59.77    2.34
  -1   6  17   58.23    2.28
   2   6  17    4.21    0.38
  -2  -6  17    4.55    0.41
  -2   6 -17    4.78    0.40
   2  -6  17    4.59    0.43
  -2   6  17    4.25    0.36
   2   6 -17    4.81    0.39
  -2   6  17    4.82    0.39
   2  -6  17    4.12    0.37
  -3  -6  17   84.07    3.25
   3   6  17   80.01    3.22
   3  -6  17   84.20    3.37
  -3   6  17   81.54    3.20
  -3   6  17   84.14    3.19
   3  -6  17   81.97    3.27
   3   6 -17   82.44    3.37
   4   6  17    2.64    0.35
   4  -6  17    2.10    0.35
   4  -6  17    2.27    0.33
   4   6 -17    1.98    0.34
  -4   6  17    2.16    0.32
   5   6  17   14.73    0.82
  -5   6  17   14.92    0.79
   5   6 -17   16.91    0.87
   5  -6  17   15.72    0.86
   5  -6  17   15.96    0.85
   6   6  17   17.22    0.90
   6  -6  17   18.59    0.94
   6  -6  17   15.47    0.89
   6   6 -17   18.86    0.95
  -6   6  17   16.69    0.87
   7   6  17    7.46    0.58
   7   6 -17    5.71    0.55
  -7   6  17    5.73    0.48
   7  -6  17    6.92    0.58
   0  -6  18  131.52    5.21
   0   6  18  132.31    5.16
   0   6 -18  142.18    5.40
   1   6  18   15.11    0.74
  -1   6 -18   14.44    0.77
  -1  -6  18   14.63    0.80
   1   6 -18   13.57    0.77
  -1   6  18   15.27    0.75
   1  -6  18   15.45    0.81
  -2  -6  18   12.11    0.69
   2   6  18   10.56    0.64
  -2   6 -18   11.35    0.66
  -2   6  18   11.07    0.63
   2  -6  18   11.03    0.70
   2   6 -18   11.04    0.66
  -3  -6  18    2.59    0.36
   3   6  18    2.12    0.33
  -3   6  18    2.59    0.33
  -3   6  18    2.33    0.31
   3  -6  18    2.15    0.33
   3   6 -18    2.30    0.35
   3  -6  18    2.29    0.35
   4   6  18   66.80    2.68
   4   6 -18   69.06    2.81
   4  -6  18   65.77    2.73
   4  -6  18   67.37    2.79
  -4   6  18   67.09    2.64
   5   6  18    1.37    0.29
   5   6 -18    1.37    0.35
   5  -6  18    1.33    0.33
   5  -6  18    0.88    0.32
  -5   6  18    0.93    0.31
   6   6  18    0.44    0.31
   6  -6  18    0.83    0.34
   6   6 -18    0.56    0.33
  -6   6  18    0.52    0.30
   6  -6  18    0.40    0.31
   7   6  18    0.20    0.31
   7  -6  18    0.29    0.35
  -7   6  18   -0.42    0.30
   7   6 -18    0.18    0.30
   0   6  19   -0.01    0.21
   0  -6  19    0.12    0.24
   0   6 -19    0.40    0.29
  -1  -6  19   20.94    1.04
   1   6  19   21.04    1.00
  -1   6 -19   20.97    1.02
   1   6 -19   21.48    1.03
  -1   6  19   20.25    0.98
   1  -6  19   22.50    1.06
  -2  -6  19    0.54    0.29
   2   6  19    0.27    0.27
  -2   6 -19    0.77    0.30
   2   6 -19    0.43    0.27
  -2   6  19    0.61    0.27
   2  -6  19    0.30    0.29
  -3  -6  19   32.48    1.46
   3   6  19   32.81    1.45
   3   6 -19   32.56    1.51
   3  -6  19   33.15    1.49
   3  -6  19   33.62    1.50
  -3   6  19   34.27    1.43
   4   6  19    5.15    0.47
   4   6 -19    4.69    0.46
   4  -6  19    4.56    0.46
   4  -6  19    4.32    0.48
   5   6  19    0.87    0.33
   5  -6  19    0.92    0.33
   5  -6  19    0.84    0.34
  -5   6  19    1.26    0.31
   5   6 -19    1.15    0.35
   6   6  19    1.74    0.38
   6  -6  19    1.67    0.38
   6  -6  19    1.29    0.37
  -6   6  19    1.25    0.33
   6   6 -19    1.40    0.37
   0   6  20   85.07    3.34
   0  -6  20   85.23    3.38
   1   6  20    2.25    0.35
  -1  -6  20    2.31    0.38
   1  -6  20    2.00    0.37
  -1   6  20    1.72    0.34
  -2  -6  20    2.36    0.35
   2   6  20    2.64    0.38
   2  -6  20    2.61    0.37
  -2   6  20    2.55    0.37
  -3  -6  20    4.08    0.46
   3   6  20    4.82    0.47
  -3   6  20    4.49    0.44
   3  -6  20    5.34    0.52
   4   6  20   26.51    1.27
   4  -6  20   28.22    1.33
   5   6  20    2.20    0.40
   5  -6  20    1.86    0.40
   6   6  20    5.79    0.55
   6  -6  20    5.49    0.58
  -6   6  20    5.27    0.51
   0  -6  21    0.03    0.26
   0   6  21    0.48    0.32
   1   6  21   15.52    0.84
  -1  -6  21   16.81    0.91
  -1   6  21   15.92    0.86
   1  -6  21   16.63    0.92
  -2  -6  21    6.00    0.55
   2   6  21    6.55    0.54
   2  -6  21    6.32    0.58
  -2   6  21    6.76    0.54
  -3  -6  21   23.39    1.16
   3   6  21   24.22    1.16
   3  -6  21   25.63    1.22
  -3   6  21   21.53    1.13
   4   6  21    4.38    0.49
   4  -6  21    4.49    0.52
   5   6  21    1.15    0.34
   5  -6  21    0.45    0.37
   0   6  22   27.37    1.29
   0  -6  22   28.02    1.33
   1   6  22   -0.35    0.30
  -1  -6  22    0.13    0.33
   1  -6  22    0.09    0.32
  -1   6  22    0.31    0.32
  -2  -6  22    0.43    0.34
   2   6  22    0.43    0.34
   2  -6  22    0.46    0.30
  -2   6  22    0.81    0.34
   3   6  22    8.42    0.67
  -3  -6  22    7.88    0.66
   3  -6  22    8.80    0.71
   4   6  22   15.14    0.89
   4  -6  22   14.13    0.92
   0   6  23    0.31    0.35
   0  -6  23   -0.01    0.34
   1   6  23    5.65    0.55
  -1  -6  23    5.60    0.56
   1  -6  23    6.05    0.58
  -1   6  23    5.62    0.52
  -2  -6  23    9.64    0.74
   2   6  23   10.07    0.73
  -2   6  23   10.51    0.70
   2  -6  23    9.03    0.75
   3   6  23    1.98    0.42
  -3  -6  23    1.89    0.41
   3  -6  23    1.62    0.44
   0   7   0   -0.22    0.08
   1   7   0    0.91    0.10
   1  -7   0    0.86    0.10
   2   7   0   79.94    3.21
  -2   7   0   79.71    3.04
   2   7   0   84.42    3.07
   3  -7   0    1.02    0.13
   3   7   0    0.97    0.13
   3   7   0    0.89    0.13
  -3   7   0    1.11    0.12
   4   7   0  284.16   10.20
  -4   7   0  279.85   10.17
   4  -7   0  261.16   10.68
   4   7   0  270.80   10.69
  -5   7   0    7.02    0.38
   5   7   0    5.81    0.36
   5  -7   0    7.00    0.41
   5   7   0    6.90    0.42
   6  -7   0    1.52    0.24
   6   7   0    1.29    0.21
  -6   7   0    1.52    0.21
   6   7   0    1.45    0.19
   7  -7   0    0.02    0.21
  -7   7   0    0.07    0.19
   7   7   0    0.11    0.22
   8   7   0   94.72    3.84
   8  -7   0   95.78    3.86
  -8   7   0   93.30    3.63
   9  -7   0    0.50    0.27
  -9   7   0    0.42    0.26
   9   7   0    0.51    0.27
  10   7   0    4.96    0.52
  10  -7   0    3.92    0.51
   0  -7   1    4.96    0.26
   0   7  -1    4.42    0.25
   0   7   1    5.03    0.25
   0   7   1    5.06    0.24
   1   7   1  107.74    4.18
   1  -7  -1  109.02    4.18
   1   7  -1  104.39    4.19
  -1   7   1  108.99    3.99
   1  -7   1  104.86    4.19
  -2   7  -1    1.15    0.11
   2  -7  -1    1.05    0.11
   2   7   1    0.84    0.11
   2   7   1    0.83    0.11
  -2   7   1    0.88    0.09
   2   7  -1    1.49    0.14
  -2   7   1    0.85    0.10
   3   7   1   20.30    0.84
   3  -7  -1   20.89    0.87
   3   7   1   20.44    0.88
  -3   7  -1   21.20    0.82
   3  -7   1   19.14    0.87
   3   7  -1   21.00    0.89
  -3   7   1   21.46    0.79
  -3   7   1   20.63    0.83
  -4   7  -1    1.36    0.15
   4   7   1    0.62    0.15
   4  -7  -1    1.02    0.16
   4   7   1    1.34    0.17
   4   7  -1    1.45    0.20
   4   7  -1    0.80    0.16
   4  -7   1    1.34    0.16
  -4   7   1    1.54    0.17
   5  -7  -1  133.19    5.24
  -5   7  -1  130.82    4.98
   5   7   1  129.84    5.24
   5   7   1  134.42    4.99
   5   7  -1  125.88    5.25
  -5   7   1  133.69    4.99
   5  -7   1  138.39    5.25
   5   7  -1  136.29    4.99
   6   7   1    2.90    0.24
   6   7   1    3.12    0.28
  -6   7  -1    2.74    0.25
   6  -7  -1    2.36    0.28
   6   7  -1    2.99    0.24
  -6   7   1    2.92    0.27
   6   7  -1    2.71    0.27
   6  -7   1    3.00    0.28
   7   7   1   35.05    1.54
   7  -7  -1   34.05    1.54
   7   7   1   35.54    1.42
  -7   7  -1   36.07    1.44
   7  -7   1   36.04    1.56
  -7   7   1   35.99    1.45
   7   7  -1   37.05    1.56
  -8   7  -1    1.36    0.26
   8  -7  -1    1.36    0.28
   8   7   1    1.42    0.28
   8  -7   1    1.17    0.30
  -8   7   1    1.96    0.28
   8   7  -1    0.99    0.30
  -9   7  -1   27.56    1.20
   9  -7  -1   27.17    1.32
   9   7   1   27.82    1.30
   9   7  -1   28.14    1.31
   9  -7   1   27.61    1.32
  -9   7   1   25.18    1.19
  10  -7  -1    2.78    0.45
  10   7   1    2.68    0.43
  10  -7   1    2.99    0.46
   0  -7   2    0.21    0.07
   0   7   2    0.40    0.07
   0   7  -2    0.43    0.09
   0   7   2    0.66    0.09
   1   7   2    0.80    0.09
   1   7   2    0.76    0.10
  -1   7   2    0.82    0.09
   2  -7  -2    0.09    0.08
   2   7   2    0.27    0.08
  -2   7  -2   -0.03    0.07
   2   7   2    0.12    0.09
  -2   7   2    0.15    0.06
  -2   7   2    0.34    0.10
   2  -7   2    0.04    0.08
   2   7  -2    0.20    0.11
   3   7   2    0.15    0.09
  -3   7  -2    0.25    0.09
   3  -7  -2    0.25    0.09
   3   7   2    0.32    0.10
   3  -7   2    0.14    0.10
   3   7  -2    0.32    0.11
  -3   7   2    0.32    0.06
  -3   7   2    0.31    0.11
   4   7   2   92.62    3.65
  -4   7  -2   93.13    3.46
   4   7   2   95.46    3.48
   4  -7  -2   91.49    3.65
   4  -7   2   89.27    3.65
  -4   7   2   90.48    3.47
   4   7  -2   92.37    3.67
   5  -7  -2   24.51    1.09
  -5   7  -2   24.63    1.01
   5   7   2   25.11    1.08
   5   7   2   24.43    1.02
   5   7  -2   24.49    1.09
  -5   7   2   25.91    1.04
   5  -7   2   25.35    1.09
   5   7  -2   25.58    1.02
   6   7   2    5.16    0.37
  -6   7  -2    4.74    0.32
   6   7   2    4.46    0.33
   6  -7  -2    5.68    0.36
  -6   7   2    4.61    0.35
   6   7  -2    5.06    0.39
   6  -7   2    4.44    0.35
   6   7  -2    4.82    0.32
  -7   7  -2    5.76    0.38
   7  -7  -2    6.18    0.43
   7   7   2    5.15    0.37
   7   7   2    5.26    0.42
  -7   7   2    5.28    0.40
   7  -7   2    5.67    0.42
   7   7  -2    6.30    0.47
  -8   7  -2   44.03    1.75
   8   7   2   42.73    1.86
   8  -7  -2   42.10    1.90
   8  -7   2   43.56    1.90
   8   7  -2   44.66    1.89
  -8   7   2   44.27    1.77
   9   7   2    3.56    0.40
   9  -7  -2    3.64    0.45
   9   7  -2    3.49    0.41
   9  -7   2    3.56    0.45
  -9   7   2    4.20    0.40
  10  -7  -2    0.38    0.36
  10   7   2    0.92    0.37
 -10   7   2    0.70    0.32
  10  -7   2    0.75    0.33
  10   7  -2    0.60    0.32
   0   7  -3    4.55    0.25
   0   7   3    4.32    0.23
   0   7   3    4.40    0.20
   1   7   3    8.17    0.36
   1  -7  -3    8.64    0.34
   1   7   3    6.72    0.34
  -1   7   3    8.11    0.34
   1   7  -3    8.29    0.38
   2   7   3   20.82    0.85
  -2   7  -3   19.81    0.80
   2  -7  -3   21.10    0.85
   2   7   3   21.79    0.84
   2  -7   3   20.98    0.88
  -2   7   3   20.61    0.83
  -2   7   3   20.44    0.80
   2   7  -3   21.17    0.89
   3   7   3    7.11    0.35
  -3   7  -3    7.63    0.32
   3   7   3    6.55    0.35
   3   7  -3    7.03    0.37
   3  -7   3    6.78    0.36
  -3   7   3    6.69    0.29
  -3   7   3    7.51    0.35
   4   7   3   23.59    1.00
  -4   7  -3   23.21    0.94
   4   7   3   24.51    0.96
   4  -7  -3   24.30    1.01
   4  -7   3   21.61    1.01
  -4   7   3   25.19    0.97
   4   7  -3   23.92    1.03
   5   7   3   55.36    2.08
   5  -7  -3   48.80    2.18
   5   7   3   53.54    2.17
  -5   7  -3   55.37    2.06
   5  -7   3   52.31    2.19
  -5   7   3   57.08    2.09
   5   7  -3   53.04    2.20
   6   7   3   20.63    0.95
  -6   7  -3   22.41    0.90
   6  -7  -3   22.79    0.99
   6   7   3   21.39    0.91
   6  -7   3   22.08    0.98
  -6   7   3   21.46    0.93
   6   7  -3   19.68    0.98
   6   7  -3   21.78    0.91
   7   7   3   31.68    1.42
  -7   7  -3   34.42    1.33
   7   7   3   33.48    1.33
   7  -7  -3   30.43    1.43
   7  -7   3   33.86    1.46
  -7   7   3   32.61    1.36
   7   7  -3   33.27    1.45
   8  -7  -3    0.43    0.28
  -8   7  -3    0.82    0.24
   8   7   3    0.34    0.26
   8   7  -3    0.52    0.25
   8  -7   3    0.57    0.28
  -8   7   3    0.69    0.22
   9  -7  -3   20.56    1.12
   9   7   3   20.35    1.06
   9  -7   3   22.11    1.11
  -9   7   3   23.89    1.04
   9   7  -3   23.59    1.13
  10   7   3    5.38    0.51
  10  -7  -3    5.26    0.57
  10   7  -3    5.37    0.56
  10  -7   3    5.34    0.57
 -10   7   3    5.57    0.49
   0   7  -4    0.22    0.09
   0   7   4    0.22    0.04
   0  -7   4    0.26    0.09
   0   7   4    0.13    0.07
   1   7   4   77.39    2.97
   1  -7  -4   81.52    3.08
   1   7   4   77.71    3.08
  -1   7   4   78.65    2.96
   1   7  -4   80.36    3.12
   1  -7   4   78.27    3.12
   2  -7  -4   46.70    1.94
  -2   7  -4   51.21    1.84
   2   7   4   49.78    1.88
   2   7   4   47.81    1.94
   2   7  -4   51.11    1.98
   2  -7   4   50.04    1.98
  -2   7   4   47.55    1.85
   3   7   4   30.58    1.20
   3   7   4   30.55    1.23
  -3   7  -4   29.48    1.16
   3  -7   4   30.31    1.26
  -3   7   4   30.48    1.19
  -3   7   4   30.55    1.15
   3   7  -4   30.29    1.27
   4   7   4  110.01    4.35
   4   7   4  113.54    4.17
  -4   7  -4  110.43    4.13
   4  -7  -4  114.40    4.36
   4  -7   4  103.42    4.37
   4   7  -4  111.24    4.39
  -4   7   4  110.47    4.16
   5   7   4   30.26    1.30
  -5   7  -4   32.96    1.23
   5   7   4   32.03    1.25
   5  -7  -4   31.43    1.32
  -5   7   4   33.61    1.27
   5  -7   4   26.02    1.31
  -6   7  -4    9.01    0.45
   6   7   4    9.26    0.46
   6   7   4   10.10    0.51
   6  -7  -4    8.61    0.50
  -6   7   4    8.94    0.48
   6   7  -4   10.14    0.48
   6  -7   4    9.26    0.54
   6   7  -4    8.18    0.54
   7   7   4   11.40    0.55
   7  -7  -4   10.23    0.62
   7   7   4   10.82    0.60
  -7   7  -4   11.34    0.54
  -7   7   4   10.60    0.56
   7   7  -4   11.23    0.63
   7  -7   4   10.42    0.63
   8   7   4   16.59    0.85
   8  -7  -4   16.87    0.89
  -8   7   4   16.71    0.81
   8  -7   4   16.59    0.87
   8   7  -4   16.38    0.90
   9   7   4    0.61    0.27
   9  -7  -4    0.80    0.34
   9  -7   4    0.95    0.30
  -9   7   4    0.94    0.30
   9   7  -4    0.42    0.29
  10   7   4   10.78    0.73
  10  -7  -4   10.29    0.77
  10  -7   4   10.09    0.73
 -10   7   4   11.70    0.70
  10   7  -4   10.65    0.77
   0   7  -5   28.36    1.19
   0   7   5   29.48    1.13
   1   7   5   20.41    0.77
   1   7   5   19.96    0.78
   1  -7  -5   18.79    0.77
   1   7  -5   18.54    0.83
  -1   7   5   18.80    0.76
   2  -7  -5  392.96   15.27
   2   7   5  399.31   14.61
   2   7   5  369.23   15.27
  -2   7  -5  401.78   14.54
  -2   7   5  411.00   14.58
   2   7  -5  388.03   15.30
   2  -7   5  392.02   14.61
  -3   7  -5  107.30    3.93
   3   7   5  101.39    4.14
   3   7   5  118.29    3.99
   3   7  -5  105.25    4.19
  -3   7   5  112.03    3.94
   3  -7   5   90.31    3.96
   4   7   5   19.90    0.84
  -4   7  -5   19.22    0.78
   4  -7  -5   20.14    0.85
   4   7   5   20.64    0.81
  -4   7   5   19.68    0.82
   4   7  -5   17.22    0.87
   5   7   5   24.27    1.04
   5   7   5   23.84    0.99
  -5   7  -5   25.93    0.96
   5  -7  -5   24.44    1.05
  -5   7   5   21.96    1.00
   6   7   5    1.79    0.23
   6   7   5    1.61    0.21
   6  -7  -5    1.97    0.25
  -6   7  -5    2.41    0.20
   6   7  -5    1.89    0.28
   6  -7   5    1.66    0.27
  -6   7   5    1.87    0.26
   7  -7  -5    7.78    0.54
   7   7   5    8.32    0.52
   7   7   5    8.47    0.46
  -7   7   5    9.15    0.52
   7   7  -5    9.08    0.58
   7  -7   5    7.77    0.52
   8   7   5    1.01    0.28
   8  -7  -5    0.56    0.28
   8   7  -5    0.69    0.27
   8  -7   5    0.63    0.29
  -8   7   5    0.63    0.24
   9   7   5   11.25    0.71
   9  -7  -5   12.43    0.77
   9  -7   5   11.28    0.72
   9   7  -5   12.37    0.74
  -9   7   5   11.90    0.69
  10   7   5    0.02    0.33
  10  -7  -5   -0.22    0.34
  10  -7   5   -0.19    0.33
  10   7  -5   -0.36    0.33
 -10   7   5    0.17    0.31
   0   7   6    0.30    0.09
   1   7   6   79.58    3.03
   1  -7  -6   74.11    3.12
   1   7   6   77.82    3.12
  -1   7   6   81.47    3.02
   1  -7   6   89.69    3.06
   2   7   6   14.52    0.61
   2  -7  -6   17.02    0.62
   2   7   6   12.36    0.61
   2  -7   6   15.60    0.64
  -2   7   6   14.66    0.60
  -2   7   6   14.82    0.62
  -3   7  -6    7.95    0.32
   3   7   6    7.29    0.36
   3   7   6    7.69    0.38
  -3   7   6    7.05    0.33
   3  -7   6    8.26    0.38
   4   7   6    2.34    0.22
  -4   7  -6    2.50    0.17
   4   7   6    2.99    0.22
   4  -7  -6    2.72    0.22
   4  -7   6    2.88    0.22
   5  -7  -6   14.30    0.69
   5   7   6   13.93    0.65
   5   7   6   15.14    0.68
  -5   7  -6   15.14    0.62
   6   7   6    2.14    0.23
   6   7   6    2.53    0.26
   6  -7  -6    1.80    0.25
   6   7  -6    1.80    0.27
   6  -7   6    2.25    0.29
  -6   7   6    2.07    0.26
   7   7   6   13.89    0.67
   7   7   6   14.24    0.73
   7  -7  -6   14.28    0.76
   7   7  -6   14.27    0.78
  -7   7   6   14.45    0.70
   7  -7   6   14.55    0.76
   8   7   6    3.38    0.37
   8  -7  -6    2.92    0.39
   8  -7   6    3.27    0.41
  -8   7   6    3.61    0.38
   8   7  -6    3.28    0.39
   9  -7  -6    7.32    0.57
   9   7   6    7.42    0.54
  -9   7   6    8.37    0.57
   9   7  -6    6.92    0.58
   9  -7   6    7.52    0.59
  10   7   6    0.63    0.36
  10  -7  -6    0.90    0.33
  10   7  -6    1.19    0.36
 -10   7   6    1.89    0.37
  10  -7   6    1.27    0.41
   0   7  -7    3.36    0.24
   0   7   7    2.06    0.17
   1   7   7   53.76    2.01
   1  -7  -7   48.69    2.04
   1  -7   7   56.25    2.04
   1  -7   7   53.16    2.12
   1   7  -7   54.08    2.12
  -1   7   7   51.52    2.00
  -1   7   7   50.99    2.00
   2  -7  -7  344.30   13.48
   2   7   7  364.17   13.48
   2  -7   7  363.65   12.95
   2  -7   7  349.93   13.54
  -2   7   7  327.52   12.90
   2   7  -7  342.79   13.54
  -2   7   7  342.16   12.88
   3   7   7   42.41    1.71
   3   7   7   44.35    1.75
  -3   7   7   45.53    1.71
   3   7  -7   42.86    1.81
   3  -7   7   44.07    1.72
   3  -7   7   43.25    1.80
  -3   7   7   44.89    1.67
   4   7   7    2.35    0.22
   4   7   7    2.52    0.21
   4  -7  -7    2.08    0.21
   4  -7   7    3.00    0.24
   5   7   7    0.55    0.17
   5  -7  -7    0.91    0.18
   5   7   7    0.51    0.17
  -5   7   7    0.17    0.10
   5  -7   7    0.70    0.14
   5   7  -7    0.45    0.15
   5  -7   7    0.23    0.10
   6   7   7    0.25    0.17
   6  -7  -7    0.30    0.19
   6   7   7    0.21    0.17
   6  -7   7    0.10    0.21
  -6   7   7    0.09    0.20
   6   7  -7    0.45    0.22
   7   7   7    4.90    0.41
   7  -7  -7    5.72    0.45
   7   7   7    4.94    0.42
  -7   7   7    5.83    0.41
   7  -7   7    6.12    0.49
   7   7  -7    6.43    0.50
   8  -7  -7    5.11    0.47
   8   7   7    5.62    0.47
   8  -7   7    4.98    0.46
  -8   7   7    4.87    0.43
   8   7  -7    5.64    0.51
   9   7   7    0.53    0.30
   9  -7  -7    0.36    0.32
   9   7  -7    1.09    0.36
   9  -7   7    0.94    0.31
  -9   7   7    0.70    0.27
  10   7   7    4.62    0.51
  10  -7  -7    5.92    0.57
 -10   7   7    5.24    0.47
   0   7   8    0.88    0.13
   0  -7   8    0.80    0.14
   0   7  -8    0.77    0.16
   1   7   8  103.38    3.93
   1  -7   8  103.26    4.13
   1   7  -8  103.94    4.13
   1  -7   8  105.56    3.96
  -1   7   8  105.24    3.92
  -1   7   8  104.90    3.92
   2   7   8    0.76    0.09
   2  -7  -8    1.05    0.10
   2  -7   8    0.84    0.16
  -2   7   8    1.10    0.16
  -2   7   8    0.72    0.11
   2   7  -8    0.94    0.16
   2  -7   8    0.87    0.17
   3   7   8   67.17    2.58
   3   7   8   67.47    2.65
  -3   7   8   68.40    2.54
   3   7  -8   65.96    2.72
   3  -7   8   67.66    2.71
   3  -7   8   68.42    2.59
  -3   7   8   65.91    2.57
   4  -7  -8   19.52    0.91
   4   7   8   22.34    0.89
   4   7   8   22.03    0.90
   4  -7   8   19.00    0.93
   4  -7   8   23.89    0.91
  -4   7   8   19.68    0.88
   4   7  -8   21.04    0.96
   5  -7  -8   29.13    1.24
   5   7   8   29.60    1.21
   5   7   8   26.82    1.17
   5   7  -8   28.68    1.28
   5  -7   8   28.36    1.26
  -5   7   8   28.69    1.20
   5  -7   8   29.96    1.18
   6   7   8   21.77    0.99
   6  -7  -8   21.61    1.03
   6   7   8   22.20    0.96
  -6   7   8   21.76    0.97
   6   7  -8   23.86    1.08
   6  -7   8   22.59    1.04
   7   7   8    0.50    0.23
   7   7   8    0.54    0.21
   7  -7  -8    0.64    0.24
  -7   7   8    0.40    0.21
   7   7  -8    0.53    0.25
   7  -7   8    1.07    0.30
   8   7   8    2.66    0.34
   8  -7  -8    2.48    0.37
  -8   7   8    2.84    0.36
   8  -7   8    3.07    0.41
   8   7  -8    2.11    0.35
   9   7   8    0.47    0.30
   9  -7  -8    0.05    0.30
   9   7  -8   -0.08    0.32
  -9   7   8    0.22    0.26
   9  -7   8    0.55    0.34
  10  -7  -8    2.86    0.44
  10   7   8    3.48    0.46
 -10   7   8    3.62    0.42
   0   7   9  156.61    5.88
   0   7  -9  154.70    6.16
   0  -7   9  160.03    5.92
   1   7   9   91.14    3.36
   1  -7   9   89.06    3.39
  -1   7   9   87.42    3.34
   1  -7   9   85.73    3.53
  -1   7   9   89.69    3.34
   1   7  -9   88.85    3.53
   2  -7  -9  226.78    8.53
   2   7   9  229.23    8.52
   2   7  -9  216.45    8.59
   2  -7   9  212.38    8.22
  -2   7   9  215.86    8.17
   2  -7   9  220.95    8.59
  -2   7   9  214.42    8.16
   3  -7  -9    0.11    0.06
   3   7   9    0.15    0.10
   3   7   9    0.19    0.15
   3   7  -9    0.26    0.18
   3  -7   9    0.38    0.15
  -3   7   9    0.20    0.11
  -3   7   9    0.07    0.13
   3  -7   9    0.15    0.14
   4  -7  -9   35.98    1.60
   4   7   9   38.92    1.55
   4   7   9   39.55    1.59
   4  -7   9   40.08    1.65
   4   7  -9   40.26    1.66
   4  -7   9   40.76    1.58
  -4   7   9   39.17    1.56
   5  -7  -9    7.30    0.42
   5   7   9    6.94    0.40
   5   7   9    6.94    0.42
  -5   7   9    7.41    0.45
   5  -7   9    7.30    0.40
   5  -7   9    5.90    0.43
   5   7  -9    8.03    0.50
   6   7   9    6.75    0.42
   6   7   9    6.62    0.41
   6  -7  -9    5.76    0.44
   6   7  -9    6.20    0.50
  -6   7   9    5.75    0.44
   6  -7   9    6.32    0.45
   7  -7  -9    0.91    0.25
   7   7   9    0.80    0.24
   7   7   9    0.85    0.22
   7  -7   9    1.08    0.27
   7   7  -9    0.74    0.30
  -7   7   9    0.86    0.26
   8   7   9    0.64    0.27
   8  -7  -9    0.42    0.28
   8  -7   9    0.81    0.33
   8   7  -9    0.86    0.30
  -8   7   9    0.42    0.28
   9  -7  -9    2.90    0.43
   9  -7   9    2.79    0.45
  -9   7   9    2.60    0.39
   9   7  -9    2.87    0.44
 -10   7   9    7.87    0.65
   0   7  10    1.06    0.15
   0   7 -10    0.69    0.16
   0  -7  10    0.87    0.18
   1   7  10   78.16    2.87
  -1  -7  10   66.51    2.89
   1  -7  10   80.91    2.92
   1  -7  10   69.53    3.01
  -1   7  10   76.36    2.85
  -1   7  10   79.07    2.86
   1   7 -10   75.45    3.01
   2   7 -10    0.40    0.16
   2  -7  10    0.50    0.18
  -2   7  10    0.48    0.15
  -2   7  10    0.35    0.13
   2  -7  10    0.22    0.16
   3   7  10   99.39    3.69
   3   7 -10   99.98    3.89
  -3   7  10   97.09    3.68
  -3   7  10  100.28    3.66
   3  -7  10   95.03    3.87
   3  -7  10   91.28    3.72
   4   7  10   22.81    0.97
   4  -7  10   23.07    0.99
   4   7 -10   22.65    1.04
   4  -7  10   23.33    1.04
  -4   7  10   23.26    0.98
   5   7  10    3.26    0.28
  -5   7  10    3.10    0.31
   5  -7  10    2.85    0.27
   5   7 -10    3.16    0.34
   5  -7  10    2.94    0.31
   6   7  10    1.59    0.25
   6  -7  10    1.77    0.28
   6   7 -10    1.86    0.32
  -6   7  10    1.89    0.29
   7   7  10    0.64    0.24
  -7   7  10    1.01    0.28
   7   7 -10    1.42    0.30
   7  -7  10    0.78    0.27
   8   7 -10    7.98    0.58
   8  -7  10    7.70    0.58
  -8   7  10    7.04    0.55
   9  -7  10    0.59    0.32
  -9   7  10    0.19    0.31
   9   7 -10    0.54    0.36
 -10   7  10    3.73    0.47
   0   7 -11  223.33    8.79
   0   7  11  226.03    8.39
   1   7  11   36.83    1.45
  -1   7  11   36.47    1.44
   1   7 -11   37.98    1.54
   1  -7  11   34.86    1.49
   1  -7  11   35.31    1.53
  -1   7  11   38.01    1.44
   2   7 -11  102.32    3.80
  -2   7  11   96.15    3.59
   2  -7  11   87.60    3.64
  -2   7  11   96.77    3.59
   2  -7  11   92.00    3.79
   3   7  11    2.34    0.24
   3   7 -11    2.11    0.25
   3  -7  11    1.82    0.24
  -3   7  11    2.12    0.20
   3  -7  11    2.23    0.24
  -3   7  11    1.95    0.23
   4   7  11    4.58    0.35
   4  -7  11    4.76    0.37
   4  -7  11    4.99    0.36
   4   7 -11    3.91    0.36
  -4   7  11    5.41    0.37
   5   7  11    9.72    0.52
   5  -7  11    9.00    0.52
   5   7 -11    9.52    0.57
  -5   7  11    9.19    0.54
   5  -7  11    9.61    0.57
   6   7  11    8.69    0.51
   6  -7  11    8.24    0.54
   6   7 -11    8.40    0.55
  -6   7  11    8.15    0.50
   7   7  11    1.97    0.29
  -7   7  11    2.06    0.33
   7   7 -11    2.54    0.38
   7  -7  11    1.95    0.33
  -8   7  11    0.36    0.30
   8   7 -11    0.30    0.33
   8  -7  11    0.37    0.33
   9   7 -11    0.18    0.31
  -9   7  11    0.33    0.32
   9  -7  11    0.50    0.37
   0   7  12    0.02    0.12
   0   7  12    0.33    0.16
   0  -7  12   -0.01    0.03
   0   7 -12    0.18    0.16
   1   7  12   94.10    3.57
   1  -7  12   91.62    3.74
   1  -7  12   95.89    3.62
  -1   7  12   92.61    3.56
   1   7 -12   93.62    3.74
  -1   7  12   94.83    3.55
   2  -7  12    3.89    0.34
  -2   7  12    3.51    0.27
  -2   7  12    3.83    0.29
   2   7 -12    3.78    0.31
   2  -7  12    3.55    0.31
   3   7  12   38.33    1.50
  -3   7  12   38.91    1.47
   3  -7  12   36.25    1.57
   3  -7  12   35.48    1.53
   3   7 -12   37.24    1.58
  -3   7  12   36.67    1.49
   4   7  12    4.92    0.37
   4  -7  12    4.67    0.38
   4  -7  12    4.74    0.38
   4   7 -12    4.79    0.42
  -4   7  12    5.31    0.35
   5   7  12    2.08    0.25
  -5   7  12    2.24    0.29
   5   7 -12    2.13    0.29
   5  -7  12    2.02    0.27
   5  -7  12    2.06    0.31
   6   7  12    2.31    0.30
   6   7 -12    3.39    0.39
  -6   7  12    2.67    0.33
   6  -7  12    2.99    0.35
   7   7  12   11.07    0.62
   7  -7  12   10.47    0.67
  -7   7  12   11.51    0.66
   7   7 -12   10.72    0.68
   8  -7  12   37.83    1.71
  -8   7  12   37.31    1.59
   8   7 -12   36.35    1.68
  -9   7  12    2.92    0.42
   9  -7  12    2.19    0.42
   9   7 -12    2.83    0.48
   0   7  13   80.21    3.05
   0   7 -13   82.84    3.23
   0   7  13   77.54    3.07
   1   7  13   26.65    1.13
  -1   7 -13   26.52    1.18
  -1  -7  13   26.70    1.17
  -1   7  13   28.03    1.12
   1   7 -13   27.25    1.19
  -1   7  13   27.17    1.11
   1  -7  13   27.60    1.18
   1  -7  13   27.69    1.19
  -2  -7  13   11.39    0.60
   2   7  13   10.75    0.56
   2   7 -13   11.09    0.60
  -2   7  13   11.12    0.53
  -2   7  13   11.01    0.54
   2  -7  13   11.25    0.58
   2  -7  13   10.19    0.58
   3   7  13    0.91    0.22
   3   7 -13    0.69    0.21
  -3   7  13    0.78    0.18
   3  -7  13    0.64    0.22
  -3   7  13    0.50    0.20
   3  -7  13    0.80    0.23
   4   7  13   95.53    3.71
   4  -7  13   97.15    3.75
  -4   7  13  100.02    3.70
   4  -7  13   93.38    3.88
   4   7 -13   97.53    3.90
   5   7  13   14.38    0.70
   5  -7  13   12.94    0.71
   5  -7  13   13.70    0.75
   5   7 -13   14.10    0.77
  -5   7  13   13.53    0.70
   6   7  13    3.65    0.35
   6  -7  13    3.08    0.38
  -6   7  13    2.25    0.34
   6   7 -13    3.08    0.39
   7   7  13    7.50    0.53
   7   7 -13    7.05    0.57
   7  -7  13    7.45    0.61
  -7   7  13    7.45    0.55
   8   7 -13    0.68    0.31
   8  -7  13    0.49    0.31
  -8   7  13    0.34    0.31
  -9   7  13    4.36    0.48
   0  -7  14    0.12    0.18
   0   7  14    0.30    0.18
   0   7  14    0.27    0.16
   0   7 -14    0.05    0.20
  -1   7 -14    2.31    0.29
   1   7  14    2.80    0.26
  -1  -7  14    2.19    0.29
   1  -7  14    2.55    0.31
  -1   7  14    2.56    0.24
  -1   7  14    2.29    0.25
   1   7 -14    1.98    0.27
   2   7  14    0.59    0.19
  -2  -7  14    0.48    0.20
  -2   7  14    0.76    0.20
   2  -7  14    0.73    0.20
   2  -7  14    0.42    0.23
  -2   7  14    0.64    0.18
   2   7 -14    0.96    0.24
   3   7  14   66.27    2.66
  -3   7  14   68.95    2.63
   3  -7  14   66.05    2.79
   3   7 -14   69.39    2.80
  -3   7  14   69.28    2.64
   3  -7  14   69.89    2.72
   4   7  14   20.89    0.93
   4   7 -14   20.85    0.99
  -4   7  14   20.50    0.92
   4  -7  14   20.66    0.96
   4  -7  14   18.86    0.95
   5   7  14    0.92    0.26
  -5   7  14    1.03    0.27
   5   7 -14    1.43    0.28
   5  -7  14    0.95    0.26
   5  -7  14    1.29    0.30
   6   7  14    9.68    0.58
   6   7 -14    8.08    0.59
   6  -7  14    9.21    0.63
  -6   7  14    9.52    0.59
   7   7  14   16.95    0.84
   7  -7  14   15.42    0.90
   7   7 -14   16.91    0.89
  -7   7  14   15.29    0.81
   8  -7  14    9.24    0.73
  -8   7  14   10.42    0.67
   8   7 -14    9.29    0.72
  -9   7  14    6.53    0.54
   0   7  15   14.82    0.70
   0  -7  15   15.12    0.76
   0   7  15   15.22    0.67
   0   7 -15   13.91    0.74
  -1   7 -15    5.65    0.44
  -1  -7  15    5.77    0.43
   1   7  15    6.19    0.39
   1   7  15    5.96    0.37
   1  -7  15    5.83    0.44
   1   7 -15    6.58    0.45
  -1   7  15    6.16    0.37
  -1   7  15    5.47    0.39
  -2  -7  15    3.47    0.37
   2   7  15    3.46    0.33
  -2   7  15    4.32    0.34
   2   7 -15    3.89    0.34
  -2   7  15    3.95    0.31
   2  -7  15    3.84    0.36
   2  -7  15    3.75    0.38
   3   7  15   11.66    0.61
  -3   7  15   10.86    0.56
  -3   7  15   11.48    0.59
   3   7 -15   11.52    0.63
   3  -7  15   10.74    0.63
   3  -7  15   10.51    0.65
   4   7  15   25.84    1.12
  -4   7  15   25.16    1.11
   4  -7  15   26.47    1.16
   4   7 -15   24.02    1.16
   4  -7  15   24.87    1.16
   5   7  15   57.52    2.24
   5  -7  15   54.10    2.27
   5  -7  15   56.04    2.35
   5   7 -15   55.30    2.36
  -5   7  15   55.55    2.22
   6   7  15    0.84    0.28
   6  -7  15    1.65    0.35
   6   7 -15    0.90    0.33
  -6   7  15    1.55    0.32
   7   7  15   22.35    1.09
  -7   7  15   23.06    1.07
   7   7 -15   24.53    1.19
   7  -7  15   23.08    1.17
   8   7  15    0.32    0.30
  -8   7  15    0.41    0.29
   8   7 -15    0.41    0.35
   8  -7  15   -0.08    0.36
   0   7  16    0.62    0.19
   0   7 -16    0.49    0.21
   0  -7  16    0.55    0.25
   0   7  16    0.28    0.19
   1   7  16    2.72    0.29
  -1  -7  16    3.77    0.37
  -1   7 -16    4.13    0.36
  -1   7  16    2.42    0.29
   1   7 -16    2.81    0.33
  -1   7  16    3.04    0.28
   1  -7  16    3.13    0.34
   2   7  16    0.39    0.22
  -2  -7  16    0.04    0.21
   2   7 -16    0.51    0.25
  -2   7  16    0.23    0.20
   2  -7  16    0.46    0.22
   2  -7  16    0.17    0.24
  -2   7  16   -0.03    0.19
   3   7  16    2.91    0.31
  -3   7  16    3.13    0.31
   3   7 -16    3.27    0.34
   3  -7  16    2.47    0.33
  -3   7  16    3.49    0.31
   3  -7  16    3.27    0.38
   4   7  16   40.72    1.76
   4  -7  16   42.68    1.83
  -4   7  16   45.52    1.76
   4  -7  16   43.67    1.86
   4   7 -16   42.67    1.86
   5   7  16    4.73    0.42
   5  -7  16    5.03    0.46
   5   7 -16    4.47    0.42
   5  -7  16    4.59    0.45
  -5   7  16    4.08    0.37
   6   7  16   41.53    1.74
   6  -7  16   42.07    1.84
  -6   7  16   40.76    1.73
   6   7 -16   41.19    1.84
   7   7  16   18.32    0.92
  -7   7  16   17.11    0.91
   7   7 -16   17.89    1.00
   7  -7  16   17.51    0.98
   8   7  16    0.79    0.35
  -8   7  16    0.75    0.34
   0   7  17   29.71    1.30
   0   7 -17   30.39    1.36
   0  -7  17   32.39    1.37
   1   7  17    0.07    0.23
  -1   7 -17    0.08    0.25
  -1  -7  17    0.34    0.26
  -1   7  17   -0.18    0.18
  -1   7  17    0.18    0.19
   1  -7  17   -0.01    0.25
   1   7 -17    0.10    0.24
  -2  -7  17    0.14    0.25
  -2   7 -17    0.78    0.29
   2   7  17    0.43    0.21
  -2   7  17    0.36    0.21
  -2   7  17    0.16    0.21
   2   7 -17    0.51    0.27
   2  -7  17    0.59    0.27
   3   7  17   28.14    1.28
   3   7 -17   28.53    1.33
  -3   7  17   30.72    1.27
   3  -7  17   30.35    1.34
  -3   7  17   30.08    1.26
   3  -7  17   30.32    1.35
   4   7  17    1.16    0.30
   4   7 -17    0.85    0.30
  -4   7  17    0.98    0.28
   4  -7  17    1.35    0.31
   4  -7  17    1.29    0.32
   5   7  17   25.49    1.18
   5  -7  17   25.80    1.23
   5  -7  17   25.47    1.23
   5   7 -17   25.52    1.24
  -5   7  17   26.37    1.16
   6   7  17    4.36    0.44
   6  -7  17    4.67    0.48
   6   7 -17    5.16    0.50
  -6   7  17    4.57    0.45
   7   7  17   14.51    0.83
   7  -7  17   13.12    0.84
   7   7 -17   12.64    0.85
  -7   7  17   13.53    0.78
   0   7  18    0.82    0.26
   0   7 -18    0.61    0.27
   0  -7  18    0.61    0.29
  -1  -7  18    0.28    0.28
  -1   7 -18    0.42    0.27
   1   7  18    0.50    0.23
   1   7 -18    0.29    0.27
  -1   7  18    0.95    0.25
   1  -7  18    0.41    0.24
  -2  -7  18   11.40    0.70
   2   7  18   11.67    0.66
  -2   7 -18   11.64    0.68
  -2   7  18   11.55    0.63
   2   7 -18   11.71    0.68
  -2   7  18   11.12    0.63
   2  -7  18   11.38    0.71
   3   7  18   17.04    0.84
   3  -7  18   16.18    0.86
  -3   7  18   16.00    0.81
   3  -7  18   16.02    0.88
   3   7 -18   15.84    0.86
  -3   7  18   16.42    0.80
   4   7  18   14.66    0.81
   4  -7  18   16.10    0.87
   4  -7  18   14.55    0.83
  -4   7  18   15.68    0.78
   4   7 -18   15.54    0.82
   5   7  18    2.28    0.37
   5   7 -18    2.57    0.39
  -5   7  18    2.15    0.34
   5  -7  18    2.16    0.38
   5  -7  18    2.62    0.39
   6   7  18   21.73    1.07
   6   7 -18   20.46    1.10
  -6   7  18   21.79    1.04
   6  -7  18   21.66    1.10
   7   7  18    5.55    0.52
   7  -7  18    5.32    0.57
  -7   7  18    5.58    0.50
   7   7 -18    5.38    0.58
   0  -7  19    3.09    0.39
   0   7 -19    2.32    0.35
   0   7  19    2.40    0.31
  -1  -7  19    7.44    0.59
   1   7  19    7.31    0.54
  -1   7 -19    6.69    0.54
  -1   7  19    7.11    0.48
   1  -7  19    7.81    0.60
   1   7 -19    6.76    0.54
  -2   7 -19    4.72    0.46
  -2  -7  19    5.93    0.50
   2   7  19    5.59    0.45
   2   7 -19    5.51    0.48
   2  -7  19    5.36    0.50
  -2   7  19    5.11    0.43
   3   7  19   25.86    1.19
   3  -7  19   27.57    1.23
  -3   7  19   25.08    1.15
   3  -7  19   26.08    1.24
   3   7 -19   24.25    1.22
   4   7  19    0.86    0.32
   4  -7  19    0.54    0.32
   4   7 -19    1.06    0.33
   4  -7  19    0.69    0.31
  -4   7  19    0.53    0.30
   5   7  19   13.42    0.78
  -5   7  19   12.77    0.73
   5  -7  19   12.82    0.78
   5   7 -19   13.07    0.80
   5  -7  19   12.93    0.84
   6   7  19    0.55    0.34
  -6   7  19    0.90    0.32
   6   7 -19    0.48    0.35
   6  -7  19    0.60    0.35
   0   7 -20    0.75    0.31
   0   7  20    0.82    0.27
   0  -7  20    0.98    0.30
  -1  -7  20   23.51    1.15
   1   7  20   23.02    1.10
  -1   7 -20   24.35    1.14
   1  -7  20   24.62    1.17
  -1   7  20   23.70    1.09
   1   7 -20   21.82    1.13
  -2   7 -20    5.86    0.51
  -2  -7  20    6.18    0.53
   2   7  20    5.53    0.47
   2   7 -20    6.02    0.51
  -2   7  20    6.19    0.51
   2  -7  20    5.68    0.54
  -3   7 -20    0.78    0.35
   3   7  20    0.32    0.27
   3  -7  20    0.10    0.31
   3   7 -20    0.59    0.31
   4   7  20    1.72    0.37
   4   7 -20    1.64    0.37
   4  -7  20    2.02    0.37
   4  -7  20    1.50    0.38
   5   7  20    0.28    0.33
   5  -7  20    0.13    0.32
   5  -7  20    0.45    0.33
   5   7 -20   -0.02    0.32
   6   7  20   34.48    1.59
  -6   7  20   35.95    1.54
   0  -7  21   28.49    1.34
   0   7  21   28.33    1.29
   1   7  21    7.89    0.61
  -1  -7  21    7.44    0.59
  -1   7  21    8.19    0.60
   1  -7  21    7.81    0.63
  -2  -7  21    0.16    0.27
   2   7  21    0.43    0.31
  -2   7  21    0.74    0.31
   2  -7  21    0.48    0.34
   3   7  21   35.44    1.55
   3  -7  21   35.59    1.63
   4   7  21    0.63    0.35
   4  -7  21    0.65    0.36
   5   7  21    2.13    0.42
   5  -7  21    2.16    0.44
   0   7  22    0.72    0.34
   0  -7  22    0.58    0.34
  -1  -7  22    6.45    0.59
   1   7  22    6.92    0.57
   1  -7  22    6.64    0.59
  -1   7  22    6.86    0.56
   2   7  22    7.80    0.64
  -2  -7  22    7.87    0.64
   2  -7  22    9.01    0.71
  -2   7  22    9.11    0.66
   3   7  22    3.25    0.41
   3  -7  22    3.65    0.50
   4   7  22    1.00    0.38
   4  -7  22    0.85    0.39
   0  -7  23   50.67    2.12
   0   7  23   48.12    2.09
   1   7  23    0.82    0.37
  -1  -7  23    0.29    0.36
  -1   7  23    0.86    0.36
   1  -7  23    1.16    0.39
  -2  -7  23    0.89    0.39
   2   7  23    0.66    0.32
   2  -7  23    0.99    0.40
  -2   7  23    0.57    0.35
   0   8   0  127.14    4.96
   1  -8   0    0.56    0.10
   1   8   0    0.50    0.10
   2   8   0   51.69    2.20
   2   8   0   59.04    2.12
  -2   8   0   55.21    2.09
   3   8   0    0.30    0.11
  -3   8   0    0.32    0.10
   3  -8   0    0.27    0.09
   3   8   0    0.20    0.11
  -4   8   0    0.60    0.13
  -4   8   0    0.67    0.08
   4   8   0    0.73    0.15
   4  -8   0    1.01    0.16
   4   8   0    0.94    0.15
   5  -8   0    0.61    0.16
   5   8   0    0.34    0.16
   5   8   0    0.40    0.18
  -5   8   0    0.59    0.16
   6   8   0   29.61    1.19
   6  -8   0   29.52    1.27
   6   8   0   29.81    1.27
  -6   8   0   27.72    1.19
   7  -8   0    1.19    0.24
   7   8   0    0.77    0.20
   7   8   0    0.83    0.23
  -7   8   0    0.79    0.22
   8  -8   0    0.56    0.25
  -8   8   0    0.92    0.25
   8   8   0    1.26    0.27
  -9   8   0   -0.10    0.25
   9   8   0    0.01    0.29
   9  -8   0    0.12    0.29
  10   8   0    6.00    0.55
  10  -8   0    7.03    0.63
   0   8  -1    0.23    0.09
   0   8   1    0.34    0.08
   0   8   1    0.19    0.08
   1   8   1  173.78    6.97
   1  -8  -1  184.89    6.97
   1   8   1  177.20    6.68
   1   8  -1  178.46    6.98
  -1   8   1  181.49    6.67
   2   8   1    2.18    0.17
  -2   8  -1    2.35    0.16
   2   8   1    1.94    0.17
  -2   8   1    2.04    0.14
  -2   8   1    2.08    0.17
   2  -8   1    1.99    0.18
   2   8  -1    2.43    0.19
   3  -8  -1   14.94    0.72
   3   8   1   16.59    0.73
  -3   8  -1   17.15    0.69
   3   8   1   17.81    0.71
  -3   8   1   18.26    0.66
   3  -8   1   16.08    0.73
  -3   8   1   17.52    0.70
   3   8  -1   16.53    0.75
   4  -8  -1    0.43    0.13
  -4   8  -1    0.63    0.14
   4   8   1    0.44    0.14
   4   8   1    0.52    0.14
   4   8  -1    0.62    0.15
  -4   8   1    0.22    0.11
   4   8  -1    0.62    0.14
   4  -8   1    0.10    0.11
   5  -8  -1   73.35    2.87
   5   8   1   72.05    2.73
  -5   8  -1   70.66    2.71
   5   8   1   68.43    2.86
   5   8  -1   71.12    2.73
  -5   8   1   70.46    2.72
   5   8  -1   68.33    2.87
   5  -8   1   75.79    2.88
   6   8   1    4.10    0.35
   6   8   1    4.44    0.31
  -6   8  -1    4.16    0.31
   6  -8  -1    4.16    0.35
  -6   8   1    3.75    0.32
   6   8  -1    4.09    0.37
   6  -8   1    4.66    0.37
   6   8  -1    4.02    0.31
   7   8   1    4.61    0.42
   7  -8  -1    4.95    0.40
  -7   8  -1    5.34    0.38
   7   8   1    4.86    0.36
   7   8  -1    5.07    0.36
  -7   8   1    5.25    0.38
   7   8  -1    5.23    0.41
   7  -8   1    5.50    0.44
   8   8   1    2.83    0.33
   8  -8  -1    2.93    0.37
  -8   8  -1    2.58    0.30
  -8   8   1    2.68    0.32
   8  -8   1    2.39    0.36
   8   8  -1    2.15    0.35
   9   8   1    7.34    0.60
  -9   8  -1    7.50    0.55
   9  -8  -1    8.91    0.64
   9   8  -1    8.02    0.57
   9  -8   1    7.42    0.62
  -9   8   1    7.27    0.54
  10   8   1    0.78    0.32
  10  -8  -1    1.13    0.39
 -10   8   1    1.51    0.34
  10  -8   1    1.04    0.39
  10   8  -1    1.51    0.39
   0   8   2  128.07    4.71
   0   8   2  125.17    4.91
   0   8  -2  125.18    4.93
   1   8   2   15.65    0.70
   1  -8  -2   18.34    0.70
   1   8   2   17.46    0.69
   1   8  -2   17.51    0.73
  -1   8   2   15.89    0.67
   2  -8  -2  153.28    5.82
  -2   8  -2  149.50    5.54
   2   8   2  144.97    5.82
   2   8   2  157.90    5.59
  -2   8   2  152.49    5.56
   2   8  -2  146.75    5.84
  -2   8   2  136.26    5.55
   2  -8   2  152.87    5.84
  -3   8  -2    1.04    0.11
   3   8   2    1.43    0.15
   3   8   2    1.20    0.15
   3  -8  -2    0.98    0.13
  -3   8   2    1.63    0.15
   3   8  -2    1.20    0.15
   3  -8   2    1.13    0.16
  -3   8   2    1.13    0.09
   4   8   2    2.10    0.20
   4   8   2    2.34    0.21
  -4   8  -2    2.33    0.19
   4  -8  -2    1.79    0.19
   4  -8   2    2.35    0.22
   4   8  -2    2.28    0.23
  -4   8   2    2.60    0.21
   5  -8  -2   70.39    2.87
   5   8   2   70.34    2.87
   5   8   2   72.83    2.74
  -5   8  -2   69.16    2.72
   5   8  -2   70.40    2.74
   5  -8   2   75.21    2.88
   5   8  -2   68.88    2.89
  -5   8   2   74.46    2.74
   6   8   2    4.64    0.32
   6   8   2    4.57    0.36
  -6   8  -2    4.21    0.33
   6  -8  -2    5.35    0.35
   6   8  -2    4.52    0.31
   6   8  -2    4.60    0.36
  -6   8   2    4.47    0.35
   6  -8   2    4.71    0.35
   7   8   2    1.28    0.22
   7  -8  -2    1.83    0.29
   7   8   2    1.42    0.26
  -7   8  -2    1.43    0.23
   7   8  -2    1.68    0.23
  -7   8   2    1.58    0.25
   7  -8   2    1.42    0.28
   7   8  -2    1.77    0.30
   8   8   2    3.00    0.34
  -8   8  -2    2.98    0.31
   8  -8  -2    2.57    0.37
  -8   8   2    2.72    0.33
   8  -8   2    2.52    0.37
   8   8  -2    3.04    0.38
  -9   8  -2    1.97    0.32
   9  -8  -2    1.64    0.36
   9   8   2    1.57    0.34
   9  -8   2    1.38    0.35
   9   8  -2    1.99    0.38
  -9   8   2    1.23    0.31
  10   8   2    3.30    0.45
  10  -8  -2    3.24    0.47
  10   8  -2    3.70    0.48
  10  -8   2    3.05    0.45
 -10   8   2    3.41    0.40
   0   8  -3    0.74    0.12
   0   8   3    0.65    0.07
   0   8   3    0.51    0.10
   1   8   3  360.33   13.40
   1  -8  -3  368.49   14.01
   1   8   3  354.37   14.02
  -1   8   3  351.59   13.38
   1   8  -3  364.79   14.02
   1  -8   3  365.83   14.02
  -2   8  -3    1.12    0.11
   2   8   3    0.85    0.13
   2   8   3    0.97    0.11
   2  -8  -3    0.73    0.10
   2   8  -3    0.94    0.13
  -2   8   3    1.09    0.12
  -2   8   3    1.22    0.10
   2  -8   3    1.18    0.15
   3   8   3    0.40    0.12
   3   8   3    0.45    0.11
   3  -8  -3    0.22    0.09
  -3   8   3    0.18    0.11
   3   8  -3    0.35    0.14
  -3   8   3    0.28    0.07
   3  -8   3    0.30    0.11
   4   8   3   45.60    1.92
  -4   8  -3   45.46    1.82
   4   8   3   48.64    1.84
   4  -8  -3   46.92    1.92
   4   8  -3   46.81    1.95
   4  -8   3   50.19    1.95
  -4   8   3   49.18    1.84
   5  -8  -3   51.76    2.16
   5   8   3   53.89    2.16
   5   8   3   52.48    2.06
  -5   8  -3   54.31    2.04
   5   8  -3   52.57    2.19
   5  -8   3   53.54    2.18
  -5   8   3   52.69    2.06
   6   8   3    2.53    0.25
   6   8   3    2.57    0.24
  -6   8  -3    2.63    0.24
   6  -8  -3    2.42    0.28
   6   8  -3    2.79    0.31
  -6   8   3    2.42    0.27
   6   8  -3    2.87    0.25
   6  -8   3    2.82    0.28
  -7   8  -3    1.62    0.24
   7   8   3    1.98    0.29
   7  -8  -3    1.56    0.28
   7   8   3    1.86    0.24
  -7   8   3    2.37    0.28
   7  -8   3    2.08    0.28
   7   8  -3    1.82    0.28
  -8   8  -3    6.75    0.44
   8   8   3    6.40    0.50
   8  -8  -3    5.89    0.51
  -8   8   3    6.62    0.45
   8   8  -3    6.59    0.55
   8  -8   3    7.14    0.55
   9   8   3    2.68    0.38
   9  -8  -3    2.40    0.41
   9   8  -3    2.98    0.42
  -9   8   3    2.62    0.35
   9  -8   3    3.01    0.43
  10   8   3    1.79    0.40
  10  -8  -3    1.37    0.36
 -10   8   3    1.73    0.36
  10   8  -3    2.10    0.43
  10  -8   3    1.97    0.43
   0   8   4   84.51    3.12
   0   8   4   82.07    3.23
   0   8  -4   82.39    3.27
   1   8   4  149.94    5.69
   1  -8  -4  155.92    5.92
   1   8   4  155.35    5.92
  -1   8   4  148.11    5.68
   1  -8   4  156.05    5.97
   1   8  -4  148.65    5.96
   2   8   4   26.85    1.25
   2   8   4   31.50    1.29
   2  -8  -4   35.56    1.29
  -2   8  -4   34.05    1.22
   2  -8   4   32.20    1.32
   2   8  -4   32.21    1.33
  -2   8   4   32.10    1.25
  -2   8   4   32.26    1.23
  -3   8  -4    1.91    0.15
   3   8   4    2.27    0.19
   3   8   4    1.92    0.17
   3   8  -4    1.84    0.20
  -3   8   4    1.89    0.18
  -3   8   4    1.94    0.13
   3  -8   4    2.07    0.20
   4  -8  -4    6.50    0.35
   4   8   4    6.73    0.36
  -4   8  -4    6.39    0.33
   4   8   4    6.53    0.35
   4  -8   4    6.27    0.39
   4   8  -4    6.37    0.41
  -4   8   4    6.56    0.36
   5   8   4   83.75    3.34
   5  -8  -4   83.38    3.35
  -5   8  -4   86.40    3.16
   5   8   4   79.95    3.19
  -5   8   4   84.09    3.20
   5   8  -4   84.04    3.38
   5  -8   4   85.01    3.37
   6  -8  -4    5.01    0.38
   6   8   4    4.98    0.36
   6   8   4    4.64    0.33
  -6   8  -4    5.72    0.33
   6   8  -4    5.11    0.42
   6  -8   4    4.59    0.37
   6   8  -4    5.18    0.34
  -6   8   4    4.44    0.37
  -7   8  -4   11.41    0.54
   7  -8  -4    9.28    0.60
   7   8   4   10.19    0.59
   7   8   4   10.54    0.53
   7  -8   4   10.56    0.63
  -7   8   4   10.53    0.57
   7   8  -4    9.95    0.61
   8  -8  -4    5.74    0.52
   8   8   4    6.01    0.49
  -8   8   4    6.34    0.44
   8   8  -4    6.18    0.54
   8  -8   4    6.29    0.53
   9   8   4    1.21    0.33
   9  -8  -4    0.37    0.32
   9   8  -4    0.92    0.35
  -9   8   4    0.66    0.26
   9  -8   4    0.68    0.29
  10  -8  -4    6.78    0.63
  10   8   4    6.69    0.58
  10  -8   4    6.41    0.62
  10   8  -4    6.17    0.60
 -10   8   4    6.04    0.52
   0   8   5    0.41    0.10
   0   8  -5    0.41    0.12
   0   8   5    0.57    0.05
   1   8   5   22.11    0.90
   1   8   5   22.61    0.90
   1  -8  -5   24.07    0.90
   1  -8   5   22.16    0.96
   1   8  -5   22.74    0.96
  -1   8   5   21.57    0.89
  -2   8  -5    4.82    0.21
   2   8   5    4.01    0.22
   2  -8  -5    3.54    0.22
   2   8  -5    4.41    0.28
   2  -8   5    4.81    0.28
  -2   8   5    4.56    0.22
  -3   8  -5   13.93    0.58
   3   8   5   15.17    0.62
   3   8   5   14.54    0.62
  -3   8   5   13.97    0.57
  -3   8   5   13.77    0.62
   3   8  -5   14.22    0.67
   3  -8   5   14.32    0.66
   4   8   5   77.27    3.10
   4  -8  -5   81.16    3.11
   4   8   5   77.49    2.98
  -4   8  -5   79.94    2.94
   4   8  -5   75.48    3.14
  -4   8   5   78.97    2.97
   4  -8   5   76.67    3.13
   5  -8  -5   31.48    1.28
   5   8   5   28.43    1.21
   5   8   5   29.08    1.26
  -5   8  -5   31.51    1.18
  -5   8   5   29.10    1.22
  -6   8  -5    4.29    0.31
   6   8   5    3.92    0.31
   6  -8  -5    4.55    0.36
   6   8   5    4.37    0.34
   6   8  -5    3.49    0.37
  -6   8   5    3.94    0.32
   6  -8   5    4.55    0.38
   7   8   5    0.93    0.23
   7   8   5    0.52    0.21
   7  -8  -5    0.56    0.25
  -7   8   5    0.75    0.24
   7   8  -5    1.06    0.29
   7  -8   5    0.88    0.25
   8  -8  -5   50.42    2.21
   8   8   5   51.80    2.17
   8  -8   5   52.02    2.22
   8   8  -5   52.11    2.22
  -8   8   5   50.94    2.07
   9  -8  -5   13.53    0.80
   9   8   5   13.29    0.79
   9  -8   5   13.24    0.80
  -9   8   5   13.98    0.76
   9   8  -5   14.45    0.85
  10  -8  -5    0.17    0.35
  10   8   5    0.13    0.32
 -10   8   5    0.21    0.32
  10  -8   5    0.15    0.37
  10   8  -5    0.01    0.36
   0   8   6   17.35    0.62
   0   8  -6   12.03    0.64
   1   8   6   41.59    1.73
   1   8   6   46.38    1.71
   1  -8  -6   46.18    1.74
  -1   8   6   43.90    1.70
   2   8   6    3.47    0.17
  -2   8  -6    2.86    0.15
   2  -8  -6    2.27    0.17
  -2   8   6    2.96    0.22
  -2   8   6    3.17    0.18
  -3   8  -6    4.28    0.23
   3   8   6    5.04    0.25
   3   8   6    4.41    0.29
   3  -8   6    5.37    0.28
  -3   8   6    4.59    0.23
   5   8   6   68.24    2.66
   5   8   6   70.00    2.77
   5  -8  -6   69.45    2.79
   6  -8  -6    0.24    0.20
   6   8   6    0.96    0.19
   6   8   6    0.32    0.19
   6  -8   6    0.52    0.23
   6   8  -6   -0.20    0.18
  -6   8   6    0.41    0.18
   7  -8  -6   67.73    2.88
   7   8   6   68.67    2.85
   7   8   6   72.89    2.72
   7  -8   6   71.95    2.90
   7   8  -6   72.17    2.91
  -7   8   6   66.17    2.72
   8  -8  -6   10.40    0.67
   8   8   6   10.24    0.64
   8  -8   6   11.16    0.67
   8   8  -6   10.13    0.69
  -8   8   6   11.02    0.63
   9   8   6    2.56    0.38
   9  -8  -6    2.91    0.43
  -9   8   6    2.18    0.35
   9   8  -6    1.67    0.40
   9  -8   6    2.33    0.38
  10  -8  -6   -0.13    0.32
  10   8   6    0.57    0.35
  10  -8   6    0.92    0.35
 -10   8   6    0.23    0.34
   0   8   7    0.38    0.11
   1  -8   7    0.96    0.13
   2   8   7    3.62    0.19
   2  -8  -7    3.65    0.19
  -2   8   7    3.24    0.20
  -2   8   7    3.35    0.25
   2  -8   7    3.89    0.26
   3   8   7   43.48    1.59
   3   8   7   40.10    1.55
  -3   8   7   32.99    1.53
  -3   8   7   39.14    1.51
   3  -8   7   41.95    1.56
   5  -8  -7    2.77    0.25
   5   8   7    1.96    0.20
   5   8   7    1.40    0.20
   5   8  -7    1.61    0.22
  -5   8   7    1.18    0.19
   5  -8   7    0.69    0.16
   6   8   7   12.05    0.61
   6   8   7   12.83    0.63
   6  -8  -7   13.11    0.66
   6  -8   7   12.91    0.67
   6   8  -7   12.75    0.71
  -6   8   7   12.28    0.62
   7  -8  -7    0.23    0.24
   7   8   7    0.55    0.22
   7   8   7    0.64    0.22
   7  -8   7    0.83    0.26
   7   8  -7    0.69    0.28
  -7   8   7    0.53    0.22
   8   8   7   12.75    0.72
   8  -8  -7   12.68    0.76
   8  -8   7   13.24    0.76
   8   8  -7   13.55    0.76
  -8   8   7   12.70    0.71
   9   8   7    0.37    0.30
   9  -8  -7    0.42    0.32
   9   8  -7    1.04    0.32
   9  -8   7    0.62    0.30
  -9   8   7    0.35    0.30
  10   8   7    0.24    0.33
  10  -8  -7   -0.17    0.33
 -10   8   7    0.11    0.29
   0   8  -8   32.09    1.36
   0   8   8   32.98    1.28
   1   8   8   18.97    0.82
  -1   8   8   20.23    0.82
  -1   8   8   19.50    0.81
   1  -8   8   20.98    0.88
   1   8  -8   19.70    0.88
   1  -8   8   20.25    0.85
   2  -8  -8   14.81    0.62
   2   8   8   14.43    0.61
  -2   8   8   14.35    0.62
   2  -8   8   15.31    0.69
   2  -8   8   15.85    0.68
   2   8  -8   15.18    0.70
  -2   8   8   14.70    0.65
   3   8   8    0.33    0.13
   3   8   8    0.31    0.10
   3  -8  -8    0.26    0.08
   3   8  -8    0.29    0.13
  -3   8   8    0.40    0.14
  -3   8   8    0.31    0.10
   3  -8   8    0.37    0.14
   3  -8   8   -0.02    0.09
   4   8   8    2.85    0.23
   4  -8  -8    2.63    0.23
   4   8   8    2.30    0.22
   4  -8   8    2.58    0.22
  -4   8   8    1.86    0.21
   5   8   8   49.64    2.00
   5   8   8   50.23    1.94
   5  -8  -8   48.92    2.03
   5  -8   8   50.49    1.93
  -5   8   8   49.53    1.95
   5  -8   8   48.87    2.05
   5   8  -8   47.38    2.06
   6   8   8    0.11    0.18
   6   8   8    0.31    0.19
   6  -8  -8    0.24    0.18
   6   8  -8    0.32    0.22
   6  -8   8    0.31    0.21
  -6   8   8    0.49    0.23
   7  -8  -8    5.78    0.47
   7   8   8    5.91    0.43
   7   8   8    6.42    0.46
   7   8  -8    6.52    0.50
   7  -8   8    8.20    0.55
  -7   8   8    6.66    0.48
   8   8   8    0.30    0.25
   8  -8  -8   -0.03    0.27
   8   8  -8    0.58    0.32
  -8   8   8    0.22    0.24
   8  -8   8    0.79    0.33
   9  -8  -8    1.37    0.36
   9   8   8    1.81    0.37
   9  -8   8    1.91    0.36
  -9   8   8    1.96    0.36
   9   8  -8    2.38    0.42
 -10   8   8    1.48    0.34
   0  -8   9    0.08    0.14
   0   8  -9    0.09    0.15
   0   8   9    0.03    0.10
   1   8   9    0.33    0.12
   1   8  -9    0.58    0.15
   1  -8   9    0.16    0.14
  -1   8   9    0.43    0.16
   1  -8   9    0.06    0.13
  -1   8   9    0.28    0.11
   2   8  -9   24.05    1.07
   2  -8   9   25.57    1.08
  -2   8   9   24.60    0.98
   2  -8   9   24.86    1.04
  -2   8   9   24.54    1.00
   3   8   9   40.19    1.53
   3  -8   9   36.57    1.54
   3  -8   9   36.03    1.61
  -3   8   9   39.02    1.49
   3   8  -9   39.29    1.63
  -3   8   9   39.97    1.53
   4   8   9   13.60    0.64
  -4   8   9   14.03    0.64
   4  -8   9   13.94    0.65
   4   8  -9   13.40    0.69
   4  -8   9   13.40    0.69
   5   8   9    2.45    0.26
   5   8  -9    2.73    0.33
  -5   8   9    2.62    0.27
   5  -8   9    2.88    0.25
   5  -8   9    2.72    0.30
   6   8   9    0.01    0.19
   6  -8   9    0.40    0.22
   6   8  -9    0.31    0.26
  -6   8   9    0.22    0.22
   7   8   9    9.36    0.54
   7   8  -9    8.73    0.60
   7  -8   9    9.55    0.60
  -7   8   9    9.53    0.55
   8  -8   9   17.78    0.97
   8   8  -9   19.47    1.01
  -8   8   9   18.85    0.92
   9   8  -9    1.80    0.41
   9  -8   9    1.45    0.36
  -9   8   9    1.79    0.33
 -10   8   9    1.66    0.39
   0   8 -10    0.25    0.16
   0  -8  10    0.38    0.15
   0   8  10    0.11    0.11
   1   8  10    3.17    0.26
  -1   8  10    3.50    0.27
   1  -8  10    3.46    0.28
   1  -8  10    3.31    0.29
  -1   8  10    3.33    0.24
   1   8 -10    3.68    0.28
   2   8 -10   78.01    3.11
   2  -8  10   76.31    3.11
  -2   8  10   76.37    2.94
   2  -8  10   78.99    2.99
  -2   8  10   77.05    2.93
   3   8  10   13.59    0.61
  -3   8  10   13.10    0.57
   3  -8  10   13.00    0.66
   3  -8  10   13.26    0.64
  -3   8  10   12.46    0.60
   3   8 -10   13.17    0.67
   4   8  10   27.53    1.10
  -4   8  10   25.63    1.09
   4   8 -10   27.59    1.18
   4  -8  10   25.88    1.11
   4  -8  10   24.27    1.16
   5   8  10    9.99    0.55
   5  -8  10   10.45    0.58
   5  -8  10   10.74    0.55
   5   8 -10   10.00    0.59
  -5   8  10   10.72    0.57
   6   8  10   16.08    0.74
   6  -8  10   16.26    0.80
   6   8 -10   14.24    0.80
  -6   8  10   15.02    0.76
   7   8  10   16.33    0.80
  -7   8  10   16.76    0.83
   7  -8  10   15.42    0.88
   7   8 -10   17.81    0.89
   8  -8  10    0.90    0.35
   8   8 -10    0.32    0.33
  -8   8  10    0.34    0.25
  -9   8  10    4.09    0.45
   9   8 -10    3.80    0.46
   9  -8  10    3.99    0.51
 -10   8  10    5.17    0.52
   0  -8  11    0.03    0.08
   0   8  11    0.29    0.13
   0   8 -11    0.24    0.16
   1   8  11   15.16    0.67
  -1   8  11   13.86    0.65
   1  -8  11   14.46    0.70
   1  -8  11   15.52    0.73
  -1   8  11   14.92    0.65
   1   8 -11   16.51    0.72
   2  -8  11    8.68    0.50
  -2   8  11    8.85    0.43
   2   8 -11    9.39    0.49
   2  -8  11    8.59    0.48
  -2   8  11    8.11    0.45
   3   8  11    6.46    0.38
  -3   8  11    6.88    0.38
   3  -8  11    6.50    0.42
   3   8 -11    6.53    0.42
  -3   8  11    6.69    0.36
   3  -8  11    5.97    0.42
   4   8  11    3.15    0.29
   4  -8  11    2.97    0.29
   4   8 -11    2.59    0.32
  -4   8  11    2.90    0.29
   4  -8  11    2.75    0.29
   5   8  11   12.99    0.65
   5  -8  11   13.06    0.68
   5  -8  11   13.98    0.73
   5   8 -11   13.68    0.74
  -5   8  11   13.65    0.69
   6   8  11   25.80    1.11
  -6   8  11   25.41    1.12
   6   8 -11   25.56    1.21
   6  -8  11   26.20    1.21
   7   8  11   12.13    0.67
   7  -8  11   12.11    0.76
  -7   8  11   13.08    0.69
   7   8 -11   13.82    0.79
   8   8 -11    2.88    0.41
   8  -8  11    3.82    0.46
  -8   8  11    3.14    0.37
  -9   8  11    0.71    0.34
   9   8 -11    0.87    0.39
   9  -8  11    1.45    0.41
   0   8  12   24.84    1.03
   0   8 -12   25.03    1.10
  -1   8 -12    0.97    0.21
  -1  -8  12    0.26    0.13
   1   8  12    1.04    0.19
  -1   8  12    1.00    0.18
   1   8 -12    1.07    0.22
   1  -8  12    0.79    0.21
  -1   8  12    0.82    0.17
   1  -8  12    1.01    0.20
   2  -8  12   53.80    2.22
  -2   8  12   54.42    2.09
  -2   8  12   52.35    2.09
   2  -8  12   53.73    2.16
   2   8 -12   55.74    2.23
   3   8  12   18.33    0.82
   3  -8  12   17.51    0.85
   3   8 -12   18.99    0.88
   3  -8  12   19.05    0.89
  -3   8  12   18.55    0.81
  -3   8  12   19.36    0.80
   4   8  12    2.12    0.25
  -4   8  12    2.98    0.30
   4  -8  12    2.18    0.28
   4  -8  12    2.48    0.29
   4   8 -12    3.07    0.31
   5   8  12    3.93    0.34
  -5   8  12    3.93    0.37
   5  -8  12    3.98    0.35
   5  -8  12    4.29    0.40
   5   8 -12    3.81    0.40
   6   8  12    2.48    0.31
   6  -8  12    2.45    0.36
   6   8 -12    3.02    0.35
  -6   8  12    2.50    0.33
   7   8  12   15.88    0.81
   7   8 -12   17.21    0.93
   7  -8  12   16.13    0.88
  -7   8  12   16.42    0.84
   8   8  12    0.93    0.29
   8   8 -12    0.64    0.36
   8  -8  12    0.67    0.36
  -8   8  12    1.26    0.30
  -9   8  12    4.98    0.50
   0   8  13    0.41    0.18
   0   8 -13    0.45    0.19
   0   8  13    0.36    0.18
   0  -8  13    0.25    0.20
  -1   8 -13   26.31    1.14
   1   8  13   25.57    1.08
  -1  -8  13   26.01    1.13
  -1   8  13   25.47    1.06
   1  -8  13   25.90    1.14
   1   8 -13   24.96    1.13
  -1   8  13   25.89    1.06
   2   8  13   32.79    1.38
   2  -8  13   35.44    1.45
   2   8 -13   33.87    1.47
  -2   8  13   35.06    1.37
   2  -8  13   33.09    1.47
  -2   8  13   34.86    1.38
   3   8  13   31.70    1.29
   3  -8  13   31.51    1.37
  -3   8  13   32.73    1.29
   3   8 -13   29.65    1.36
  -3   8  13   31.88    1.26
   3  -8  13   30.09    1.34
   4   8  13    1.90    0.27
   4   8 -13    1.84    0.30
   4  -8  13    1.28    0.28
   4  -8  13    1.83    0.28
  -4   8  13    2.05    0.28
   5   8  13    9.23    0.55
   5  -8  13    8.99    0.58
   5  -8  13    9.21    0.60
  -5   8  13    9.57    0.56
   5   8 -13    9.48    0.59
   6   8  13   15.14    0.75
   6   8 -13   13.72    0.81
   6  -8  13   14.74    0.78
  -6   8  13   14.14    0.76
   7   8  13   15.04    0.80
   7   8 -13   16.47    0.92
  -7   8  13   16.18    0.83
   7  -8  13   15.94    0.90
   8   8  13    1.27    0.33
  -8   8  13    1.58    0.36
   8   8 -13    1.29    0.39
   8  -8  13    0.73    0.38
  -9   8  13    0.03    0.33
   0  -8  14   67.32    2.60
   0   8  14   63.31    2.53
   0   8 -14   64.61    2.67
   0   8  14   66.41    2.51
  -1  -8  14   29.52    1.25
  -1   8 -14   28.81    1.27
   1   8  14   28.05    1.19
  -1   8  14   28.85    1.18
  -1   8  14   28.77    1.17
   1   8 -14   27.68    1.25
   1  -8  14   29.26    1.26
   2   8  14   63.42    2.43
  -2   8  14   59.41    2.40
   2  -8  14   63.95    2.49
   2   8 -14   63.77    2.56
   2  -8  14   58.90    2.55
  -2   8  14   63.28    2.41
   3   8  14   26.55    1.13
   3   8 -14   26.62    1.20
   3  -8  14   25.28    1.18
   3  -8  14   25.38    1.19
  -3   8  14   27.39    1.10
  -3   8  14   26.27    1.12
   4   8  14   10.58    0.55
   4   8 -14   10.03    0.62
   4  -8  14    9.73    0.61
  -4   8  14    9.75    0.57
   4  -8  14   10.29    0.61
   5   8  14    2.02    0.30
   5  -8  14    2.71    0.33
  -5   8  14    2.56    0.32
   5  -8  14    2.21    0.34
   5   8 -14    2.51    0.36
   6   8  14    4.05    0.39
   6  -8  14    3.63    0.40
  -6   8  14    4.36    0.42
   6   8 -14    4.71    0.45
   7   8  14   10.24    0.64
  -7   8  14   11.04    0.67
   7  -8  14    9.79    0.71
   7   8 -14   10.50    0.74
   8   8  14    0.06    0.28
  -8   8  14    0.61    0.29
   8   8 -14    0.14    0.30
   8  -8  14    0.36    0.37
   0   8  15    0.32    0.20
   0   8 -15    0.42    0.21
   0   8  15    0.24    0.19
   0  -8  15   -0.10    0.22
  -1  -8  15   44.34    1.76
   1   8  15   41.62    1.70
  -1   8 -15   40.77    1.78
  -1   8  15   43.33    1.67
   1  -8  15   42.21    1.76
   1   8 -15   41.63    1.78
  -1   8  15   40.85    1.68
   2   8  15    5.73    0.40
   2   8 -15    5.94    0.44
  -2   8  15    6.47    0.41
   2  -8  15    6.48    0.48
  -2   8  15    7.21    0.43
   2  -8  15    6.53    0.50
   3   8  15    0.56    0.21
  -3   8  15    1.06    0.22
  -3   8  15    0.72    0.23
   3  -8  15    0.67    0.25
   3  -8  15    0.43    0.22
   3   8 -15    1.12    0.28
   4   8  15   12.00    0.64
  -4   8  15   11.35    0.63
   4  -8  15   11.14    0.65
   4   8 -15   11.65    0.66
   4  -8  15   11.95    0.68
   5   8  15    3.84    0.38
   5   8 -15    3.68    0.42
   5  -8  15    3.55    0.38
   5  -8  15    3.47    0.39
  -5   8  15    4.19    0.40
   6   8  15   12.52    0.71
  -6   8  15   13.00    0.71
   6   8 -15   12.60    0.77
   6  -8  15   12.08    0.76
   7   8  15    0.03    0.28
   7  -8  15    0.32    0.29
   7   8 -15    0.09    0.34
  -7   8  15    0.69    0.32
   8   8  15    0.70    0.34
  -8   8  15    0.69    0.34
   0   8 -16   12.04    0.65
   0   8  16   12.23    0.63
   0   8  16   12.07    0.61
   0  -8  16   12.65    0.68
  -1   8 -16   25.97    1.17
   1   8  16   24.71    1.10
   1   8  16   26.46    1.07
  -1  -8  16   24.14    1.14
   1   8 -16   25.48    1.15
   1  -8  16   26.05    1.16
  -1   8  16   24.71    1.09
  -1   8  16   25.90    1.07
   2   8  16    3.30    0.35
  -2   8  16    4.25    0.34
   2  -8  16    4.30    0.40
   2   8 -16    4.48    0.40
   2  -8  16    4.05    0.41
  -2   8  16    4.33    0.36
   3   8  16    3.90    0.35
   3  -8  16    3.75    0.41
   3  -8  16    3.85    0.39
  -3   8  16    3.76    0.33
   3   8 -16    4.07    0.40
  -3   8  16    4.81    0.39
   4   8  16    3.13    0.35
   4   8 -16    2.98    0.38
  -4   8  16    3.12    0.35
   4  -8  16    3.04    0.37
   4  -8  16    3.32    0.39
   5   8  16    0.65    0.28
  -5   8  16    0.73    0.29
   5   8 -16    0.73    0.32
   5  -8  16    0.36    0.26
   5  -8  16    0.84    0.31
   6   8  16    0.78    0.30
   6   8 -16    0.40    0.32
   6  -8  16    0.38    0.32
  -6   8  16   -0.10    0.29
   7   8  16    5.63    0.50
   7   8 -16    6.18    0.55
  -7   8  16    6.18    0.52
   7  -8  16    6.17    0.58
   8   8  16    0.07    0.31
  -8   8  16    0.19    0.34
   0   8  17    0.61    0.23
   0   8  17    0.43    0.24
   0   8 -17    0.69    0.27
   0  -8  17   -0.01    0.21
  -1   8 -17   -0.01    0.25
  -1  -8  17    0.38    0.27
   1   8  17    0.52    0.25
  -1   8  17    0.73    0.23
   1  -8  17    0.89    0.26
   1   8 -17    0.29    0.26
  -1   8  17    0.72    0.24
  -2  -8  17    1.52    0.32
   2   8  17    1.32    0.25
  -2   8 -17    1.55    0.33
  -2   8  17    1.81    0.27
   2  -8  17    1.16    0.30
   2   8 -17    1.13    0.26
  -2   8  17    1.10    0.24
   3   8  17   10.51    0.59
  -3   8  17   10.66    0.58
   3  -8  17   10.52    0.68
  -3   8  17   11.12    0.61
   3   8 -17    9.91    0.65
   3  -8  17    9.69    0.64
   4   8  17    7.28    0.50
   4   8 -17    8.08    0.58
   4  -8  17    7.82    0.57
  -4   8  17    6.82    0.51
   4  -8  17    6.75    0.57
   5   8  17    1.53    0.32
   5   8 -17    1.15    0.34
   5  -8  17    1.30    0.35
  -5   8  17    1.48    0.32
   6   8  17   19.16    0.97
   6  -8  17   19.42    1.03
  -6   8  17   19.25    0.96
   6   8 -17   19.44    1.03
   7   8  17   -0.02    0.30
  -7   8  17    0.24    0.32
   7  -8  17   -0.06    0.34
   7   8 -17    0.28    0.31
   0   8  18   13.35    0.70
   0  -8  18   12.80    0.73
   0   8 -18   12.85    0.73
  -1  -8  18    7.05    0.57
   1   8  18    6.56    0.50
  -1   8 -18    7.34    0.54
   1  -8  18    7.14    0.57
   1   8 -18    7.11    0.54
  -1   8  18    7.33    0.47
   2   8  18    1.15    0.29
  -2   8 -18    0.71    0.31
  -2  -8  18    0.35    0.29
  -2   8  18    0.72    0.25
  -2   8  18    0.91    0.27
   2   8 -18    0.73    0.29
   2  -8  18    0.27    0.28
   3   8  18    0.85    0.29
   3  -8  18    0.42    0.30
   3   8 -18    1.11    0.31
   3  -8  18    0.77    0.27
  -3   8  18    0.58    0.28
  -3   8  18    1.12    0.28
   4   8  18   49.48    2.02
   4  -8  18   48.85    2.10
   4  -8  18   48.38    2.07
  -4   8  18   48.27    1.98
   4   8 -18   48.95    2.11
   5   8  18    0.68    0.32
   5   8 -18    1.08    0.34
   5  -8  18    1.29    0.34
   5  -8  18    0.53    0.33
  -5   8  18    0.62    0.30
   6   8  18    1.09    0.35
   6   8 -18    1.40    0.37
   6  -8  18    1.28    0.33
  -6   8  18    1.66    0.36
   7   8  18    1.12    0.36
  -7   8  18    0.96    0.36
   0  -8  19   -0.26    0.28
   0   8 -19    0.15    0.28
   0   8  19    0.13    0.26
  -1   8 -19    5.48    0.48
   1   8  19    5.61    0.46
  -1  -8  19    5.42    0.50
   1   8 -19    5.10    0.47
  -1   8  19    5.27    0.43
   1  -8  19    5.28    0.48
  -2  -8  19    0.38    0.26
   2   8  19    0.14    0.27
  -2   8 -19    0.68    0.32
  -2   8  19    0.32    0.26
   2   8 -19    0.13    0.28
   2  -8  19    0.22    0.29
   3   8  19   21.00    1.02
  -3   8 -19   22.17    1.10
   3   8 -19   22.37    1.10
   3  -8  19   22.37    1.12
  -3   8  19   21.88    1.00
   3  -8  19   21.71    1.08
   4   8  19    1.36    0.31
  -4   8  19    1.58    0.32
   4  -8  19    1.98    0.37
   4   8 -19    1.27    0.36
   4  -8  19    1.41    0.36
   5   8  19    0.23    0.27
   5  -8  19   -0.08    0.30
   5  -8  19    0.41    0.32
  -5   8  19    0.39    0.30
   5   8 -19    0.38    0.34
   6   8  19    0.57    0.30
  -6   8  19    0.83    0.34
   6  -8  19    0.92    0.37
   6   8 -19    0.80    0.36
   0   8 -20   43.28    1.89
   0   8  20   43.28    1.81
   0  -8  20   43.63    1.88
  -1   8 -20    0.88    0.33
   1   8  20    0.57    0.30
  -1  -8  20    0.84    0.30
  -1   8  20    0.62    0.28
   1   8 -20    1.08    0.33
   1  -8  20    0.73    0.33
   2   8  20    1.70    0.35
  -2  -8  20    1.98    0.38
  -2   8 -20    1.97    0.39
   2   8 -20    1.91    0.36
   2  -8  20    1.66    0.39
  -2   8  20    1.92    0.34
  -3   8 -20    1.82    0.41
   3   8  20    2.22    0.38
   3   8 -20    1.61    0.33
   4   8  20    8.04    0.64
   4  -8  20    8.52    0.69
   4   8 -20    8.64    0.65
   4  -8  20    8.10    0.59
   5   8  20    0.17    0.33
  -5   8  20    0.37    0.31
   5  -8  20    0.19    0.33
   5   8 -20    0.19    0.35
   5  -8  20   -0.05    0.32
   0  -8  21   -0.14    0.31
   0   8 -21    0.08    0.31
   0   8  21    0.33    0.31
  -1  -8  21    4.46    0.50
   1   8  21    3.19    0.38
  -1   8 -21    3.41    0.46
  -1   8  21    3.32    0.40
   1   8 -21    3.75    0.45
   1  -8  21    3.57    0.46
  -2  -8  21    7.43    0.60
  -2   8 -21    6.84    0.61
   2   8  21    6.87    0.59
  -2   8  21    7.68    0.61
   2  -8  21    8.63    0.68
   2   8 -21    7.06    0.61
   3   8  21   11.42    0.72
   3   8 -21    9.80    0.72
   3  -8  21   10.25    0.77
   4   8  21    0.65    0.36
   4  -8  21    0.25    0.34
   0   8  22   18.63    0.99
   0  -8  22   20.00    1.06
  -1  -8  22    0.01    0.33
   1   8  22    0.03    0.31
   1  -8  22   -0.10    0.34
  -1   8  22    0.23    0.32
   2   8  22    0.61    0.31
  -2  -8  22    0.54    0.31
   2  -8  22    0.32    0.36
  -2   8  22    0.87    0.34
   3   8  22    4.57    0.50
   3  -8  22    4.98    0.56
   0   8  23    0.72    0.36
   0  -8  23   -0.08    0.35
   1   8  23    4.04    0.46
  -1  -8  23    5.10    0.54
   1  -8  23    4.92    0.56
  -1   8  23    5.74    0.53
   2   8  23    1.82    0.37
  -2   8  23    2.31    0.40
   2  -8  23    2.24    0.46
   0   9   0    0.03    0.08
   1   9   0   -0.10    0.09
   1  -9   0   -0.07    0.06
  -2   9   0    3.11    0.19
   2   9   0    2.48    0.20
   2  -9   0    2.60    0.18
   2   9   0    2.74    0.21
  -3   9   0    0.06    0.10
   3   9   0    0.18    0.11
   3   9   0    0.13    0.12
   3  -9   0    0.10    0.09
   4   9   0   77.84    2.84
  -4   9   0   74.74    2.82
   4  -9   0   71.92    2.97
   4   9   0   72.67    2.97
  -5   9   0    2.04    0.22
   5   9   0    2.35    0.25
   5  -9   0    1.91    0.23
   5   9   0    1.77    0.22
  -6   9   0   39.13    1.54
   6  -9   0   37.50    1.63
   6   9   0   38.97    1.64
   6   9   0   38.11    1.53
   7   9   0   -0.12    0.19
   7   9   0    0.25    0.18
   7  -9   0   -0.12    0.18
  -7   9   0    0.41    0.20
   8  -9   0   29.57    1.43
   8   9   0   34.39    1.45
  -8   9   0   31.03    1.32
  -9   9   0   -0.13    0.24
   9   9   0    0.00    0.28
   9  -9   0    0.29    0.31
  10  -9   0    1.75    0.38
 -10   9   0    1.07    0.33
  10   9   0    2.19    0.42
   0   9   1   19.23    0.80
   0   9   1   18.94    0.78
   0   9  -1   19.76    0.81
   1   9   1  139.10    5.21
   1  -9  -1  140.01    5.43
   1   9   1  139.05    5.43
  -1   9   1  139.93    5.20
   1   9  -1  137.31    5.44
   2   9   1   16.54    0.72
   2   9   1   16.96    0.71
  -2   9  -1   17.99    0.68
  -2   9   1   16.10    0.69
  -2   9   1   16.30    0.67
   2  -9   1   17.34    0.73
   2   9  -1   16.98    0.74
   3  -9  -1    1.01    0.14
   3   9   1    0.99    0.16
   3   9   1    1.02    0.15
  -3   9  -1    1.38    0.13
  -3   9   1    1.71    0.16
   3  -9   1    1.01    0.14
  -3   9   1    1.22    0.11
   3   9  -1    1.01    0.15
   3   9  -1    1.35    0.16
   4   9   1    1.67    0.20
   4  -9  -1    1.99    0.20
  -4   9  -1    1.55    0.17
   4   9   1    1.74    0.20
   4   9  -1    1.50    0.20
   4  -9   1    1.49    0.19
   4   9  -1    1.64    0.19
  -4   9   1    2.00    0.19
   5  -9  -1   47.15    1.94
   5   9   1   45.32    1.84
   5   9   1   46.71    1.94
  -5   9  -1   48.76    1.83
   5  -9   1   49.87    1.95
  -5   9   1   48.75    1.84
   5   9  -1   44.95    1.95
   5   9  -1   45.39    1.84
   6   9   1    2.42    0.24
   6   9   1    1.99    0.26
  -6   9  -1    1.84    0.22
   6  -9  -1    2.35    0.26
   6  -9   1    2.05    0.27
  -6   9   1    1.79    0.24
   6   9  -1    2.06    0.26
   6   9  -1    2.10    0.23
   7  -9  -1    0.53    0.21
   7   9   1    0.62    0.19
  -7   9  -1    0.24    0.20
   7   9   1    0.56    0.24
   7   9  -1    0.40    0.22
  -7   9   1    0.70    0.22
   7  -9   1    0.63    0.22
   7   9  -1    0.86    0.20
  -8   9  -1    5.80    0.43
   8   9   1    6.33    0.51
   8  -9  -1    5.73    0.50
  -8   9   1    6.25    0.45
   8   9  -1    6.20    0.52
   8  -9   1    5.57    0.49
   9  -9  -1    2.41    0.40
  -9   9  -1    2.23    0.31
   9   9   1    1.86    0.36
   9  -9   1    2.09    0.35
  -9   9   1    2.15    0.32
   9   9  -1    2.12    0.39
  10   9   1    0.26    0.34
  10  -9  -1    0.49    0.32
 -10   9   1    0.43    0.31
  10   9  -1    0.39    0.31
  10  -9   1    0.46    0.32
   0   9  -2    0.82    0.12
   0   9   2    0.95    0.12
   0   9   2    1.02    0.10
   1   9   2   15.04    0.64
   1  -9  -2   15.34    0.64
   1   9   2   15.42    0.63
   1  -9   2   15.49    0.66
   1   9  -2   15.08    0.66
  -1   9   2   14.62    0.62
  -2   9  -2   16.44    0.66
   2   9   2   16.15    0.71
   2   9  -2   16.45    0.73
  -2   9   2   16.17    0.66
   2  -9   2   17.87    0.73
  -2   9   2   16.51    0.69
   3   9   2    3.63    0.25
   3  -9  -2    3.30    0.22
   3   9   2    3.94    0.25
  -3   9  -2    3.20    0.21
  -3   9   2    3.64    0.23
  -3   9   2    3.41    0.18
   3   9  -2    3.50    0.27
   3  -9   2    3.30    0.24
   4   9   2   39.19    1.62
   4  -9  -2   38.83    1.62
   4   9   2   41.91    1.56
  -4   9  -2   40.17    1.54
   4  -9   2   37.45    1.63
   4   9  -2   39.01    1.64
  -4   9   2   40.17    1.55
   5  -9  -2    8.66    0.49
  -5   9  -2    8.79    0.46
   5   9   2    7.92    0.46
   5   9   2    9.38    0.48
   5  -9   2   10.41    0.52
   5   9  -2    9.93    0.49
  -5   9   2    9.44    0.47
   5   9  -2    9.26    0.51
   6  -9  -2    0.69    0.18
  -6   9  -2    0.67    0.18
   6   9   2    0.83    0.19
   6   9   2    0.85    0.21
  -6   9   2    0.75    0.18
   6   9  -2    1.42    0.23
   6   9  -2    0.58    0.18
   6  -9   2    1.40    0.22
   7   9   2    7.04    0.49
  -7   9  -2    7.21    0.43
   7  -9  -2    7.46    0.51
   7   9   2    7.86    0.45
   7   9  -2    6.68    0.51
  -7   9   2    6.70    0.43
   7   9  -2    6.84    0.42
   7  -9   2    6.92    0.48
   8   9   2   39.64    1.70
  -8   9  -2   37.25    1.57
   8  -9  -2   39.37    1.72
   8   9  -2   39.13    1.72
  -8   9   2   38.43    1.59
   8  -9   2   38.37    1.72
   9  -9  -2   12.09    0.77
  -9   9  -2   12.24    0.66
   9   9   2   12.47    0.74
  -9   9   2   12.35    0.68
   9  -9   2   10.43    0.76
   9   9  -2   12.31    0.77
  10   9   2    0.42    0.30
  10  -9  -2    0.02    0.35
  10   9  -2    0.22    0.36
 -10   9   2    0.25    0.30
  10  -9   2    0.03    0.31
   0   9   3   59.84    2.38
   0   9  -3   61.74    2.42
   0   9   3   60.53    2.31
   1   9   3   23.60    0.94
   1   9   3   24.02    0.96
   1  -9  -3   24.48    0.96
   1  -9   3   24.00    1.00
  -1   9   3   22.40    0.93
   1   9  -3   23.20    0.99
   2   9   3   17.62    0.76
   2  -9  -3   16.70    0.76
  -2   9  -3   19.83    0.72
   2   9  -3   17.79    0.79
  -2   9   3   17.68    0.72
   2  -9   3   19.41    0.80
  -2   9   3   18.65    0.75
   3   9   3    0.95    0.15
   3  -9  -3    0.81    0.13
  -3   9  -3    1.01    0.12
   3   9   3    0.83    0.13
  -3   9   3    1.03    0.10
   3   9  -3    0.59    0.16
   3  -9   3    0.93    0.15
  -3   9   3    0.95    0.15
   4   9   3    1.64    0.20
   4   9   3    1.77    0.19
  -4   9  -3    1.68    0.17
   4  -9  -3    1.26    0.17
   4   9  -3    1.47    0.20
  -4   9   3    1.64    0.18
   4  -9   3    1.90    0.22
   5   9   3    9.76    0.51
   5   9   3   10.41    0.53
   5  -9  -3   10.93    0.54
  -5   9  -3   10.20    0.49
   5  -9   3   10.35    0.56
   5   9  -3    9.97    0.56
   5   9  -3   10.25    0.53
  -5   9   3   11.40    0.52
   6   9   3    0.03    0.16
   6  -9  -3    0.34    0.16
  -6   9  -3    0.29    0.15
   6   9   3    0.29    0.18
  -6   9   3    0.16    0.19
   6   9  -3    0.13    0.17
   6   9  -3    0.27    0.22
   6  -9   3    0.21    0.21
  -7   9  -3    4.57    0.36
   7  -9  -3    4.78    0.42
   7   9   3    4.20    0.35
   7   9   3    4.63    0.39
  -7   9   3    4.64    0.39
   7   9  -3    4.52    0.35
   7  -9   3    4.30    0.39
   7   9  -3    5.07    0.43
   8  -9  -3    0.58    0.29
   8   9   3    0.43    0.26
  -8   9  -3    0.45    0.23
  -8   9   3    0.50    0.26
   8   9  -3    0.33    0.30
   8  -9   3    0.38    0.28
   9   9   3    0.91    0.32
   9  -9  -3    1.25    0.36
  -9   9   3    1.09    0.31
   9   9  -3    1.40    0.36
   9  -9   3    1.40    0.33
  10   9   3    3.52    0.47
  10  -9  -3    3.48    0.49
 -10   9   3    3.24    0.42
  10  -9   3    3.43    0.50
  10   9  -3    2.92    0.44
   0   9   4    0.01    0.10
   0   9  -4    0.00    0.11
   0   9   4    0.04    0.06
   1  -9  -4    4.36    0.21
   1   9   4    4.19    0.24
   1   9   4    4.33    0.21
   1  -9   4    4.44    0.26
   1   9  -4    3.73    0.25
  -1   9   4    4.00    0.23
   2  -9  -4    1.00    0.11
   2   9   4    1.14    0.11
  -2   9  -4    0.95    0.11
   2   9  -4    0.99    0.16
  -2   9   4    1.23    0.15
   2  -9   4    0.87    0.14
  -2   9   4    1.01    0.11
  -3   9  -4    6.52    0.28
   3  -9  -4    4.69    0.29
   3   9   4    4.95    0.31
   3   9   4    5.85    0.30
  -3   9   4    6.29    0.26
  -3   9   4    6.13    0.32
   3  -9   4    5.88    0.34
   3   9  -4    4.90    0.34
   4   9   4   19.40    0.85
   4   9   4   18.99    0.83
  -4   9  -4   18.60    0.80
   4  -9  -4   19.74    0.86
  -4   9   4   20.80    0.83
   4  -9   4   19.76    0.89
   4   9  -4   20.96    0.91
  -5   9  -4   23.19    0.91
   5   9   4   21.78    0.97
   5   9   4   21.60    0.93
   5  -9  -4   20.84    0.98
  -5   9   4   22.44    0.95
   5  -9   4   22.99    1.01
   5   9  -4   22.22    1.02
  -6   9  -4    2.28    0.23
   6   9   4    2.31    0.24
   6   9   4    1.96    0.25
   6  -9  -4    2.50    0.28
   6  -9   4    2.44    0.28
   6   9  -4    2.26    0.26
   6   9  -4    2.14    0.31
  -6   9   4    2.04    0.25
   7   9   4   13.68    0.69
   7  -9  -4   13.12    0.73
   7   9   4   13.56    0.66
   7   9  -4   14.20    0.76
   7  -9   4   14.05    0.75
   7   9  -4   12.64    0.66
  -7   9   4   13.28    0.68
   8   9   4    0.27    0.26
   8  -9  -4    0.35    0.28
   8  -9   4    0.43    0.25
   8   9  -4    0.14    0.25
  -8   9   4    0.50    0.25
   9  -9  -4    0.40    0.31
   9   9   4    0.58    0.26
   9   9  -4    0.78    0.31
  -9   9   4    0.91    0.30
   9  -9   4    0.73    0.35
  10   9   4   -0.17    0.32
  10  -9  -4   -0.12    0.34
  10  -9   4    0.18    0.37
  10   9  -4   -0.21    0.30
 -10   9   4    0.10    0.32
   0   9   5   53.34    2.04
   0   9  -5   51.22    2.09
   0   9   5   51.67    1.99
   1   9   5    7.83    0.31
   1  -9  -5    6.82    0.31
   1   9   5    7.08    0.35
   1   9  -5    7.28    0.38
   1  -9   5    6.78    0.38
  -1   9   5    6.47    0.33
  -2   9  -5   79.06    3.01
   2  -9  -5   82.09    3.17
   2   9   5   83.45    3.16
   2  -9   5   79.56    3.21
  -2   9   5   78.41    3.03
   2   9  -5   82.07    3.22
   3   9   5    0.78    0.14
  -3   9  -5    1.08    0.11
   3   9   5    0.99    0.12
  -3   9   5    0.93    0.10
   3  -9   5    1.01    0.18
  -3   9   5    0.87    0.14
   3   9  -5    0.98    0.19
   4   9   5    0.41    0.16
   4   9   5    0.64    0.13
   4  -9  -5    0.67    0.14
  -4   9  -5    0.53    0.12
   4   9  -5    0.67    0.19
   4  -9   5    0.46    0.18
  -4   9   5    0.68    0.17
   5  -9  -5    7.09    0.42
  -5   9  -5    7.90    0.38
   5   9   5    7.26    0.41
   5   9   5    7.37    0.42
  -5   9   5    7.56    0.44
   5   9  -5    7.03    0.45
   5  -9   5    7.48    0.45
   6   9   5    0.95    0.22
   6   9   5    0.91    0.20
   6  -9  -5    0.84    0.21
  -6   9   5    1.00    0.23
   6  -9   5    0.69    0.24
   6   9  -5    0.65    0.26
   7   9   5    1.70    0.27
   7  -9  -5    1.64    0.29
   7   9   5    1.25    0.23
   7  -9   5    1.94    0.32
  -7   9   5    2.05    0.29
   7   9  -5    1.67    0.29
   8   9   5    0.03    0.25
   8  -9  -5    0.16    0.27
  -8   9   5    0.29    0.26
   8   9  -5    0.25    0.26
   8  -9   5   -0.10    0.23
   9   9   5    0.19    0.30
   9  -9  -5   -0.07    0.30
  -9   9   5    0.56    0.25
   9  -9   5    0.66    0.30
   9   9  -5    0.49    0.30
  10   9   5    0.86    0.36
  10  -9  -5    0.81    0.34
 -10   9   5    1.14    0.36
  10  -9   5    0.59    0.44
   0   9   6    0.04    0.10
   0   9  -6    0.05    0.11
   1  -9  -6   39.59    1.50
   1   9   6   36.74    1.48
   1   9   6   33.40    1.49
   1   9  -6   41.44    1.58
   1  -9   6   41.08    1.58
  -1   9   6   37.62    1.47
   2   9   6    2.14    0.14
   2  -9  -6    1.97    0.15
  -2   9  -6    2.42    0.14
   2   9  -6    1.99    0.22
  -2   9   6    1.89    0.16
   2  -9   6    1.88    0.20
   3   9   6    0.92    0.17
   3   9   6    1.17    0.13
  -3   9  -6    1.57    0.13
  -3   9   6    1.41    0.12
   3  -9   6    1.13    0.18
   3   9  -6    1.06    0.18
   4   9   6    0.04    0.13
   4   9   6    0.31    0.13
   4  -9  -6    0.15    0.12
  -4   9   6    0.00    0.04
   4  -9   6    0.08    0.08
   4   9  -6    0.04    0.06
   5  -9  -6   15.94    0.81
   5   9   6   19.81    0.81
   5   9   6   18.31    0.79
  -5   9   6   18.40    0.80
   5   9  -6   16.41    0.85
   5  -9   6   18.11    0.84
   6   9   6    5.86    0.39
   6   9   6    5.81    0.39
   6  -9  -6    6.09    0.44
   6  -9   6    5.86    0.43
   6   9  -6    6.53    0.49
  -6   9   6    6.07    0.42
   7  -9  -6   15.76    0.79
   7   9   6   14.77    0.72
   7   9   6   14.94    0.75
   7  -9   6   13.82    0.78
  -7   9   6   14.11    0.72
   7   9  -6   15.59    0.80
   8  -9  -6    0.71    0.29
   8   9   6    0.49    0.26
  -8   9   6    0.85    0.28
   8   9  -6    0.76    0.29
   8  -9   6    0.88    0.28
   9   9   6   13.05    0.76
   9  -9  -6   12.79    0.80
   9  -9   6   12.85    0.78
  -9   9   6   12.43    0.73
   9   9  -6   12.37    0.81
  10  -9  -6    0.81    0.38
  10   9   6    0.87    0.35
 -10   9   6    1.27    0.36
   0   9   7    2.35    0.18
   1   9   7  124.25    4.75
  -1   9   7  128.57    4.74
   2  -9  -7  114.43    4.35
  -2   9   7  111.28    4.18
  -2   9   7  109.15    4.20
   3   9   7    0.88    0.12
   3   9   7    1.01    0.17
   3  -9  -7    0.32    0.07
  -3   9   7    0.90    0.11
  -3   9   7    0.10    0.06
   4  -9  -7    1.99    0.20
   4   9   7    2.04    0.19
   4   9   7    2.03    0.21
   5  -9  -7    7.96    0.46
   5   9   7    8.25    0.44
   5   9   7    8.02    0.45
   5   9  -7    7.54    0.51
  -5   9   7    8.34    0.47
   5  -9   7    8.15    0.50
   6  -9  -7    1.19    0.23
   6   9   7    1.41    0.23
   6   9   7    1.63    0.23
   6  -9   7    1.81    0.26
   6   9  -7    1.25    0.29
  -6   9   7    1.30    0.23
   7   9   7   10.16    0.54
   7  -9  -7    8.63    0.59
   7   9   7    9.97    0.56
   7   9  -7    9.37    0.61
  -7   9   7    9.58    0.58
   7  -9   7    9.09    0.59
   8  -9  -7    0.37    0.28
   8   9   7    0.60    0.25
   8  -9   7    0.66    0.32
   8   9  -7    0.38    0.32
  -8   9   7    1.04    0.30
   9   9   7   -0.13    0.28
   9  -9  -7   -0.20    0.29
   9  -9   7    0.31    0.34
  -9   9   7   -0.01    0.30
   9   9  -7   -0.07    0.33
  10  -9  -7    5.11    0.58
 -10   9   7    5.69    0.49
   0   9   8    0.42    0.13
   0   9  -8    0.07    0.09
   1   9   8   26.05    1.05
  -1   9   8   26.16    1.04
  -2   9   8   12.56    0.57
  -2   9   8   13.17    0.54
   2  -9   8   11.94    0.59
   3   9   8    1.79    0.20
   3  -9   8    2.14    0.21
  -3   9   8    1.42    0.18
  -3   9   8    1.90    0.16
   4   9   8   10.73    0.54
   4  -9   8   12.56    0.56
   5   9   8    2.35    0.25
   5  -9  -8    1.95    0.24
   5  -9   8    2.02    0.26
  -5   9   8    2.30    0.25
   5   9  -8    1.80    0.29
   6  -9  -8   21.70    0.95
   6   9   8   19.32    0.88
   6   9  -8   18.83    0.96
  -6   9   8   18.07    0.88
   6  -9   8   21.58    0.98
   7   9   8    6.92    0.47
  -7   9   8    8.17    0.53
   7   9  -8    7.74    0.58
   7  -9   8    7.07    0.56
   8  -9   8   24.90    1.21
  -8   9   8   23.57    1.10
   8   9  -8   23.95    1.18
  -9   9   8    0.21    0.31
   9   9  -8   -0.19    0.33
   9  -9   8   -0.15    0.33
 -10   9   8    1.57    0.38
   0   9   9   14.33    0.61
   0   9  -9   13.63    0.67
   1   9   9   48.42    1.77
   1   9  -9   39.27    1.85
  -1   9   9   46.27    1.76
  -1   9   9   47.36    1.75
   2   9  -9   14.25    0.67
   3   9   9    0.88    0.19
   3  -9   9    1.22    0.19
  -3   9   9    0.85    0.19
  -3   9   9    1.08    0.14
   3   9  -9    0.77    0.16
   4   9   9    1.02    0.20
   4  -9   9    1.09    0.19
  -4   9   9    1.36    0.20
   4  -9   9    0.72    0.22
   4   9  -9    0.84    0.21
   5   9   9    1.55    0.23
  -5   9   9    1.30    0.23
   5   9  -9    1.60    0.29
   5  -9   9    1.59    0.25
   6   9   9   -0.12    0.20
  -6   9   9    0.11    0.23
   6  -9   9   -0.19    0.19
   6   9  -9    0.05    0.22
   7   9   9   12.89    0.68
   7  -9   9   13.93    0.75
   7   9  -9   13.44    0.79
  -7   9   9   13.01    0.72
   8   9   9    1.52    0.30
   8  -9   9    1.61    0.37
   8   9  -9    1.63    0.34
  -8   9   9    1.81    0.30
  -9   9   9    0.32    0.27
   9  -9   9   -0.16    0.34
   9   9  -9   -0.11    0.35
 -10   9   9    0.52    0.36
   0   9 -10    0.44    0.18
   0   9  10    0.35    0.14
   1   9  10   11.21    0.51
  -1   9  10    9.95    0.51
   1  -9  10   10.71    0.54
  -1   9  10   10.56    0.49
   1  -9  10   10.62    0.55
   1   9 -10   10.50    0.54
   2  -9  10    0.84    0.19
   2   9 -10    0.73    0.19
  -2   9  10    0.81    0.16
   2  -9  10    0.56    0.18
  -2   9  10    0.71    0.15
   3   9  10   19.71    0.90
  -3   9  10   21.57    0.92
   3  -9  10   22.39    0.98
   3   9 -10   21.32    0.98
  -3   9  10   22.41    0.88
   3  -9  10   21.29    0.94
   4   9  10    7.91    0.44
  -4   9  10    7.09    0.44
   4  -9  10    6.92    0.45
   4   9 -10    7.16    0.49
   4  -9  10    6.91    0.44
   5   9  10    0.46    0.20
   5  -9  10    0.53    0.25
   5   9 -10    0.40    0.22
   5  -9  10    0.44    0.18
  -5   9  10    0.24    0.23
   6   9  10    0.87    0.24
  -6   9  10    1.24    0.25
   6  -9  10    1.24    0.31
   6   9 -10    1.48    0.31
   7   9  10    0.17    0.23
   7  -9  10    0.72    0.31
   7   9 -10    0.55    0.28
  -7   9  10    0.59    0.29
   8   9  10    7.62    0.53
   8   9 -10    8.03    0.65
  -8   9  10    7.97    0.58
   8  -9  10    7.64    0.59
   9  -9  10    0.33    0.36
   9   9 -10    0.21    0.31
  -9   9  10    0.28    0.33
   0   9  11   15.83    0.69
   0   9 -11   16.19    0.76
   1   9  11    2.13    0.21
   1  -9  11    2.32    0.25
  -1   9  11    2.36    0.21
   1   9 -11    2.12    0.24
  -1   9  11    2.07    0.22
   1  -9  11    2.21    0.26
   2  -9  11   16.84    0.80
  -2   9  11   17.17    0.73
   2   9 -11   17.75    0.81
  -2   9  11   16.26    0.74
   2  -9  11   16.54    0.79
   3   9  11    5.40    0.38
   3  -9  11    5.76    0.39
  -3   9  11    5.59    0.33
   3  -9  11    5.51    0.40
  -3   9  11    6.14    0.39
   3   9 -11    5.48    0.43
   4   9  11    1.06    0.22
   4  -9  11    1.41    0.22
  -4   9  11    1.23    0.24
   4   9 -11    0.88    0.26
   4  -9  11    1.37    0.26
   5   9  11    3.03    0.29
  -5   9  11    3.23    0.34
   5  -9  11    3.64    0.35
   5  -9  11    3.51    0.31
   5   9 -11    2.80    0.36
   6   9  11    8.79    0.53
   6   9 -11    8.22    0.57
  -6   9  11    8.15    0.55
   6  -9  11    8.84    0.56
   7   9  11    1.23    0.27
  -7   9  11    0.92    0.31
   7   9 -11    1.29    0.36
   7  -9  11    0.81    0.29
   8   9  11    1.73    0.31
   8  -9  11    1.19    0.32
  -8   9  11    1.06    0.33
   8   9 -11    1.26    0.38
  -9   9  11    3.83    0.46
   0   9 -12    0.13    0.17
   0   9  12    0.28    0.16
   0  -9  12    0.05    0.17
   1   9  12    6.10    0.39
  -1   9 -12    6.18    0.41
  -1   9  12    5.98    0.39
   1  -9  12    7.16    0.44
   1  -9  12    6.68    0.42
  -1   9  12    6.77    0.38
   1   9 -12    6.91    0.44
   2   9  12    6.67    0.41
   2  -9  12    7.45    0.44
  -2   9  12    6.92    0.38
   2  -9  12    6.63    0.46
  -2   9  12    6.96    0.41
   2   9 -12    6.72    0.46
   3   9  12    1.41    0.22
  -3   9  12    2.08    0.21
  -3   9  12    2.41    0.27
   3  -9  12    2.26    0.28
   3   9 -12    1.82    0.29
   3  -9  12    1.96    0.28
   4   9  12   12.44    0.64
   4   9 -12   12.90    0.70
  -4   9  12   13.02    0.64
   4  -9  12   13.94    0.70
   4  -9  12   13.80    0.68
   5   9  12    1.73    0.25
   5  -9  12    2.48    0.29
   5   9 -12    2.01    0.33
  -5   9  12    1.68    0.30
   5  -9  12    2.43    0.31
   6   9  12    5.83    0.45
  -6   9  12    6.11    0.48
   6  -9  12    5.88    0.52
   6   9 -12    5.96    0.49
   7   9  12    7.33    0.53
   7   9 -12    8.13    0.60
   7  -9  12    7.47    0.62
  -7   9  12    7.45    0.53
   8   9  12   10.09    0.63
   8   9 -12   10.25    0.74
   8  -9  12    9.96    0.74
  -8   9  12    9.65    0.62
  -9   9  12    4.37    0.49
   0   9  13   16.98    0.76
   0   9  13   18.03    0.77
   0   9 -13   17.54    0.84
   0  -9  13   17.39    0.83
   1   9  13   16.80    0.78
  -1   9 -13   18.44    0.87
   1  -9  13   18.65    0.87
   1   9 -13   17.91    0.85
  -1   9  13   18.47    0.79
  -1   9  13   17.59    0.78
   2   9  13   33.64    1.38
   2   9 -13   33.16    1.47
   2  -9  13   34.35    1.44
   2  -9  13   31.98    1.46
  -2   9  13   35.44    1.37
  -2   9  13   33.66    1.36
   3   9  13    0.00    0.17
  -3   9  13   -0.10    0.16
   3   9 -13    0.36    0.24
  -3   9  13   -0.11    0.19
   3  -9  13    0.09    0.20
   3  -9  13   -0.03    0.22
   4   9  13    1.47    0.25
   4  -9  13    1.49    0.26
  -4   9  13    1.12    0.25
   4   9 -13    1.20    0.26
   4  -9  13    1.10    0.28
   5   9  13    0.28    0.23
   5  -9  13    0.59    0.28
  -5   9  13    0.31    0.22
   5  -9  13    0.12    0.20
   5   9 -13    0.36    0.24
   6   9  13    2.49    0.33
   6  -9  13    2.40    0.37
   6   9 -13    2.26    0.34
  -6   9  13    2.50    0.32
   7   9  13    0.35    0.27
  -7   9  13    0.63    0.31
   7   9 -13    0.29    0.34
   7  -9  13    0.49    0.32
   8   9  13    0.45    0.29
   8   9 -13    0.48    0.37
  -8   9  13    0.72    0.34
   8  -9  13    0.49    0.36
  -9   9  13    0.34    0.37
   0   9  14    0.32    0.19
   0   9 -14    0.32    0.23
   0  -9  14    0.23    0.23
   0   9  14    0.53    0.20
   1   9  14   11.88    0.61
  -1   9 -14   12.88    0.69
  -1   9  14   13.71    0.62
  -1   9  14   13.08    0.62
   1  -9  14   12.01    0.69
   1   9 -14   13.33    0.69
   2   9  14    0.58    0.21
   2  -9  14    0.51    0.23
  -2   9  14    1.06    0.22
  -2   9  14    0.68    0.19
   2  -9  14    0.45    0.24
   2   9 -14    0.73    0.25
   3   9  14    1.95    0.27
  -3   9  14    2.12    0.27
   3  -9  14    1.75    0.30
  -3   9  14    1.96    0.23
   3  -9  14    1.69    0.29
   3   9 -14    2.23    0.29
   4   9  14    5.84    0.44
   4  -9  14    6.10    0.45
  -4   9  14    6.25    0.45
   4   9 -14    5.92    0.46
   4  -9  14    5.28    0.45
   5   9  14   11.29    0.60
  -5   9  14   10.68    0.64
   5  -9  14   11.15    0.65
   5  -9  14   10.23    0.64
   5   9 -14   11.56    0.69
   6   9  14    0.57    0.27
   6   9 -14    0.79    0.32
  -6   9  14    0.20    0.28
   6  -9  14    0.55    0.31
   7   9  14   10.96    0.66
  -7   9  14   10.72    0.69
   7  -9  14   10.08    0.73
   7   9 -14   11.02    0.76
   8   9  14    0.69    0.33
   8   9 -14    1.01    0.40
  -8   9  14    0.80    0.31
   8  -9  14    0.93    0.40
   0  -9  15   38.18    1.66
   0   9  15   39.50    1.59
   0   9 -15   39.78    1.69
   0   9  15   39.90    1.57
  -1   9 -15   10.01    0.61
  -1  -9  15   10.24    0.62
   1   9  15   10.15    0.56
  -1   9  15   10.94    0.54
   1   9 -15    9.96    0.60
  -1   9  15    9.57    0.53
   1  -9  15   10.46    0.63
   2   9  15   14.15    0.68
  -2   9  15   14.24    0.68
   2  -9  15   14.06    0.73
   2  -9  15   14.70    0.77
  -2   9  15   13.88    0.67
   2   9 -15   13.65    0.73
   3   9  15    0.41    0.24
  -3   9  15    0.29    0.23
   3  -9  15    0.42    0.24
   3   9 -15    0.48    0.23
   3  -9  15    0.63    0.23
  -3   9  15    0.31    0.21
   4   9  15   15.61    0.77
   4   9 -15   15.33    0.80
   4  -9  15   15.00    0.81
  -4   9  15   16.35    0.77
   4  -9  15   13.04    0.79
   5   9  15    0.55    0.23
  -5   9  15    0.39    0.24
   5  -9  15    0.35    0.27
   5   9 -15    0.62    0.30
   5  -9  15    0.20    0.30
   6   9  15    0.55    0.29
   6  -9  15    0.25    0.31
  -6   9  15    0.61    0.30
   6   9 -15    0.55    0.33
   7   9  15    0.28    0.29
   7  -9  15    0.64    0.35
  -7   9  15    0.06    0.32
   7   9 -15    0.33    0.30
   8   9  15    0.71    0.32
  -8   9  15    0.32    0.35
   0   9  16    0.35    0.22
   0  -9  16    0.35    0.26
   0   9 -16    0.23    0.22
   0   9  16    0.47    0.22
  -1  -9  16    0.39    0.26
   1   9  16    0.63    0.22
  -1   9 -16    0.97    0.25
   1   9  16    0.66    0.24
  -1   9  16    0.74    0.23
  -1   9  16    0.84    0.22
   1   9 -16    0.61    0.27
   1  -9  16    0.42    0.23
   2   9  16    4.82    0.40
  -2   9 -16    5.41    0.44
   2   9 -16    5.31    0.47
  -2   9  16    4.49    0.37
  -2   9  16    5.12    0.40
   2  -9  16    4.86    0.43
   2  -9  16    4.93    0.45
   3   9  16    0.01    0.23
   3  -9  16    0.28    0.26
  -3   9  16    0.59    0.25
   3  -9  16    0.38    0.23
   3   9 -16   -0.03    0.26
  -3   9  16    0.53    0.22
   4   9  16    2.02    0.32
   4  -9  16    1.97    0.34
   4   9 -16    2.25    0.36
   4  -9  16    2.25    0.35
  -4   9  16    2.04    0.31
   5   9  16    3.07    0.35
   5  -9  16    3.47    0.42
  -5   9  16    3.71    0.39
   5  -9  16    3.98    0.41
   5   9 -16    3.74    0.41
   6   9  16   10.20    0.65
   6  -9  16    9.27    0.65
  -6   9  16   10.87    0.62
   6   9 -16    8.41    0.68
   7   9  16   12.56    0.77
  -7   9  16   14.36    0.79
   7  -9  16   11.91    0.83
   7   9 -16   12.82    0.80
   0   9  17    0.64    0.24
   0  -9  17    0.39    0.27
   0   9 -17    0.29    0.27
   0   9  17    0.26    0.23
  -1  -9  17   -0.06    0.23
  -1   9 -17    0.03    0.27
   1   9  17   -0.19    0.22
  -1   9  17   -0.07    0.22
  -1   9  17    0.12    0.21
   1  -9  17    0.21    0.26
   1   9 -17    0.37    0.26
   2   9  17   10.83    0.63
  -2   9 -17   11.24    0.69
   2  -9  17   11.72    0.71
  -2   9  17   11.97    0.61
   2   9 -17   10.62    0.64
  -2   9  17   10.91    0.60
   3   9  17    2.41    0.34
  -3   9  17    2.60    0.33
   3   9 -17    2.58    0.34
   3  -9  17    2.31    0.35
   3  -9  17    2.75    0.39
   4   9  17    0.17    0.28
  -4   9  17    0.08    0.27
   4  -9  17    0.51    0.30
   4  -9  17    0.43    0.25
   4   9 -17    0.77    0.32
   5   9  17    1.41    0.33
   5  -9  17    1.30    0.36
   5   9 -17    1.04    0.35
  -5   9  17    1.26    0.32
   5  -9  17    1.08    0.31
   6   9  17    0.44    0.30
   6  -9  17    0.17    0.34
   6   9 -17    0.04    0.33
  -6   9  17    0.49    0.33
   7   9  17    0.19    0.31
  -7   9  17   -0.39    0.31
   0  -9  18    0.14    0.28
   0   9 -18   -0.12    0.27
   0   9  18    0.31    0.22
  -1  -9  18   22.49    1.07
   1   9  18   22.10    1.00
  -1   9 -18   22.37    1.06
  -1   9  18   21.10    0.95
   1  -9  18   20.58    1.06
   1   9 -18   20.74    1.04
  -1   9  18   20.46    0.97
   2   9  18    0.32    0.27
  -2   9 -18    0.95    0.33
   2  -9  18    0.33    0.30
  -2   9  18    0.83    0.26
  -2   9  18    0.58    0.25
   2   9 -18    1.03    0.31
   3   9  18    4.09    0.40
   3   9 -18    3.98    0.44
  -3   9  18    4.39    0.39
   3  -9  18    4.67    0.46
   3  -9  18    3.48    0.42
   4   9  18    0.35    0.29
   4  -9  18    0.59    0.33
   4  -9  18    1.10    0.33
  -4   9  18    0.89    0.33
   4   9 -18    0.90    0.34
   5   9  18    6.58    0.52
   5   9 -18    5.66    0.50
   5  -9  18    5.52    0.50
   5  -9  18    4.71    0.52
  -5   9  18    5.76    0.48
   6   9  18    2.09    0.39
  -6   9  18    2.30    0.40
   6   9 -18    2.49    0.42
   6  -9  18    2.28    0.39
   0  -9  19    0.58    0.31
   0   9 -19    0.49    0.31
   0   9  19    0.93    0.29
  -1   9 -19    8.46    0.59
  -1  -9  19    9.65    0.68
   1   9  19    9.15    0.57
  -1   9  19    9.92    0.59
   1   9 -19    9.70    0.64
   1  -9  19    9.06    0.63
  -2   9 -19    0.01    0.31
   2   9  19    0.45    0.28
   2  -9  19    0.29    0.30
   2   9 -19    0.17    0.29
  -2   9  19    0.39    0.26
   3   9  19    1.32    0.33
  -3   9 -19    2.11    0.40
   3  -9  19    1.50    0.36
  -3   9  19    0.81    0.30
   3   9 -19    1.78    0.36
   3  -9  19    2.09    0.39
   4   9  19   16.93    0.88
   4  -9  19   16.35    0.93
  -4   9  19   15.78    0.85
   4  -9  19   16.89    0.92
   4   9 -19   16.30    0.92
   5   9  19    5.70    0.50
   5  -9  19    4.96    0.53
   5   9 -19    4.52    0.50
  -5   9  19    5.24    0.48
   5  -9  19    5.16    0.52
   6   9  19    0.43    0.34
  -6   9  19    0.23    0.34
   0   9 -20    0.37    0.32
   0  -9  20    0.51    0.33
   0   9  20    0.44    0.29
  -1   9 -20    0.46    0.32
  -1  -9  20    0.24    0.33
   1   9  20    0.95    0.31
   1   9 -20    0.54    0.33
  -1   9  20    0.41    0.29
   1  -9  20    0.51    0.33
   2   9  20    0.22    0.30
  -2   9 -20   -0.01    0.32
   2   9 -20   -0.08    0.29
  -2   9  20    0.53    0.28
   2  -9  20   -0.32    0.31
  -3   9 -20    2.75    0.44
   3   9  20    2.62    0.39
   3  -9  20    2.91    0.44
   3   9 -20    2.79    0.42
   4   9  20    0.89    0.34
   4   9 -20    0.56    0.34
   4  -9  20    0.88    0.35
  -4   9  20    0.41    0.31
   4  -9  20    0.98    0.35
   5   9  20    0.35    0.33
  -5   9  20   -0.17    0.30
   5  -9  20   -0.34    0.32
   5   9 -20   -0.04    0.34
   5  -9  20    0.22    0.34
   0   9 -21    3.04    0.43
   0  -9  21    2.39    0.43
   0   9  21    2.82    0.39
  -1  -9  21   11.82    0.78
  -1   9 -21   14.56    0.82
   1   9  21   13.64    0.78
  -1   9  21   11.75    0.74
   1  -9  21   13.25    0.84
   1   9 -21   13.39    0.81
  -2   9 -21    2.92    0.44
   2   9  21    3.73    0.44
  -2   9  21    3.59    0.42
   2   9 -21    2.87    0.44
   2  -9  21    3.36    0.48
   3   9  21    4.11    0.47
  -3   9 -21    5.01    0.53
   3   9 -21    3.78    0.48
   3  -9  21    4.15    0.52
   4   9  21    4.64    0.51
  -4   9 -21    4.76    0.57
   4  -9  21    3.88    0.51
   4   9 -21    5.14    0.53
   4  -9  21    3.97    0.49
   0   9  22    0.31    0.32
   0  -9  22   -0.02    0.30
  -1  -9  22    0.21    0.35
   1   9  22    0.16    0.28
   1  -9  22    0.20    0.30
  -1   9  22    0.55    0.33
   2   9  22    4.95    0.50
  -2   9  22    4.87    0.48
   2  -9  22    4.37    0.55
   3   9  22    5.80    0.55
   3  -9  22    6.04    0.61
   0   9  23   10.24    0.74
   0  -9  23   11.09    0.80
   1   9  23    0.23    0.30
  -1  -9  23    0.23    0.38
  -1   9  23    0.35    0.35
   1  -9  23    0.00    0.31
   0  10   0   44.40    1.78
   1  10   0    0.02    0.09
   1  10   0    0.01    0.11
   1 -10   0   -0.10    0.07
  -2  10   0   14.49    0.58
   2  10   0   11.66    0.58
   2  10   0   13.38    0.61
   2 -10   0   14.62    0.61
   3  10   0    0.05    0.14
  -3  10   0    0.28    0.11
   3  10   0    0.17    0.13
   3 -10   0    0.36    0.12
   4  10   0   39.48    1.67
  -4  10   0   41.48    1.57
   4  10   0   42.18    1.60
   4 -10   0   37.81    1.66
  -5  10   0   -0.03    0.15
   5  10   0   -0.02    0.17
   5  10   0    0.14    0.16
   5 -10   0   -0.13    0.16
   6  10   0    5.94    0.38
   6 -10   0    5.03    0.38
  -6  10   0    5.66    0.38
   6  10   0    5.88    0.42
  -7  10   0    0.10    0.20
   7  10   0   -0.09    0.18
   7 -10   0   -0.02    0.22
   7  10   0    0.05    0.24
   8  10   0    4.50    0.44
   8 -10   0    4.84    0.46
  -8  10   0    4.91    0.39
   9  10   0   -0.13    0.29
  -9  10   0    0.36    0.26
   9 -10   0   -0.06    0.30
  10 -10   0    5.21    0.58
 -10  10   0    5.78    0.48
  10  10   0    5.52    0.56
   0  10   1    0.30    0.10
   0  10   1    0.05    0.10
   0  10  -1    0.25    0.11
   1  10   1    6.49    0.33
   1  10   1    6.95    0.35
  -1  10   1    6.43    0.32
   1 -10   1    6.84    0.35
   1  10  -1    6.68    0.34
   2 -10  -1    0.58    0.11
   2  10   1    0.38    0.11
  -2  10  -1    1.13    0.14
   2  10   1    0.17    0.09
   2  10  -1    0.62    0.13
  -2  10   1    0.82    0.13
  -2  10   1    0.56    0.10
   2 -10   1    0.50    0.12
  -3  10  -1   55.47    2.09
   3  10   1   56.29    2.13
   3  10   1   56.18    2.22
   3 -10  -1   54.24    2.21
  -3  10   1   53.21    2.08
  -3  10   1   53.03    2.10
   3  10  -1   59.37    2.14
   3 -10   1   52.97    2.21
   3  10  -1   54.97    2.22
   4  10   1    0.34    0.15
   4  10   1    0.22    0.16
  -4  10  -1    0.08    0.12
   4 -10  -1    0.15    0.13
   4 -10   1    0.28    0.13
   4  10  -1    0.40    0.17
   4  10  -1    0.24    0.14
  -4  10   1   -0.01    0.13
   5  10   1    2.48    0.24
  -5  10  -1    2.23    0.23
   5  10   1    2.50    0.26
   5 -10  -1    3.15    0.27
   5  10  -1    2.63    0.25
  -5  10   1    2.18    0.24
   5  10  -1    3.02    0.29
   5 -10   1    2.10    0.25
  -6  10  -1    2.80    0.26
   6  10   1    2.28    0.26
   6  10   1    2.45    0.29
   6 -10  -1    2.94    0.28
   6 -10   1    2.89    0.29
   6  10  -1    2.59    0.28
  -6  10   1    2.98    0.28
   6  10  -1    2.53    0.26
   7  10   1    2.65    0.33
   7  10   1    2.30    0.27
   7 -10  -1    2.98    0.34
  -7  10  -1    2.82    0.28
  -7  10   1    2.35    0.29
   7 -10   1    2.34    0.32
   7  10  -1    2.80    0.29
   7  10  -1    2.42    0.33
   8  10   1    4.76    0.44
  -8  10  -1    5.70    0.41
   8 -10  -1    4.24    0.45
   8  10  -1    4.68    0.45
   8 -10   1    4.92    0.45
  -8  10   1    4.52    0.39
   9  10   1    7.28    0.54
  -9  10  -1    6.71    0.53
   9 -10  -1    6.89    0.61
  -9  10   1    6.62    0.52
   9  10  -1    6.80    0.59
   9 -10   1    6.82    0.61
  10  10   1    0.58    0.36
  10 -10  -1    0.67    0.37
  10  10  -1    0.25    0.32
  10 -10   1    0.67    0.39
 -10  10   1    0.42    0.31
   0  10   2  234.30    9.09
   0  10  -2  252.34    9.51
   0  10   2  245.62    9.48
   1  10   2    0.19    0.10
   1  10   2    0.24    0.09
   1 -10  -2    0.43    0.10
   1 -10   2    0.34    0.11
   1  10  -2    0.32    0.12
  -1  10   2    0.42    0.10
   2  10   2    1.08    0.13
  -2  10  -2    0.84    0.13
   2 -10   2    0.84    0.13
  -2  10   2    0.80    0.11
   2  10  -2    1.00    0.16
  -2  10   2    1.01    0.15
  -3  10  -2   39.04    1.49
   3  10   2   39.35    1.57
   3 -10  -2   34.79    1.56
   3  10   2   40.37    1.53
   3  10  -2   38.50    1.59
   3 -10   2   39.53    1.59
  -3  10   2   36.37    1.50
  -3  10   2   40.76    1.47
  -4  10  -2   52.27    2.01
   4  10   2   51.16    2.03
   4 -10  -2   48.77    2.12
   4  10   2   49.20    2.12
   4  10  -2   56.18    2.05
  -4  10   2   54.24    2.03
   4 -10   2   53.88    2.14
   4  10  -2   53.82    2.15
   5  10   2    6.41    0.39
  -5  10  -2    6.17    0.36
   5  10   2    5.57    0.37
   5 -10  -2    5.59    0.38
   5 -10   2    6.50    0.39
  -5  10   2    6.42    0.38
   5  10  -2    5.93    0.40
   5  10  -2    6.12    0.38
  -6  10  -2    2.22    0.24
   6 -10  -2    2.02    0.26
   6  10   2    1.68    0.23
   6  10   2    1.52    0.23
  -6  10   2    1.66    0.25
   6  10  -2    1.89    0.28
   6  10  -2    1.81    0.25
   6 -10   2    2.18    0.26
  -7  10  -2   12.06    0.63
   7  10   2   12.91    0.70
   7  10   2   13.22    0.64
   7 -10  -2   12.99    0.72
  -7  10   2   12.42    0.65
   7  10  -2   13.93    0.64
   7 -10   2   14.20    0.74
   7  10  -2   12.48    0.70
   8 -10  -2    0.43    0.23
   8  10   2    0.55    0.26
  -8  10  -2    0.65    0.23
   8 -10   2    0.27    0.28
  -8  10   2    0.52    0.22
   8  10  -2    0.29    0.25
   9 -10  -2    0.61    0.33
   9  10   2    0.20    0.30
  -9  10   2    0.74    0.28
   9  10  -2    0.47    0.33
   9 -10   2    0.40    0.28
  10 -10  -2    2.85    0.48
  10  10   2    2.90    0.41
 -10  10   2    2.95    0.40
  10  10  -2    3.86    0.50
  10 -10   2    2.62    0.48
   0  10  -3    0.39    0.12
   0  10   3    0.22    0.11
   0  10   3    0.33    0.08
   1  10   3    8.99    0.41
   1 -10  -3    8.99    0.39
   1  10   3    8.44    0.39
  -1  10   3    8.95    0.39
   1 -10   3    8.14    0.42
   1  10  -3    8.66    0.42
   2  10   3    7.84    0.37
  -2  10  -3    7.57    0.35
  -2  10   3    7.06    0.37
   2  10  -3    7.52    0.41
  -2  10   3    7.20    0.34
   2 -10   3    8.70    0.41
  -3  10  -3   26.85    1.04
   3  10   3   26.59    1.10
   3 -10  -3   28.10    1.10
   3  10   3   26.42    1.08
   3 -10   3   25.98    1.13
   3  10  -3   25.85    1.13
  -3  10   3   25.55    1.06
  -3  10   3   26.09    1.02
   4  10   3   26.15    1.11
   4 -10  -3   26.69    1.12
   4  10   3   26.65    1.08
  -4  10  -3   25.13    1.04
   4  10  -3   25.66    1.14
   4 -10   3   25.95    1.13
  -4  10   3   27.69    1.08
   5  10   3    7.88    0.43
  -5  10  -3    6.94    0.39
   5 -10  -3    8.04    0.43
   5  10   3    7.16    0.40
   5 -10   3    7.62    0.46
   5  10  -3    7.03    0.44
  -5  10   3    7.02    0.42
   5  10  -3    6.12    0.42
   6  10   3    6.50    0.41
   6  10   3    6.23    0.41
   6 -10  -3    6.78    0.44
  -6  10  -3    6.22    0.39
   6 -10   3    5.68    0.42
   6  10  -3    6.41    0.43
   6  10  -3    7.12    0.45
  -6  10   3    6.68    0.42
  -7  10  -3    3.56    0.29
   7 -10  -3    3.18    0.36
   7  10   3    3.22    0.34
   7  10   3    3.13    0.31
   7  10  -3    2.90    0.37
  -7  10   3    2.90    0.30
   7 -10   3    2.83    0.36
   7  10  -3    3.19    0.31
   8  10   3    3.11    0.37
   8 -10  -3    3.08    0.36
  -8  10   3    3.19    0.35
   8  10  -3    3.50    0.42
   8 -10   3    2.55    0.36
   9  10   3    7.07    0.57
   9 -10  -3    6.52    0.58
   9 -10   3    7.16    0.61
   9  10  -3    6.56    0.56
  -9  10   3    7.58    0.54
  10  10   3    5.27    0.55
  10 -10  -3    6.48    0.62
 -10  10   3    6.22    0.52
  10  10  -3    5.42    0.55
  10 -10   3    5.46    0.61
   0  10   4    4.65    0.22
   0  10  -4    3.90    0.26
   0  10   4    4.43    0.26
   1  10   4   14.32    0.62
   1  10   4   14.87    0.64
   1 -10  -4   14.88    0.62
   1  10  -4   15.75    0.68
  -1  10   4   14.70    0.61
   1 -10   4   14.81    0.67
  -2  10  -4    4.44    0.23
   2  10   4    4.50    0.24
   2 -10  -4    3.93    0.23
  -2  10   4    4.00    0.23
   2 -10   4    4.52    0.28
   2  10  -4    4.48    0.28
  -2  10   4    4.04    0.27
  -3  10  -4   18.92    0.75
   3 -10  -4   17.50    0.80
   3  10   4   18.39    0.80
   3  10   4   19.31    0.80
  -3  10   4   18.52    0.78
   3  10  -4   19.71    0.85
   3 -10   4   18.82    0.84
  -3  10   4   19.10    0.74
   4 -10  -4    6.00    0.35
   4  10   4    5.95    0.38
   4  10   4    5.84    0.36
  -4  10  -4    6.75    0.34
   4 -10   4    7.35    0.42
   4  10  -4    7.05    0.41
  -4  10   4    6.11    0.35
   5  10   4    3.93    0.32
  -5  10  -4    4.02    0.28
   5  10   4    3.86    0.31
   5 -10  -4    4.35    0.32
   5 -10   4    3.98    0.33
   5  10  -4    3.12    0.31
  -5  10   4    3.97    0.31
   6  10   4    2.08    0.26
   6  10   4    2.14    0.26
   6 -10  -4    2.07    0.27
  -6  10  -4    2.39    0.23
  -6  10   4    1.87    0.26
   6  10  -4    2.38    0.29
   6  10  -4    2.88    0.29
   6 -10   4    2.58    0.31
   7  10   4    0.24    0.22
   7  10   4    0.44    0.21
   7 -10  -4    0.06    0.23
   7  10  -4    0.05    0.22
   7  10  -4    0.16    0.20
  -7  10   4    0.29    0.23
   7 -10   4    0.49    0.23
   8 -10  -4    0.19    0.27
   8  10   4    0.54    0.26
   8  10  -4    0.09    0.25
  -8  10   4    0.25    0.25
   8 -10   4    0.27    0.28
   9  10   4   11.41    0.71
   9 -10  -4   10.61    0.75
  -9  10   4   11.70    0.68
   9  10  -4   11.61    0.77
   9 -10   4   11.52    0.77
  10  10   4    0.47    0.35
  10 -10  -4    0.24    0.36
 -10  10   4    0.79    0.34
   0  10   5    0.08    0.11
   0  10   5    0.13    0.06
   0  10  -5    0.32    0.14
   1 -10  -5    1.74    0.13
   1  10   5    2.07    0.13
   1  10   5    1.74    0.18
   1 -10   5    2.20    0.20
   1  10  -5    1.82    0.19
  -1  10   5    1.76    0.16
   2 -10  -5    6.33    0.31
   2  10   5    6.34    0.30
  -2  10  -5    6.09    0.29
   2 -10   5    6.45    0.38
  -2  10   5    6.40    0.30
  -2  10   5    6.74    0.34
   2  10  -5    6.21    0.38
   3 -10  -5    2.92    0.22
  -3  10  -5    3.83    0.21
   3  10   5    3.77    0.27
   3  10   5    4.42    0.25
   3 -10   5    4.21    0.30
  -3  10   5    3.81    0.28
   3  10  -5    3.57    0.29
  -3  10   5    3.99    0.21
   4  10   5   32.66    1.32
   4  10   5   31.96    1.34
   4 -10  -5   32.01    1.35
  -4  10  -5   32.23    1.27
   4  10  -5   31.48    1.39
  -4  10   5   32.96    1.31
   4 -10   5   35.13    1.40
   5  10   5    0.35    0.18
   5 -10  -5    0.67    0.18
   5  10   5    0.52    0.16
   5 -10   5    0.34    0.20
  -5  10   5    0.50    0.20
   5  10  -5    0.31    0.21
   6  10   5   13.77    0.67
   6 -10  -5   14.48    0.72
   6  10   5   14.11    0.69
   6  10  -5   14.11    0.74
   6 -10   5   14.38    0.75
  -6  10   5   13.57    0.67
   7  10   5   -0.01    0.22
   7 -10  -5    0.05    0.22
   7  10   5    0.37    0.22
   7  10  -5    0.26    0.21
   7  10  -5    0.11    0.27
   7 -10   5   -0.10    0.25
  -7  10   5    0.41    0.24
   8 -10  -5    0.21    0.27
   8  10   5    0.29    0.25
  -8  10   5    0.46    0.27
   8  10  -5    0.06    0.29
   8 -10   5    0.36    0.30
   9  10   5    0.75    0.32
   9 -10  -5    0.82    0.34
   9  10  -5    1.15    0.34
   9 -10   5    1.19    0.37
  -9  10   5    0.99    0.31
  10 -10  -5    8.74    0.74
  10  10   5    9.25    0.69
 -10  10   5    9.20    0.65
   0  10   6    5.29    0.29
   0  10  -6    5.90    0.35
   1  10   6    6.09    0.26
   1 -10  -6    5.91    0.26
   1  10   6    5.75    0.32
   1  10  -6    5.99    0.37
  -1  10   6    6.16    0.31
   1 -10   6    6.16    0.37
  -2  10  -6    5.12    0.23
   2 -10  -6    4.27    0.23
   2  10   6    4.60    0.23
   2 -10   6    4.64    0.31
  -2  10   6    4.27    0.25
   2  10  -6    4.47    0.31
   3  10   6   10.89    0.52
   3  10   6   11.66    0.49
  -3  10   6   10.59    0.46
   3 -10   6   10.02    0.54
   3  10  -6   11.22    0.56
   4  10   6    2.68    0.25
   4  10   6    2.35    0.20
   4 -10  -6    2.41    0.21
  -4  10   6    1.33    0.19
   4  10  -6    2.26    0.26
   4 -10   6    2.64    0.26
   5  10   6    0.37    0.18
   5  10   6    0.34    0.15
   5 -10  -6    0.55    0.18
  -5  10   6    0.29    0.20
   5  10  -6    0.15    0.19
   5 -10   6    0.26    0.18
   6  10   6   12.72    0.64
   6  10   6   12.23    0.62
   6 -10  -6   12.62    0.66
   6  10  -6   12.02    0.68
  -6  10   6   11.64    0.62
   6 -10   6   12.88    0.67
   7  10   6    7.55    0.47
   7 -10  -6    7.11    0.52
   7  10   6    7.59    0.49
   7  10  -6    7.62    0.58
   7  10  -6    8.11    0.51
  -7  10   6    7.07    0.51
   7 -10   6    7.41    0.56
   8  10   6    0.52    0.26
   8 -10  -6    0.59    0.28
  -8  10   6    0.57    0.24
   8 -10   6    0.19    0.30
   8  10  -6    0.44    0.31
   9  10   6   12.65    0.75
   9 -10  -6   11.53    0.79
   9  10  -6   12.55    0.78
  -9  10   6   14.01    0.75
   9 -10   6   11.80    0.78
  10 -10  -6    1.69    0.44
 -10  10   6    2.95    0.42
   0  10   7    0.29    0.13
   0  10  -7    0.15    0.13
   1  10   7    0.43    0.13
  -1  10   7    0.68    0.13
   1 -10   7    0.74    0.16
   1  10  -7    0.36    0.16
  -2  10   7   27.99    1.20
   2  10  -7   32.68    1.29
   4  10   7    6.96    0.39
   4  10   7    7.16    0.42
   4 -10  -7    7.41    0.39
   5  10   7    3.07    0.28
   5  10   7    2.99    0.26
   5 -10  -7    2.87    0.27
   5  10  -7    2.78    0.33
  -5  10   7    2.78    0.27
   5 -10   7    2.99    0.30
   6  10   7    5.91    0.41
   6 -10  -7    5.16    0.43
   6  10   7    6.20    0.39
  -6  10   7    6.32    0.44
   6  10  -7    5.39    0.48
   6 -10   7    6.38    0.45
   7 -10  -7    0.35    0.24
   7  10   7    0.39    0.22
   7 -10   7    0.42    0.28
   7  10  -7    0.72    0.28
  -7  10   7    0.48    0.23
   8  10   7    0.72    0.25
  -8  10   7    0.89    0.26
   8  10  -7    0.74    0.30
   8 -10   7    0.74    0.33
  -9  10   7    1.99    0.37
   9 -10   7    1.79    0.41
   9  10  -7    2.02    0.42
 -10  10   7    2.71    0.43
  -3  10   8   10.76    0.51
   4  10   8    1.58    0.22
   4 -10   8    1.20    0.19
  -4  10   8    1.81    0.23
   4  10  -8    1.33    0.24
   5  10   8    0.59    0.18
  -5  10   8    0.42    0.21
   5 -10   8    0.63    0.24
   5  10  -8    0.62    0.22
   6  10   8    0.21    0.21
   6 -10   8    0.46    0.26
   6  10  -8    0.42    0.23
  -6  10   8    0.42    0.24
   7  10   8   23.07    1.06
   7  10  -8   24.80    1.19
   7 -10   8   24.65    1.17
  -7  10   8   24.04    1.09
   8  10   8    0.42    0.26
  -8  10   8    0.39    0.30
   8 -10   8    0.75    0.34
   8  10  -8    0.59    0.30
   9 -10   8    1.51    0.41
   9  10  -8    1.35    0.40
  -9  10   8    1.36    0.36
 -10  10   8    0.78    0.37
   0  10   9   -0.06    0.13
   0  10  -9   -0.02    0.05
   1  10   9   18.52    0.78
  -1  10   9   17.74    0.78
  -1  10   9   18.62    0.76
  -2  10   9    1.15    0.15
  -2  10   9    1.20    0.20
   3  10   9    9.78    0.52
  -3  10   9   10.71    0.53
  -3  10   9   10.65    0.47
   4  10   9   -0.32    0.17
   4 -10   9    0.47    0.16
   4 -10   9    0.26    0.18
  -4  10   9    0.21    0.20
   4  10  -9    0.18    0.19
   5  10   9    5.97    0.42
  -5  10   9    6.74    0.44
   5  10  -9    5.67    0.48
   5 -10   9    6.45    0.44
   6  10   9    7.72    0.48
   6  10  -9    7.71    0.53
   6 -10   9    6.61    0.50
  -6  10   9    7.75    0.51
   7  10   9    7.68    0.50
   7 -10   9    8.05    0.56
  -7  10   9    7.22    0.50
   7  10  -9    7.17    0.60
   8  10   9    6.74    0.52
   8  10  -9    8.52    0.61
  -8  10   9    7.87    0.54
   8 -10   9    8.14    0.65
   9  10  -9    7.23    0.62
   9 -10   9    5.57    0.56
  -9  10   9    5.73    0.49
   0  10 -10   10.73    0.59
   0  10  10   12.97    0.55
   1  10  10    6.02    0.36
  -1  10  10    6.51    0.37
   1  10 -10    4.74    0.36
  -1  10  10    6.54    0.34
  -2  10  10   64.68    2.41
  -2  10  10   63.67    2.38
   2 -10  10   63.37    2.45
   2  10 -10   57.57    2.53
   3  10  10    1.02    0.19
   3 -10  10    1.28    0.22
  -3  10  10    1.19    0.20
   3  10 -10    1.52    0.25
   3 -10  10    0.98    0.21
  -3  10  10    0.84    0.15
   4  10  10   37.49    1.54
  -4  10  10   37.80    1.54
   4  10 -10   36.70    1.64
   4 -10  10   36.70    1.63
   4 -10  10   41.92    1.56
   5  10  10   18.03    0.83
   5 -10  10   18.72    0.90
  -5  10  10   17.04    0.84
   5  10 -10   18.75    0.90
   6  10  10    4.67    0.38
   6 -10  10    4.36    0.41
   6  10 -10    4.21    0.44
  -6  10  10    4.73    0.41
   7  10  10    3.81    0.38
   7 -10  10    4.88    0.45
   7  10 -10    4.70    0.46
  -7  10  10    4.88    0.43
   8  10  10    2.29    0.34
   8 -10  10    1.98    0.40
  -8  10  10    1.65    0.36
   8  10 -10    1.96    0.40
  -9  10  10    0.09    0.32
   0  10  11    0.08    0.15
   0  10 -11    0.13    0.19
  -1  10 -11   23.78    1.02
   1  10  11   22.60    0.96
  -1  10  11   23.01    0.94
  -1  10  11   21.93    0.96
   1  10 -11   22.62    1.02
   1 -10  11   22.98    1.02
   2  10  11    3.28    0.28
   2 -10  11    3.91    0.33
   2 -10  11    3.69    0.33
   2  10 -11    2.92    0.32
  -2  10  11    3.43    0.26
  -2  10  11    3.47    0.28
   3  10  11   26.85    1.10
   3  10 -11   25.94    1.18
   3 -10  11   25.01    1.16
  -3  10  11   26.75    1.06
   3 -10  11   27.03    1.14
  -3  10  11   25.41    1.09
   4  10  11    3.97    0.33
   4  10 -11    4.58    0.39
  -4  10  11    4.19    0.35
   4 -10  11    4.51    0.38
   4 -10  11    4.73    0.37
   5  10  11   16.98    0.81
  -5  10  11   16.55    0.82
   5  10 -11   16.33    0.88
   5 -10  11   17.34    0.88
   5 -10  11   18.78    0.82
   6  10  11    0.13    0.23
  -6  10  11    0.50    0.27
   6  10 -11    0.42    0.25
   6 -10  11    0.50    0.29
   7  10  11    2.01    0.32
   7  10 -11    2.81    0.43
   7 -10  11    2.49    0.40
  -7  10  11    2.82    0.38
   8  10  11    4.02    0.40
   8 -10  11    3.45    0.48
   8  10 -11    3.99    0.49
  -8  10  11    4.43    0.45
  -9  10  11    0.14    0.34
   0  10 -12    5.00    0.38
   0  10  12    5.81    0.36
  -1  10 -12   22.48    1.05
   1  10  12   23.04    0.99
   1  10 -12   22.16    1.06
   1 -10  12   24.28    1.04
  -1  10  12   23.33    0.98
  -1  10  12   24.44    0.97
   2  10  12    0.45    0.20
   2  10 -12    0.35    0.20
   2 -10  12    0.29    0.20
  -2  10  12    0.31    0.16
  -2  10  12    0.58    0.20
   2 -10  12    0.36    0.19
   3  10  12    2.60    0.28
   3  10 -12    3.33    0.35
   3 -10  12    3.09    0.32
   3 -10  12    3.14    0.31
  -3  10  12    3.02    0.30
  -3  10  12    2.73    0.24
   4  10  12    3.41    0.32
   4 -10  12    3.51    0.35
   4 -10  12    3.30    0.33
   4  10 -12    3.60    0.38
  -4  10  12    3.50    0.33
   5  10  12   13.47    0.69
   5 -10  12   14.93    0.70
  -5  10  12   12.92    0.70
   5 -10  12   12.77    0.72
   5  10 -12   12.55    0.73
   6  10  12   -0.27    0.23
   6 -10  12   -0.19    0.23
  -6  10  12    0.01    0.23
   6  10 -12   -0.28    0.23
   7  10  12    3.39    0.37
  -7  10  12    3.62    0.39
   7 -10  12    4.88    0.48
   7  10 -12    3.35    0.46
   8  10  12    0.83    0.30
   8  10 -12    0.39    0.37
   8 -10  12    0.98    0.38
  -8  10  12    0.70    0.29
  -9  10  12    1.86    0.41
   0  10  13    0.35    0.18
   0  10 -13    0.46    0.20
  -1  10 -13   10.16    0.61
   1  10  13   10.31    0.53
  -1  10  13   11.69    0.54
   1  10 -13   10.51    0.59
  -1  10  13   11.49    0.55
   1 -10  13   10.33    0.60
   2  10  13    2.70    0.26
   2 -10  13    2.65    0.30
   2 -10  13    3.20    0.34
   2  10 -13    2.22    0.29
  -2  10  13    2.73    0.28
  -2  10  13    2.76    0.26
   3  10  13    6.09    0.41
   3 -10  13    5.65    0.45
  -3  10  13    5.90    0.36
  -3  10  13    5.34    0.41
   3 -10  13    5.21    0.42
   3  10 -13    5.61    0.47
   4  10  13    8.42    0.52
   4 -10  13    8.37    0.54
   4 -10  13    9.55    0.56
  -4  10  13    8.82    0.53
   4  10 -13    8.68    0.59
   5  10  13    0.96    0.23
  -5  10  13    1.02    0.29
   5  10 -13    0.86    0.30
   5 -10  13    0.94    0.24
   5 -10  13    0.96    0.30
   6  10  13    1.09    0.28
  -6  10  13    1.13    0.28
   6  10 -13    0.76    0.33
   6 -10  13    0.65    0.32
   7  10  13    5.83    0.50
   7 -10  13    5.58    0.53
   7  10 -13    5.77    0.55
  -7  10  13    5.92    0.51
   8  10  13    2.90    0.40
   8 -10  13    3.12    0.47
   8  10 -13    3.79    0.50
  -8  10  13    2.93    0.43
   0  10  14   26.36    1.14
   0  10 -14   27.32    1.23
   0  10  14   28.31    1.14
  -1  10 -14    6.43    0.49
   1  10  14    6.45    0.40
   1 -10  14    6.51    0.50
  -1  10  14    6.55    0.42
   1  10 -14    6.60    0.48
  -1  10  14    6.34    0.40
   2  10  14    1.37    0.22
   2 -10  14    1.10    0.24
  -2  10  14    1.02    0.23
   2  10 -14    1.25    0.26
  -2  10  14    1.06    0.21
   2 -10  14    1.15    0.27
   3  10  14    0.87    0.24
  -3  10  14    0.80    0.20
   3 -10  14    0.86    0.23
  -3  10  14    0.75    0.23
   3  10 -14    0.88    0.25
   3 -10  14    0.67    0.23
   4  10  14   -0.08    0.22
   4  10 -14   -0.21    0.26
  -4  10  14    0.16    0.24
   4 -10  14    0.20    0.22
   4 -10  14   -0.08    0.25
   5  10  14    9.24    0.57
  -5  10  14    8.88    0.59
   5  10 -14    9.13    0.60
   5 -10  14    9.03    0.63
   5 -10  14    9.43    0.59
   6  10  14    0.61    0.28
   6 -10  14    0.91    0.34
  -6  10  14    1.06    0.31
   6  10 -14    0.87    0.33
   7  10  14    0.03    0.27
  -7  10  14    0.57    0.34
   7 -10  14    0.32    0.29
   7  10 -14    0.58    0.36
   8  10  14    0.45    0.31
  -8  10  14    0.54    0.34
   0 -10  15   -0.01    0.23
   0  10  15    0.07    0.20
   0  10 -15    0.25    0.21
   0  10  15    0.19    0.20
   1  10  15    1.62    0.26
  -1  10 -15    1.07    0.29
   1 -10  15    0.65    0.27
  -1  10  15    0.88    0.23
   1  10 -15    0.91    0.28
  -1  10  15    1.44    0.24
   2  10  15    7.30    0.48
   2 -10  15    8.55    0.54
   2 -10  15    7.40    0.55
   2  10 -15    7.21    0.53
  -2  10  15    6.96    0.46
  -2  10  15    7.22    0.44
   3  10  15    1.61    0.28
   3 -10  15    1.17    0.27
  -3  10  15    1.17    0.27
   3  10 -15    1.45    0.31
   3 -10  15    1.67    0.31
   4  10  15    7.58    0.52
   4 -10  15    7.73    0.57
  -4  10  15    7.69    0.52
   4  10 -15    8.22    0.59
   4 -10  15    7.05    0.55
   5  10  15    0.45    0.27
   5  10 -15    0.49    0.27
   5 -10  15    0.79    0.28
   5 -10  15    0.13    0.24
  -5  10  15    0.53    0.29
   6  10  15    3.60    0.40
   6 -10  15    4.53    0.45
   6  10 -15    3.42    0.45
  -6  10  15    3.92    0.43
   7  10  15    1.96    0.36
  -7  10  15    2.09    0.39
   7  10 -15    2.21    0.43
   7 -10  15    1.99    0.42
   8  10  15    2.63    0.40
  -8  10  15    2.66    0.40
   0  10  16    8.63    0.52
   0  10 -16    8.78    0.58
   0  10  16    8.80    0.50
   0 -10  16    7.93    0.59
  -1  10 -16   23.82    1.15
   1  10  16   24.35    1.08
   1  10 -16   25.68    1.17
  -1  10  16   25.68    1.08
  -1  10  16   25.06    1.07
   1 -10  16   25.28    1.18
   2  10  16    0.21    0.20
  -2  10 -16    0.12    0.30
  -2  10  16    0.21    0.23
   2  10 -16   -0.11    0.26
  -2  10  16   -0.18    0.19
   2 -10  16    0.11    0.25
   3  10  16   12.96    0.67
   3 -10  16   11.83    0.74
   3  10 -16   12.76    0.75
  -3  10  16   12.22    0.67
   3 -10  16   14.08    0.75
   4  10  16    1.76    0.32
   4  10 -16    2.33    0.37
   4 -10  16    2.01    0.34
  -4  10  16    2.00    0.32
   4 -10  16    2.39    0.36
   5  10  16    3.99    0.41
   5 -10  16    3.35    0.43
   5 -10  16    3.41    0.41
   5  10 -16    3.75    0.44
  -5  10  16    3.78    0.41
   6  10  16    0.71    0.30
  -6  10  16    0.89    0.29
   6 -10  16    0.73    0.35
   6  10 -16    0.83    0.36
   7  10  16    0.24    0.31
  -7  10  16    0.22    0.33
   7 -10  16    0.50    0.37
   0  10 -17   -0.15    0.22
   0  10  17    0.04    0.21
   0 -10  17   -0.06    0.27
   0  10  17    0.30    0.24
  -1  10 -17    9.04    0.58
   1  10  17    9.57    0.57
   1  10  17    8.83    0.54
  -1  10  17    9.82    0.53
   1 -10  17    8.25    0.63
   1  10 -17    8.57    0.60
  -1  10  17    9.24    0.54
   2  10  17    7.04    0.48
  -2  10 -17    6.87    0.56
  -2  10  17    6.69    0.47
  -2  10  17    7.43    0.48
   2 -10  17    6.85    0.57
   2  10 -17    6.54    0.55
   3  10  17    4.63    0.40
   3 -10  17    4.85    0.46
  -3  10  17    4.27    0.39
   3  10 -17    4.68    0.43
   3 -10  17    4.06    0.46
   4  10  17    2.91    0.37
   4 -10  17    2.53    0.39
  -4  10  17    2.62    0.36
   4 -10  17    2.55    0.35
   4  10 -17    2.85    0.37
   5  10  17    9.13    0.61
   5 -10  17    7.56    0.62
  -5  10  17    8.45    0.60
   5  10 -17    8.47    0.65
   5 -10  17    8.04    0.64
   6  10  17    6.74    0.54
  -6  10  17    6.24    0.53
   6  10 -17    6.28    0.57
   6 -10  17    6.11    0.57
   7  10  17    0.23    0.31
  -7  10  17    0.29    0.35
   0  10  18    0.04    0.25
   0  10 -18    0.78    0.31
   0 -10  18    0.29    0.30
  -1  10 -18    0.08    0.29
   1  10  18    0.38    0.23
  -1  10  18    0.23    0.23
   1 -10  18   -0.02    0.24
   1  10 -18    0.28    0.29
  -1  10  18    0.06    0.25
  -2  10 -18    8.75    0.64
   2  10  18    8.23    0.54
  -2  10  18    8.76    0.54
  -2  10  18    9.10    0.57
   2 -10  18    9.34    0.66
   2  10 -18    8.68    0.59
   3  10  18   12.34    0.69
   3  10 -18   13.35    0.78
  -3  10  18   13.17    0.70
   3 -10  18   12.11    0.76
   3 -10  18   12.44    0.79
   4  10  18    6.59    0.52
   4 -10  18    6.78    0.59
  -4  10  18    7.64    0.55
   4 -10  18    6.77    0.58
   4  10 -18    7.12    0.56
   5  10  18    2.66    0.40
   5 -10  18    2.28    0.37
   5 -10  18    1.66    0.38
  -5  10  18    1.94    0.36
   5  10 -18    2.34    0.41
   6  10  18    0.92    0.35
  -6  10  18    0.81    0.36
   6 -10  18    0.66    0.38
   0 -10  19   -0.17    0.30
   0  10  19   -0.26    0.25
   0  10 -19    0.23    0.31
  -1  10 -19    8.99    0.66
   1  10  19   10.52    0.63
   1  10 -19    9.60    0.66
  -1  10  19    9.08    0.59
   1 -10  19    9.81    0.70
  -2  10 -19    0.36    0.33
   2  10  19   -0.19    0.28
   2  10 -19    0.35    0.28
  -2  10  19    0.10    0.27
  -2  10  19    0.23    0.26
   2 -10  19   -0.07    0.26
   3  10  19    0.24    0.29
  -3  10 -19    0.61    0.37
   3  10 -19    0.47    0.33
  -3  10  19    0.25    0.28
   3 -10  19    0.39    0.31
   4  10  19    0.60    0.32
  -4  10  19    1.09    0.34
   4 -10  19    1.05    0.36
   4 -10  19    0.52    0.33
   4  10 -19    0.76    0.35
   5  10  19    5.62    0.52
   5 -10  19    5.99    0.58
   5 -10  19    5.79    0.56
  -5  10  19    6.42    0.53
   5  10 -19    5.97    0.57
   0 -10  20    1.50    0.38
   0  10 -20    1.30    0.37
   0  10  20    2.09    0.35
   1  10  20    1.57    0.35
  -1  10 -20    1.89    0.38
   1 -10  20    1.11    0.37
   1  10 -20    1.61    0.38
  -1  10  20    1.34    0.32
  -2  10 -20   13.18    0.81
   2  10  20   12.69    0.76
  -2  10  20   12.85    0.72
   2 -10  20   13.10    0.84
   2  10 -20   12.88    0.80
  -3  10 -20    1.30    0.41
   3  10  20    1.47    0.36
   3  10 -20    1.23    0.38
   3 -10  20    1.17    0.38
   4  10  20    6.09    0.54
   4 -10  20    6.29    0.60
   4  10 -20    6.60    0.59
  -4  10  20    6.67    0.56
   4 -10  20    5.88    0.56
   5  10  20    2.43    0.42
  -5  10  20    1.73    0.38
   5 -10  20    1.98    0.42
   0 -10  21   -0.56    0.31
   0  10 -21    0.42    0.35
   0  10  21    0.10    0.25
   1  10  21   10.87    0.71
  -1  10 -21   10.91    0.75
  -1  10  21   11.49    0.70
   1 -10  21   11.07    0.74
   1  10 -21   10.85    0.75
   2  10  21    9.20    0.67
  -2  10 -21   10.58    0.73
  -2  10  21    9.38    0.64
   2 -10  21    9.04    0.74
   2  10 -21    9.95    0.72
   3  10  21    3.67    0.46
  -3  10 -21    4.06    0.52
   3 -10  21    3.81    0.51
   3  10 -21    3.87    0.49
   4  10  21    2.91    0.45
   0  10 -22    2.10    0.42
   0  10  22    1.43    0.37
   0 -10  22    0.70    0.39
   1  10  22    0.60    0.30
  -1  10 -22    0.64    0.39
   1 -10  22    0.47    0.38
   1  10 -22    0.49    0.37
  -1  10  22    0.72    0.34
   2  10  22    3.74    0.44
  -2  10 -22    3.87    0.51
  -2  10  22    4.05    0.46
   2  10 -22    4.23    0.51
   2 -10  22    4.80    0.56
   0  11   0    0.83    0.13
   1  11   0   -0.05    0.13
   1 -11   0    0.22    0.11
   1  11   0    0.10    0.10
   2  11   0  101.85    3.99
  -2  11   0  102.14    3.80
   2 -11   0   99.49    3.99
  -3  11   0    1.56    0.15
  -3  11   0    1.90    0.18
   3  11   0    1.32    0.19
   3  11   0    1.66    0.19
   3 -11   0    1.72    0.19
   4 -11   0    0.50    0.14
   4  11   0    0.72    0.18
  -4  11   0    0.40    0.14
   4  11   0    0.32    0.16
   5  11   0    0.34    0.19
   5  11   0    0.28    0.18
   5 -11   0    0.23    0.17
  -5  11   0    0.21    0.17
   6  11   0   60.17    2.28
   6  11   0   57.64    2.40
   6 -11   0   56.69    2.40
  -6  11   0   57.80    2.26
   7  11   0    0.34    0.21
  -7  11   0    0.23    0.20
   7 -11   0    0.34    0.24
   7  11   0    0.29    0.24
  -8  11   0    0.83    0.25
   8  11   0    1.13    0.31
   8 -11   0    0.88    0.27
  -9  11   0    0.08    0.26
   9 -11   0   -0.23    0.30
   9  11   0   -0.16    0.30
  10  11   0   15.23    0.92
  10 -11   0   15.82    0.92
 -10  11   0   14.75    0.81
   0  11   1   53.54    2.01
   0  11  -1   52.10    2.09
   0  11   1   51.47    2.08
   1  11   1   56.34    2.17
   1  11   1   55.09    2.25
   1 -11   1   54.93    2.26
   1  11  -1   55.45    2.26
  -1  11   1   61.19    2.16
   2 -11  -1    2.05    0.18
   2  11   1    2.22    0.20
  -2  11  -1    2.35    0.19
   2  11  -1    2.27    0.21
  -2  11   1    2.40    0.19
   2 -11   1    2.18    0.20
  -2  11   1    2.16    0.17
   3  11   1   60.71    2.52
  -3  11  -1   61.25    2.38
   3  11   1   65.27    2.42
   3 -11  -1   62.13    2.51
   3 -11   1   61.60    2.52
  -3  11   1   62.67    2.37
   3  11  -1   64.02    2.53
   3  11  -1   62.32    2.43
  -3  11   1   65.42    2.40
   4 -11  -1    6.09    0.34
  -4  11  -1    5.38    0.33
   4  11   1    5.84    0.36
   4  11   1    6.18    0.37
   4  11  -1    5.31    0.35
  -4  11   1    5.14    0.33
   4  11  -1    4.63    0.35
   4 -11   1    5.52    0.34
   5  11   1    8.67    0.50
   5  11   1    9.44    0.49
   5 -11  -1    9.26    0.50
  -5  11  -1    8.80    0.46
   5  11  -1    8.56    0.47
   5 -11   1    8.34    0.51
   5  11  -1    8.95    0.53
  -5  11   1    9.16    0.47
  -6  11  -1   10.70    0.54
   6  11   1   11.01    0.60
   6  11   1   10.97    0.57
   6 -11  -1   12.10    0.61
   6  11  -1    9.64    0.56
   6 -11   1   10.27    0.59
   6  11  -1   10.12    0.61
  -6  11   1   11.58    0.56
  -7  11  -1   22.21    1.01
   7 -11  -1   23.06    1.11
   7  11   1   23.78    1.09
   7  11   1   24.43    1.03
   7 -11   1   24.18    1.12
   7  11  -1   25.19    1.04
  -7  11   1   22.27    1.02
   7  11  -1   24.08    1.10
   8 -11  -1    0.00    0.26
  -8  11  -1    0.05    0.22
   8  11   1    0.33    0.27
   8 -11   1    0.00    0.23
   8  11  -1    0.18    0.24
  -8  11   1    0.24    0.23
  -9  11  -1    9.56    0.60
   9 -11  -1   10.35    0.72
   9  11   1    9.61    0.68
  -9  11   1   11.02    0.63
   9 -11   1    9.99    0.72
   9  11  -1    9.36    0.70
  10  11   1    0.23    0.35
  10 -11  -1    0.21    0.37
  10 -11   1    0.23    0.36
 -10  11   1    0.78    0.32
  10  11  -1    0.18    0.31
   0  11  -2    0.97    0.15
   0  11   2    0.45    0.13
   0  11   2    0.61    0.11
   1  11   2   54.86    2.32
   1  11   2   60.30    2.25
  -1  11   2   59.16    2.23
   1  11  -2   59.11    2.35
   1 -11   2   59.42    2.35
   2  11   2   11.19    0.50
   2 -11  -2   10.02    0.49
  -2  11  -2   10.66    0.48
   2  11  -2   11.15    0.53
   2 -11   2   10.10    0.52
  -2  11   2   11.34    0.50
  -2  11   2   11.68    0.47
  -3  11  -2   25.11    1.01
   3  11   2   25.64    1.05
   3  11   2   24.17    1.07
   3 -11  -2   26.40    1.07
  -3  11   2   25.90    1.00
  -3  11   2   26.04    1.03
   3 -11   2   24.24    1.09
   3  11  -2   26.28    1.10
   4  11   2   17.66    0.77
   4  11   2   18.20    0.79
  -4  11  -2   17.80    0.74
   4 -11  -2   16.55    0.78
   4  11  -2   18.56    0.78
  -4  11   2   18.33    0.76
   4  11  -2   17.32    0.82
   4 -11   2   16.09    0.79
   5  11   2    0.70    0.17
   5 -11  -2    0.73    0.19
  -5  11  -2    0.83    0.18
   5  11   2    0.78    0.19
   5  11  -2    1.11    0.21
   5 -11   2    1.15    0.22
  -5  11   2    0.80    0.19
   5  11  -2    0.87    0.22
   6  11   2   66.16    2.73
  -6  11  -2   66.28    2.58
   6 -11  -2   67.62    2.75
   6  11   2   67.54    2.61
   6 -11   2   64.49    2.75
   6  11  -2   69.49    2.62
  -6  11   2   65.30    2.60
   6  11  -2   69.64    2.76
   7  11   2   15.34    0.76
   7  11   2   17.46    0.82
   7 -11  -2   18.48    0.83
  -7  11  -2   14.53    0.73
  -7  11   2   15.82    0.77
   7 -11   2   14.86    0.83
   7  11  -2   15.73    0.84
   7  11  -2   15.86    0.77
  -8  11  -2    3.03    0.31
   8  11   2    3.04    0.37
   8 -11  -2    3.05    0.39
   8 -11   2    3.29    0.41
   8  11  -2    3.12    0.37
  -8  11   2    2.75    0.33
   9 -11  -2    0.44    0.32
   9  11   2    0.74    0.32
   9  11  -2    0.44    0.34
   9 -11   2    0.61    0.34
  -9  11   2    0.55    0.29
  10  11   2   20.04    1.09
  10 -11  -2   21.58    1.15
  10  11  -2   21.48    1.14
  10 -11   2   19.34    1.16
 -10  11   2   20.26    1.03
   0  11  -3  117.94    4.56
   0  11   3  113.95    4.53
   0  11   3  115.85    4.35
   1  11   3   26.41    1.09
   1  11   3   27.39    1.08
   1 -11  -3   27.52    1.09
   1 -11   3   26.58    1.12
   1  11  -3   28.47    1.13
  -1  11   3   24.75    1.06
  -2  11  -3   18.49    0.75
   2  11   3   18.40    0.79
   2 -11   3   18.14    0.82
  -2  11   3   18.37    0.75
   2  11  -3   19.95    0.83
  -2  11   3   18.42    0.77
   3  11   3   28.92    1.20
   3 -11  -3   29.45    1.22
   3  11   3   33.93    1.24
  -3  11  -3   28.34    1.15
   3 -11   3   27.53    1.24
   3  11  -3   28.99    1.25
  -3  11   3   27.93    1.14
  -3  11   3   31.10    1.18
  -4  11  -3   28.93    1.13
   4  11   3   28.46    1.17
   4  11   3   28.05    1.20
   4 -11  -3   27.75    1.20
  -4  11   3   29.68    1.16
   4  11  -3   27.90    1.24
   4 -11   3   28.01    1.22
   5 -11  -3   12.96    0.64
   5  11   3   13.36    0.63
  -5  11  -3   11.94    0.58
   5  11   3   12.51    0.61
   5 -11   3   12.78    0.66
   5  11  -3   13.70    0.63
  -5  11   3   11.88    0.59
   5  11  -3   12.32    0.67
  -6  11  -3    8.59    0.49
   6 -11  -3   10.37    0.55
   6  11   3    9.94    0.55
   6  11   3    9.24    0.52
   6 -11   3    9.39    0.57
  -6  11   3    9.48    0.51
   6  11  -3    8.99    0.53
   6  11  -3    8.77    0.58
   7  11   3   15.72    0.81
   7 -11  -3   15.83    0.83
   7  11   3   16.32    0.77
   7 -11   3   16.89    0.86
   7  11  -3   16.53    0.78
   7  11  -3   16.62    0.86
  -7  11   3   15.82    0.78
   8  11   3    1.58    0.28
   8 -11  -3    1.23    0.31
   8  11  -3    1.93    0.36
  -8  11   3    1.56    0.30
   8 -11   3    1.66    0.31
   9 -11  -3   11.60    0.78
   9  11   3   11.23    0.73
  -9  11   3   12.18    0.69
   9 -11   3   11.81    0.79
   9  11  -3   12.16    0.75
  10  11   3    1.74    0.41
  10 -11  -3    1.73    0.43
 -10  11   3    1.39    0.35
   0  11   4   -0.21    0.11
   0  11   4    0.15    0.08
   0  11  -4    0.14    0.14
   1  11   4   79.35    3.12
   1 -11  -4   81.05    3.12
   1  11   4   81.22    3.02
   1 -11   4   78.65    3.17
   1  11  -4   77.60    3.16
  -1  11   4   79.28    3.00
  -2  11  -4    2.17    0.17
   2  11   4    2.29    0.18
   2 -11   4    2.32    0.21
   2  11  -4    2.10    0.22
  -2  11   4    2.22    0.17
  -2  11   4    2.48    0.20
   3 -11  -4   37.01    1.57
   3  11   4   40.07    1.54
   3  11   4   41.84    1.58
  -3  11  -4   37.53    1.48
  -3  11   4   39.29    1.48
   3  11  -4   37.84    1.62
   3 -11   4   36.19    1.60
  -3  11   4   39.70    1.52
   4  11   4   14.49    0.67
   4  11   4   14.66    0.66
  -4  11  -4   15.02    0.62
   4 -11  -4   14.74    0.66
   4  11  -4   14.52    0.71
  -4  11   4   14.69    0.66
   4 -11   4   12.46    0.68
   5 -11  -4    7.17    0.42
   5  11   4    6.73    0.41
  -5  11  -4    6.77    0.38
   5  11   4    7.58    0.43
  -5  11   4    6.04    0.40
   5  11  -4    7.89    0.48
   5 -11   4    7.47    0.46
   6 -11  -4   24.32    1.11
   6  11   4   23.82    1.05
   6  11   4   24.66    1.09
   6  11  -4   26.86    1.17
   6  11  -4   23.33    1.06
  -6  11   4   24.88    1.06
   6 -11   4   23.89    1.13
   7  11   4    7.28    0.47
   7 -11  -4    7.26    0.52
   7  11   4    7.58    0.50
   7  11  -4    7.11    0.50
   7 -11   4    8.11    0.53
  -7  11   4    8.09    0.51
   7  11  -4    7.40    0.56
   8  11   4    3.36    0.38
   8 -11  -4    3.85    0.43
   8  11  -4    4.06    0.44
  -8  11   4    3.97    0.39
   9 -11  -4    3.60    0.46
   9  11   4    3.16    0.41
  -9  11   4    2.60    0.38
   9 -11   4    3.58    0.44
   9  11  -4    3.19    0.42
  10  11   4    6.56    0.59
  10 -11  -4    7.62    0.67
 -10  11   4    6.37    0.54
   0  11   5  216.41    8.47
   0  11  -5  215.32    8.53
   0  11   5  223.54    8.15
   1  11   5    6.38    0.28
   1 -11  -5    5.93    0.28
   1  11   5    5.67    0.32
  -1  11   5    5.61    0.31
   1 -11   5    6.08    0.36
   1  11  -5    5.95    0.37
   2  11   5    7.80    0.35
  -2  11  -5    7.67    0.34
   2 -11  -5    7.38    0.35
  -2  11   5    6.93    0.35
   2  11  -5    7.26    0.41
   2 -11   5    7.14    0.40
  -2  11   5    7.22    0.38
   3 -11  -5   26.58    0.98
  -3  11  -5   23.03    0.91
   3  11   5   21.98    0.96
   3  11   5   23.52    0.97
  -3  11   5   21.69    0.91
   3 -11   5   22.34    1.02
   3  11  -5   22.87    1.03
  -3  11   5   23.87    0.97
  -4  11  -5   25.47    1.05
   4  11   5   24.65    1.09
   4 -11  -5   27.22    1.10
   4  11   5   26.12    1.08
  -4  11   5   25.59    1.07
   4  11  -5   27.80    1.16
   4 -11   5   25.02    1.13
   5 -11  -5   10.38    0.55
   5  11   5   11.07    0.54
   5  11   5   10.15    0.54
  -5  11   5    9.99    0.54
   5 -11   5   10.90    0.59
   5  11  -5   10.48    0.58
   6  11   5    0.23    0.18
   6  11   5    0.23    0.22
   6 -11  -5    0.74    0.22
  -6  11   5    0.68    0.24
   6  11  -5    0.77    0.24
   6 -11   5    0.73    0.25
   7  11   5    0.20    0.22
   7 -11  -5    0.35    0.25
   7  11   5    0.74    0.24
   7  11  -5    0.30    0.23
   7  11  -5    0.31    0.28
  -7  11   5    0.02    0.24
   7 -11   5    0.53    0.24
   8  11   5    0.25    0.27
   8 -11  -5    0.48    0.29
   8  11   5    0.31    0.23
   8  11  -5    0.35    0.32
   8 -11   5    0.26    0.26
  -8  11   5    0.47    0.28
   9 -11  -5    5.58    0.55
   9  11   5    5.41    0.50
   9  11  -5    5.58    0.53
  -9  11   5    6.05    0.48
   9 -11   5    5.52    0.57
  10  11   5    0.25    0.37
  10 -11  -5    0.20    0.37
 -10  11   5    0.70    0.35
   0  11  -6    0.16    0.15
   0  11   6   -0.01    0.12
   1  11   6   41.15    1.63
   1  11  -6   40.16    1.72
  -1  11   6   42.69    1.62
   1 -11   6   42.90    1.73
  -2  11  -6    0.57    0.10
   2 -11   6    0.56    0.16
  -2  11   6    0.34    0.12
   2  11  -6    0.44    0.16
   3  11   6   71.76    2.76
   3 -11   6   70.25    2.82
  -3  11   6   70.65    2.63
   3  11  -6   65.95    2.82
   4  11   6   40.56    1.60
   4 -11  -6   37.23    1.61
   4  11   6   39.86    1.57
   4 -11   6   40.47    1.66
  -4  11   6   38.43    1.57
   4  11  -6   39.13    1.67
   5  11   6    2.09    0.23
   5  11   6    1.83    0.25
   5 -11  -6    2.08    0.23
  -5  11   6    1.84    0.24
   5 -11   6    1.87    0.28
   5  11  -6    1.64    0.26
   6 -11  -6    4.49    0.39
   6  11   6    4.64    0.37
   6  11   6    4.44    0.38
   6 -11   6    5.11    0.44
   6  11  -6    5.38    0.43
  -6  11   6    5.11    0.42
   7  11   6   21.66    1.01
   7 -11  -6   20.38    1.03
   7  11   6   21.99    0.97
   7  11  -6   21.30    1.08
  -7  11   6   22.06    1.00
   7  11  -6   21.74    0.99
   7 -11   6   21.69    1.05
   8 -11  -6   11.95    0.75
   8  11   6   12.18    0.65
   8 -11   6   13.44    0.79
   8  11  -6   12.13    0.77
  -8  11   6   11.41    0.66
   9 -11   6    9.37    0.69
  -9  11   6    9.42    0.64
   9  11  -6    9.71    0.73
 -10  11   6    2.81    0.42
   0  11   7  135.81    5.02
   0  11  -7  131.49    5.27
   1  11   7   48.83    1.87
  -1  11   7   49.89    1.85
   1 -11   7   46.28    1.97
   1  11  -7   47.26    1.97
   2 -11   7   12.41    0.60
   2  11  -7   11.28    0.59
  -2  11   7   12.32    0.53
   3  11   7    0.92    0.16
   3 -11   7    1.17    0.20
   3  11  -7    1.00    0.19
  -3  11   7    0.99    0.14
   4  11   7   30.93    1.27
   4 -11   7   33.59    1.35
   4  11  -7   31.18    1.35
  -4  11   7   28.44    1.25
   5  11   7   11.39    0.56
  -5  11   7   10.52    0.58
   5 -11   7   10.53    0.62
   5  11  -7   11.70    0.65
   6  11   7    0.06    0.21
   6  11  -7    0.62    0.27
  -6  11   7    1.06    0.26
   6 -11   7    0.50    0.26
   7  11   7    0.05    0.22
   7 -11   7    0.18    0.28
   7  11  -7    0.24    0.26
  -7  11   7    0.29    0.27
   8  11   7    0.48    0.25
   8 -11   7    0.69    0.33
   8  11  -7    0.12    0.32
  -8  11   7    0.07    0.28
   9  11  -7    7.26    0.61
  -9  11   7    5.87    0.52
   9 -11   7    6.30    0.62
 -10  11   7    1.13    0.38
   0  11  -8    0.00    0.04
   0  11   8    0.09    0.11
   1  11   8    8.62    0.43
  -1  11   8    7.97    0.40
  -2  11   8    0.94    0.15
  -2  11   8    0.92    0.16
   3  11   8   37.19    1.49
   4  11   8    3.58    0.31
   4  11  -8    3.23    0.32
   4 -11   8    3.46    0.32
  -4  11   8    3.72    0.31
   5  11   8    2.83    0.27
   5 -11   8    2.84    0.31
  -5  11   8    2.47    0.27
   5  11  -8    2.69    0.34
   6  11   8   13.87    0.68
  -6  11   8   13.51    0.70
   6 -11   8   11.95    0.72
   6  11  -8   13.97    0.74
   7  11   8   11.00    0.64
  -7  11   8   12.33    0.69
   7 -11   8   12.60    0.74
   7  11  -8   11.88    0.75
   8  11   8   21.23    1.05
   8 -11   8   23.00    1.15
   8  11  -8   24.83    1.17
  -8  11   8   23.37    1.09
   9  11  -8    9.45    0.71
   9 -11   8    8.01    0.64
  -9  11   8    6.72    0.55
   2  11   9    3.41    0.24
   3  11   9   23.77    0.96
   3  11  -9   19.32    1.01
  -3  11   9   24.80    0.97
   3 -11   9   18.20    0.99
  -3  11   9   25.26    0.91
   4  11   9   12.45    0.62
   4 -11   9   12.30    0.66
   4  11  -9   12.16    0.68
  -4  11   9   13.12    0.63
   5  11   9    3.82    0.33
  -5  11   9    3.04    0.33
   5  11  -9    3.80    0.38
   5 -11   9    3.17    0.33
   6  11   9    4.85    0.38
   6 -11   9    4.26    0.41
   6  11  -9    4.45    0.42
  -6  11   9    4.90    0.41
   7  11   9   -0.01    0.24
   7  11  -9    0.10    0.32
  -7  11   9    0.55    0.26
   7 -11   9    0.37    0.30
   8  11   9    0.66    0.28
  -8  11   9    0.67    0.32
   8  11  -9    0.39    0.30
   8 -11   9    0.50    0.30
  -9  11   9    0.96    0.36
   0  11  10    0.10    0.15
   0  11 -10   -0.03    0.08
   1  11  10   47.57    1.86
  -1  11  10   46.30    1.84
  -1  11  10   48.68    1.86
   2  11  10    1.28    0.22
  -2  11  10    1.43    0.18
   2 -11  10    1.13    0.21
  -2  11  10    1.87    0.22
   2  11 -10    1.42    0.23
   3  11  10   31.42    1.27
   3 -11  10   31.05    1.35
   3  11 -10   29.13    1.34
  -3  11  10   30.80    1.21
  -3  11  10   30.57    1.26
   4  11  10    0.06    0.20
   4  11 -10    0.26    0.24
   4 -11  10    0.41    0.20
  -4  11  10    0.80    0.21
   5  11  10   13.14    0.68
   5 -11  10   14.11    0.73
  -5  11  10   13.67    0.70
   5  11 -10   13.04    0.73
   6  11  10   21.17    0.96
   6  11 -10   21.51    1.06
  -6  11  10   20.16    0.98
   6 -11  10   21.55    1.03
   7  11  10    8.30    0.54
   7  11 -10    8.39    0.61
   7 -11  10    8.21    0.63
  -7  11  10    7.41    0.57
   8  11  10    1.01    0.29
   8  11 -10    0.70    0.37
   8 -11  10    0.82    0.32
  -8  11  10    1.00    0.30
  -9  11  10    0.46    0.34
   0  11 -11   62.93    2.59
   0  11  11   63.87    2.45
  -1  11 -11    2.01    0.27
   1  11  11    2.34    0.23
   1  11 -11    1.97    0.28
  -1  11  11    2.26    0.24
   1 -11  11    1.96    0.28
  -1  11  11    2.22    0.22
   2  11  11   44.28    1.80
   2 -11  11   46.57    1.91
   2  11 -11   43.14    1.90
  -2  11  11   46.68    1.77
  -2  11  11   46.40    1.80
   3  11  11   26.29    1.15
   3  11 -11   26.71    1.24
  -3  11  11   27.41    1.15
  -3  11  11   27.95    1.11
   3 -11  11   28.64    1.23
   4  11  11   31.82    1.34
   4 -11  11   32.89    1.44
   4  11 -11   33.38    1.45
  -4  11  11   32.23    1.36
   5  11  11    0.18    0.23
   5 -11  11    0.51    0.24
  -5  11  11    0.12    0.24
   5  11 -11    0.38    0.24
   6  11  11    1.00    0.25
   6 -11  11    1.17    0.28
   6  11 -11    0.66    0.31
  -6  11  11    0.85    0.30
   7  11  11    0.26    0.27
  -7  11  11    0.74    0.31
   7 -11  11    0.45    0.32
   7  11 -11    0.34    0.34
   8  11  11    2.82    0.38
   8  11 -11    2.59    0.42
  -8  11  11    2.06    0.35
   8 -11  11    2.63    0.41
  -9  11  11    3.26    0.41
   0  11 -12    0.08    0.19
   0  11  12    0.18    0.17
  -1  11 -12   19.88    0.98
   1  11  12   20.90    0.91
   1  11 -12   21.04    0.98
  -1  11  12   22.29    0.92
  -1  11  12   20.80    0.89
   2  11  12    4.36    0.34
  -2  11  12    5.07    0.37
   2  11 -12    4.62    0.39
  -2  11  12    5.40    0.33
   2 -11  12    4.71    0.38
   3  11  12   18.85    0.89
  -3  11  12   19.80    0.91
   3 -11  12   22.61    0.96
   3 -11  12   21.70    0.99
  -3  11  12   19.80    0.88
   3  11 -12   20.64    0.99
   4  11  12    0.30    0.20
   4  11 -12    0.45    0.27
   4 -11  12    0.53    0.21
   4 -11  12    0.28    0.22
  -4  11  12    0.52    0.21
   5  11  12    4.48    0.39
   5 -11  12    5.13    0.44
   5  11 -12    4.94    0.46
  -5  11  12    5.04    0.42
   6  11  12   18.58    0.90
   6 -11  12   18.28    0.95
   6  11 -12   19.12    0.99
  -6  11  12   18.48    0.89
   7  11  12    2.13    0.34
   7 -11  12    2.10    0.39
  -7  11  12    2.20    0.34
   7  11 -12    2.69    0.43
   8  11  12    0.15    0.28
  -8  11  12    0.09    0.33
   8  11 -12    0.15    0.36
   8 -11  12    0.42    0.32
   0  11 -13   47.06    2.01
   0  11  13   49.15    1.90
   1  11  13    2.30    0.26
  -1  11 -13    2.27    0.29
   1  11 -13    2.22    0.29
  -1  11  13    2.53    0.28
  -1  11  13    2.40    0.25
   2  11  13   32.63    1.36
   2  11 -13   32.27    1.46
  -2  11  13   33.65    1.36
  -2  11  13   32.17    1.33
   2 -11  13   34.02    1.43
   2 -11  13   33.67    1.46
   3  11  13   17.11    0.79
   3 -11  13   16.47    0.84
   3  11 -13   17.04    0.87
  -3  11  13   16.90    0.78
   3 -11  13   17.12    0.86
   4  11  13    2.17    0.27
   4 -11  13    2.13    0.30
  -4  11  13    1.68    0.29
   4  11 -13    2.13    0.31
   4 -11  13    2.01    0.30
   5  11  13    5.91    0.44
  -5  11  13    6.03    0.49
   5  11 -13    5.91    0.49
   5 -11  13    6.30    0.53
   6  11  13    0.92    0.26
   6 -11  13    0.73    0.33
   6  11 -13    0.46    0.32
  -6  11  13    0.99    0.28
   7  11  13    3.01    0.38
  -7  11  13    3.77    0.43
   7  11 -13    3.99    0.48
   7 -11  13    2.91    0.41
   8  11  13    0.39    0.33
  -8  11  13    0.55    0.31
   0  11  14    0.17    0.19
   0  11 -14    0.10    0.21
   0  11  14    0.19    0.19
  -1  11 -14    3.24    0.34
   1  11  14    3.64    0.32
   1  11 -14    3.68    0.35
  -1  11  14    3.62    0.32
  -1  11  14    3.34    0.29
   2  11  14    8.21    0.49
   2 -11  14    7.50    0.50
   2  11 -14    6.98    0.54
  -2  11  14    7.88    0.48
   2 -11  14    7.34    0.51
  -2  11  14    7.81    0.44
   3  11  14    0.26    0.20
  -3  11  14    0.03    0.24
   3  11 -14    0.45    0.24
   3 -11  14    0.60    0.23
   3 -11  14    0.66    0.25
   4  11  14    5.66    0.45
  -4  11  14    5.75    0.46
   4 -11  14    5.29    0.46
   4 -11  14    5.89    0.48
   4  11 -14    6.14    0.52
   5  11  14   12.02    0.67
   5 -11  14   13.08    0.69
   5 -11  14   11.72    0.73
  -5  11  14   11.40    0.68
   5  11 -14   10.79    0.72
   6  11  14    9.80    0.63
  -6  11  14    9.51    0.65
   6 -11  14   10.97    0.72
   6  11 -14   10.81    0.72
   7  11  14    5.91    0.49
   7 -11  14    6.47    0.57
   7  11 -14    6.60    0.57
  -7  11  14    5.95    0.53
   8  11  14    1.42    0.35
  -8  11  14    1.21    0.39
   0  11  15   19.37    0.86
   0  11 -15   18.40    0.93
   0  11  15   18.43    0.85
  -1  11 -15    7.10    0.48
   1  11  15    6.00    0.44
  -1  11  15    6.39    0.43
   1  11 -15    5.67    0.50
  -1  11  15    6.92    0.44
   2  11  15   54.08    2.18
  -2  11 -15   56.59    2.31
  -2  11  15   54.12    2.15
   2 -11  15   54.55    2.26
   2  11 -15   51.98    2.29
   2 -11  15   56.91    2.31
  -2  11  15   55.35    2.17
   3  11  15    0.47    0.25
   3  11 -15    0.36    0.25
  -3  11  15    0.54    0.22
   3 -11  15    0.82    0.28
   3 -11  15    0.40    0.24
   4  11  15    0.18    0.22
  -4  11  15    0.11    0.26
   4 -11  15    0.58    0.26
   4 -11  15    0.10    0.23
   4  11 -15    0.27    0.30
   5  11  15    9.54    0.60
  -5  11  15    8.49    0.57
   5 -11  15    9.01    0.65
   5 -11  15    9.14    0.61
   5  11 -15    9.70    0.66
   6  11  15    2.60    0.37
  -6  11  15    2.63    0.39
   6  11 -15    2.95    0.40
   6 -11  15    2.30    0.41
   7  11  15    8.20    0.60
   7 -11  15    8.82    0.69
   7  11 -15    6.80    0.63
  -7  11  15    7.89    0.63
   0  11  16    0.14    0.23
   0  11  16    0.16    0.19
   0  11 -16   -0.15    0.22
   1  11  16    5.19    0.43
  -1  11 -16    5.08    0.44
  -1  11  16    5.14    0.40
   1  11 -16    5.36    0.46
  -1  11  16    4.83    0.41
   1 -11  16    5.07    0.48
   2  11  16    5.54    0.45
  -2  11 -16    5.63    0.49
  -2  11  16    5.25    0.40
  -2  11  16    5.43    0.43
   2  11 -16    4.85    0.46
   2 -11  16    4.97    0.45
   3  11  16    1.87    0.28
   3 -11  16    2.02    0.35
   3  11 -16    2.00    0.33
  -3  11  16    1.77    0.30
   3 -11  16    2.13    0.35
   4  11  16   12.74    0.69
   4 -11  16   11.77    0.73
  -4  11  16   12.12    0.68
   4  11 -16   11.56    0.71
   4 -11  16   11.81    0.70
   5  11  16    6.23    0.53
   5 -11  16    6.02    0.54
   5 -11  16    5.95    0.52
   5  11 -16    5.84    0.52
  -5  11  16    6.27    0.50
   6  11  16    1.48    0.35
  -6  11  16    1.53    0.36
   6 -11  16    1.76    0.39
   6  11 -16    1.24    0.35
   7  11  16    2.54    0.41
  -7  11  16    2.05    0.41
   0  11  17    0.60    0.25
   0  11 -17    0.79    0.31
   0  11  17    0.91    0.26
   1  11  17    3.54    0.36
  -1  11 -17    3.52    0.38
   1  11  17    3.55    0.35
   1 -11  17    2.58    0.39
   1  11 -17    3.44    0.40
  -1  11  17    3.17    0.33
  -1  11  17    3.05    0.33
   2  11  17    7.27    0.52
  -2  11 -17    7.55    0.54
  -2  11  17    7.42    0.48
   2  11 -17    6.66    0.56
   2 -11  17    7.14    0.58
  -2  11  17    6.82    0.49
   3  11  17    2.87    0.33
   3 -11  17    2.81    0.40
   3  11 -17    2.87    0.37
   3 -11  17    2.12    0.38
  -3  11  17    3.17    0.36
   4  11  17    5.38    0.48
   4  11 -17    6.15    0.53
  -4  11  17    6.95    0.52
   4 -11  17    4.87    0.51
   4 -11  17    6.11    0.51
   5  11  17    6.32    0.51
   5 -11  17    5.82    0.55
   5 -11  17    5.52    0.53
   5  11 -17    6.39    0.57
  -5  11  17    6.53    0.51
   6  11  17    0.02    0.26
   6 -11  17    0.09    0.30
  -6  11  17   -0.12    0.27
   6  11 -17    0.21    0.36
   0  11 -18    0.35    0.27
   0  11  18    0.13    0.26
   0  11  18   -0.01    0.25
   1  11  18    0.47    0.27
  -1  11 -18    0.79    0.29
  -1  11  18    0.46    0.25
   1 -11  18    0.57    0.32
  -1  11  18    0.41    0.25
   1  11 -18    0.79    0.32
  -2  11 -18    1.56    0.38
   2  11  18    1.62    0.33
   2  11 -18    1.38    0.35
  -2  11  18    1.29    0.30
   2 -11  18    0.96    0.33
  -2  11  18    1.59    0.29
   3  11  18    2.22    0.33
  -3  11 -18    2.41    0.45
   3 -11  18    1.56    0.37
   3 -11  18    2.44    0.39
  -3  11  18    2.75    0.36
   3  11 -18    1.70    0.39
   4  11  18    8.26    0.59
   4  11 -18    8.20    0.60
   4 -11  18    6.41    0.56
   4 -11  18    6.93    0.61
  -4  11  18    7.61    0.57
   5  11  18    2.74    0.41
  -5  11  18    3.31    0.42
   5 -11  18    2.62    0.44
   5 -11  18    3.11    0.42
   5  11 -18    2.54    0.39
   6  11  18    0.85    0.36
  -6  11  18    1.11    0.36
   0  11  19    1.43    0.28
   0  11 -19    2.08    0.38
  -1  11 -19    5.39    0.48
   1  11  19    5.22    0.46
  -1  11  19    5.51    0.45
   1 -11  19    5.17    0.53
   1  11 -19    5.39    0.48
   2  11  19    2.36    0.37
  -2  11 -19    2.78    0.39
  -2  11  19    2.27    0.34
   2  11 -19    2.88    0.43
  -2  11  19    2.42    0.33
   2 -11  19    2.87    0.44
   3  11  19    0.11    0.30
  -3  11 -19   -0.06    0.31
  -3  11  19    0.35    0.29
   3 -11  19    0.32    0.32
   3  11 -19    0.52    0.34
   4  11  19    3.06    0.39
  -4  11  19    3.86    0.43
   4 -11  19    4.06    0.49
   4 -11  19    3.88    0.44
   4  11 -19    3.43    0.43
   5  11  19    0.48    0.30
   5 -11  19    0.56    0.35
  -5  11  19    0.72    0.35
   0  11 -20   -0.14    0.32
   0  11  20   -0.34    0.27
  -1  11 -20    0.33    0.34
   1  11  20    0.23    0.30
  -1  11  20    0.04    0.28
   1  11 -20    0.61    0.35
   1 -11  20    0.01    0.33
  -2  11 -20    0.52    0.36
   2  11  20    0.19    0.31
   2  11 -20   -0.09    0.32
   2 -11  20   -0.11    0.33
  -2  11  20    0.28    0.30
   3  11  20    0.12    0.32
  -3  11 -20    0.04    0.37
   3 -11  20    0.02    0.33
   3  11 -20    0.25    0.35
  -3  11  20    0.12    0.32
   4  11  20    3.69    0.46
  -4  11  20    3.76    0.45
   4 -11  20    2.72    0.47
   4 -11  20    3.50    0.45
   4  11 -20    4.15    0.51
   0  11  21    0.69    0.32
   0  11 -21    0.56    0.36
  -1  11 -21    8.06    0.66
   1  11  21    7.78    0.60
   1 -11  21    7.08    0.65
   1  11 -21    7.18    0.60
  -1  11  21    7.39    0.59
  -2  11 -21    8.15    0.67
   2  11  21    8.30    0.63
   2  11 -21    7.05    0.63
  -2  11  21    8.14    0.59
   2 -11  21    6.97    0.63
  -3  11 -21   -0.25    0.38
   3  11  21   -0.01    0.27
   3 -11  21    0.03    0.33
   3  11 -21    0.17    0.36
   0  11  22    0.34    0.33
   0  11 -22    0.52    0.38
  -1  11 -22    6.72    0.62
   1  11  22    7.85    0.64
  -1  11  22    7.89    0.61
   1  11 -22    7.56    0.66
   1 -11  22    7.17    0.66
   2  11  22    1.14    0.38
   2 -11  22    0.57    0.40
   0  12   0  824.45   31.04
   0  12   0  769.01   29.51
   1  12   0    0.71    0.14
   1 -12   0    0.98    0.14
  -1  12   0    1.01    0.16
   1  12   0    0.82    0.17
   2 -12   0   86.63    3.44
  -2  12   0   84.25    3.27
   2  12   0   89.37    3.44
   3  12   0    0.04    0.14
  -3  12   0   -0.33    0.12
  -3  12   0    0.07    0.14
   3  12   0   -0.55    0.14
   3 -12   0    0.16    0.13
   4 -12   0  215.40    8.10
   4  12   0  202.18    7.75
  -4  12   0  199.24    7.69
   4  12   0  209.35    8.10
  -5  12   0    0.39    0.16
   5  12   0    0.05    0.19
   5 -12   0    0.27    0.18
   5  12   0   -0.01    0.19
  -6  12   0    4.03    0.34
   6  12   0    4.38    0.37
   6  12   0    3.17    0.32
   6 -12   0    4.00    0.36
   7  12   0    0.46    0.26
   7  12   0    0.21    0.22
   7 -12   0    0.12    0.24
  -7  12   0    0.18    0.21
   8 -12   0    4.57    0.47
   8  12   0    4.82    0.45
  -8  12   0    4.30    0.38
   9 -12   0    1.65    0.40
  -9  12   0    2.10    0.32
   9  12   0    1.96    0.38
  10  12   0    1.09    0.39
  10 -12   0    0.37    0.38
   0  12   1   -0.56    0.12
   0  12   1    0.23    0.12
   0  12  -1    0.42    0.13
   1 -12  -1  113.62    4.49
   1  12   1  118.56    4.32
   1  12   1  113.62    4.49
  -1  12   1  112.65    4.30
   1 -12   1  111.90    4.50
   1  12  -1  115.21    4.50
   2 -12  -1    0.23    0.11
   2  12   1   -0.07    0.03
   2  12   1    0.21    0.12
  -2  12   1   -0.15    0.10
  -2  12   1    0.07    0.14
   2  12  -1    0.03    0.12
   2 -12   1    0.07    0.13
  -3  12  -1  171.90    6.17
   3  12   1  172.17    6.22
   3  12   1  160.38    6.49
   3 -12  -1  160.59    6.48
  -3  12   1  164.94    6.18
  -3  12   1  156.97    6.17
   3 -12   1  167.01    6.50
   3  12  -1  163.56    6.50
   3  12  -1  171.94    6.23
   4  12   1   -0.17    0.19
  -4  12  -1    0.47    0.14
   4 -12  -1    0.70    0.17
   4  12   1    0.61    0.17
   4  12  -1    0.58    0.19
   4  12  -1   -0.22    0.19
   4 -12   1    0.61    0.18
  -4  12   1    0.61    0.16
  -5  12  -1   18.59    0.82
   5  12   1   19.13    0.85
   5 -12  -1   18.77    0.88
   5  12   1   19.52    0.88
  -5  12   1   18.12    0.82
   5  12  -1   20.05    0.86
   5 -12   1   18.42    0.88
   5  12  -1   19.10    0.89
   6 -12  -1   24.79    1.07
  -6  12  -1   22.24    0.97
   6  12   1   23.03    1.01
   6  12   1   23.48    1.05
  -6  12   1   23.30    0.99
   6 -12   1   21.16    1.05
   6  12  -1   22.14    1.06
   6  12  -1   22.59    1.00
   7  12   1    7.42    0.48
   7 -12  -1    6.86    0.54
   7  12   1    7.75    0.53
  -7  12  -1    7.74    0.46
   7  12  -1    6.93    0.47
  -7  12   1    7.49    0.48
   7 -12   1    7.23    0.53
   7  12  -1    7.58    0.54
   8  12   1    5.59    0.49
  -8  12  -1    5.83    0.44
   8 -12  -1    6.72    0.54
   8  12  -1    5.35    0.48
  -8  12   1    6.14    0.46
   8 -12   1    6.50    0.54
   9  12   1   14.14    0.83
   9 -12  -1   15.72    0.91
   9 -12   1   15.06    0.92
  -9  12   1   16.34    0.80
   9  12  -1   15.49    0.89
  10  12   1    3.50    0.48
  10 -12  -1    3.13    0.50
 -10  12   1    3.06    0.40
   0  12  -2  372.97   14.67
   0  12   2  380.86   14.65
   0  12   2  378.46   14.03
   1  12   2    9.98    0.47
   1  12   2    9.51    0.45
   1  12  -2    9.36    0.47
   1 -12   2    9.15    0.47
  -1  12   2    9.40    0.44
  -2  12  -2   38.90    1.52
   2 -12  -2   38.90    1.60
   2  12   2   40.15    1.61
   2 -12   2   38.26    1.62
  -2  12   2   39.33    1.54
   2  12  -2   38.83    1.63
  -2  12   2   42.11    1.53
   3  12   2   21.66    0.95
   3 -12  -2   18.21    0.94
   3  12   2   22.69    0.94
  -3  12  -2   24.33    0.90
   3 -12   2   23.64    0.97
  -3  12   2   21.69    0.88
   3  12  -2   21.17    0.97
  -3  12   2   23.31    0.92
   4 -12  -2   86.47    3.56
  -4  12  -2   89.81    3.38
   4  12   2   88.79    3.56
   4  12   2   90.44    3.42
   4 -12   2   92.36    3.58
   4  12  -2   88.14    3.43
   4  12  -2   90.44    3.59
  -4  12   2   88.88    3.39
  -5  12  -2    8.78    0.46
   5  12   2    9.99    0.49
   5  12   2    9.06    0.52
   5 -12  -2    9.53    0.51
   5  12  -2    9.23    0.52
  -5  12   2    8.72    0.48
   5 -12   2    9.06    0.53
   5  12  -2    8.32    0.51
   6  12   2    3.11    0.32
   6 -12  -2    2.82    0.32
  -6  12  -2    3.03    0.29
   6  12   2    3.20    0.32
   6 -12   2    3.21    0.34
   6  12  -2    3.15    0.32
  -6  12   2    3.19    0.31
   6  12  -2    3.38    0.35
   7  12   2    6.71    0.46
   7  12   2    6.81    0.50
   7 -12  -2    7.16    0.51
  -7  12  -2    6.65    0.43
   7  12  -2    6.71    0.46
   7 -12   2    7.71    0.51
  -7  12   2    6.32    0.46
   7  12  -2    7.20    0.53
   8  12   2    2.54    0.36
   8 -12  -2    2.25    0.37
  -8  12   2    2.71    0.34
   8  12  -2    2.93    0.36
   8 -12   2    2.53    0.39
   9 -12  -2    5.24    0.55
   9  12   2    5.71    0.53
  -9  12   2    6.50    0.52
   9 -12   2    6.06    0.58
   9  12  -2    7.48    0.61
  10 -12  -2    1.00    0.40
  10  12   2    0.93    0.38
 -10  12   2    0.70    0.33
   0  12   3   -0.06    0.13
   0  12  -3    0.25    0.12
   0  12   3    0.29    0.10
   1  12   3   95.67    3.99
   1  12   3  105.70    3.85
   1 -12   3   97.19    4.03
   1  12  -3  104.51    4.03
  -1  12   3  106.35    3.84
   2  12   3   16.22    0.69
   2 -12  -3   14.22    0.68
  -2  12  -3   16.49    0.66
   2 -12   3   15.72    0.72
  -2  12   3   16.26    0.66
   2  12  -3   16.42    0.73
  -2  12   3   15.53    0.68
  -3  12  -3   33.28    1.29
   3  12   3   31.80    1.33
   3 -12  -3   33.37    1.36
   3  12   3   33.21    1.36
   3  12  -3   32.86    1.40
  -3  12   3   33.14    1.28
  -3  12   3   34.12    1.32
   3 -12   3   31.99    1.39
   4  12   3    0.75    0.20
   4  12   3    1.20    0.19
  -4  12  -3    0.85    0.16
   4 -12  -3    1.02    0.17
   4  12  -3    0.81    0.19
  -4  12   3    0.94    0.19
   4 -12   3    0.95    0.19
  -5  12  -3    0.74    0.18
   5  12   3    0.42    0.17
   5 -12  -3    0.71    0.18
  -5  12   3    0.66    0.20
   5  12  -3    0.50    0.23
   5 -12   3    0.64    0.19
   5  12  -3    0.93    0.24
   6 -12  -3   47.25    1.96
   6  12   3   46.87    1.94
   6  12   3   47.84    1.87
  -6  12  -3   44.75    1.83
   6 -12   3   44.32    1.96
   6  12  -3   46.41    1.98
   6  12  -3   48.03    1.88
  -6  12   3   46.65    1.86
   7  12   3    5.52    0.47
   7  12   3    5.77    0.45
   7 -12  -3    6.72    0.50
   7  12  -3    6.97    0.49
   7  12  -3    6.80    0.53
  -7  12   3    6.26    0.46
   7 -12   3    8.01    0.54
   8  12   3    0.09    0.23
   8 -12  -3    0.30    0.27
   8  12   3    0.02    0.25
   8  12  -3    0.16    0.29
  -8  12   3    0.22    0.26
   8 -12   3    0.46    0.31
   9 -12  -3    6.53    0.58
   9  12   3    5.80    0.52
   9 -12   3    5.39    0.57
   9  12  -3    6.28    0.57
  -9  12   3    5.78    0.48
  10 -12  -3    7.50    0.69
  10  12   3    6.98    0.59
 -10  12   3    6.99    0.59
   0  12  -4   60.78    2.44
   0  12   4   61.62    2.32
   0  12   4   59.55    2.39
   1 -12  -4    0.33    0.09
   1  12   4   -0.08    0.13
   1  12   4    0.15    0.09
  -1  12   4    0.17    0.11
   1  12  -4    0.24    0.15
   1 -12   4   -0.04    0.14
   2  12   4   50.31    2.00
  -2  12  -4   49.90    1.91
  -2  12   4   50.89    1.92
   2 -12   4   51.27    2.05
  -2  12   4   51.25    1.94
   2  12  -4   47.06    2.04
   3 -12  -4   54.12    2.22
   3  12   4   54.60    2.22
  -3  12  -4   55.40    2.10
   3  12  -4   54.21    2.26
   3 -12   4   57.26    2.27
  -3  12   4   56.46    2.10
  -3  12   4   55.71    2.14
   4 -12  -4   39.82    1.72
  -4  12  -4   44.09    1.63
   4  12   4   40.71    1.67
   4  12   4   41.82    1.72
   4  12  -4   42.39    1.77
   4 -12   4   43.32    1.77
  -4  12   4   42.22    1.67
   5 -12  -4    2.19    0.25
   5  12   4    2.29    0.27
   5  12   4    2.46    0.25
   5  12  -4    2.34    0.30
  -5  12   4    2.08    0.26
   5 -12   4    1.80    0.25
   6 -12  -4    5.98    0.47
   6  12   4    6.65    0.44
   6  12   4    5.97    0.45
   6  12  -4    6.94    0.48
  -6  12   4    6.25    0.45
   6  12  -4    8.51    0.54
   6 -12   4    6.88    0.47
   7 -12  -4    3.53    0.38
   7  12   4    3.95    0.37
   7  12   4    3.95    0.36
   7  12  -4    4.28    0.42
   7 -12   4    4.11    0.40
  -7  12   4    3.97    0.37
   7  12  -4    3.90    0.37
   8  12   4    0.32    0.24
   8  12   4    0.24    0.26
   8 -12  -4    0.32    0.28
   8  12  -4    0.12    0.26
   8 -12   4    0.06    0.25
  -8  12   4    0.07    0.26
   9 -12  -4   13.66    0.83
   9  12   4   12.36    0.76
   9 -12   4   11.65    0.83
  -9  12   4   13.81    0.74
   9  12  -4   11.73    0.77
  10  12   4    0.90    0.38
  10 -12  -4    0.44    0.38
 -10  12   4    1.01    0.35
   0  12   5    0.22    0.14
   0  12  -5    0.12    0.13
   1 -12  -5   55.19    2.25
   1  12   5   59.60    2.20
   1  12   5   59.62    2.26
  -1  12   5   57.18    2.18
   1  12  -5   55.05    2.31
   1 -12   5   54.90    2.31
   2  12   5   36.91    1.49
  -2  12  -5   37.24    1.43
  -2  12   5   35.84    1.46
  -2  12   5   37.19    1.44
   2 -12   5   38.83    1.56
   2  12  -5   36.99    1.56
  -3  12  -5    3.26    0.22
   3  12   5    3.75    0.25
   3 -12  -5    2.66    0.23
   3  12  -5    3.28    0.29
   3 -12   5    4.41    0.33
  -3  12   5    3.79    0.23
  -3  12   5    3.69    0.27
   4 -12  -5    4.70    0.32
   4  12   5    4.63    0.32
   4  12   5    4.80    0.34
  -4  12   5    4.99    0.35
   4 -12   5    4.97    0.35
   4  12  -5    4.51    0.36
   5  12   5    2.74    0.25
   5  12   5    2.22    0.27
   5 -12  -5    2.83    0.27
   5 -12   5    2.44    0.31
   5  12  -5    2.35    0.31
  -5  12   5    2.37    0.25
   6 -12  -5   73.51    3.19
   6  12   5   81.37    3.06
   6  12   5   81.00    3.18
   6  12  -5   78.65    3.23
   6 -12   5   80.56    3.23
  -6  12   5   77.78    3.06
   7  12   5    1.53    0.29
   7  12   5    1.28    0.27
   7 -12  -5    1.80    0.32
   7  12  -5    1.62    0.29
   7  12  -5    1.62    0.35
   7 -12   5    1.60    0.33
  -7  12   5    1.87    0.31
   8 -12  -5    0.82    0.29
   8  12   5    1.23    0.30
   8  12   5    1.00    0.28
   8 -12   5    1.08    0.35
  -8  12   5    1.09    0.31
   8  12  -5    1.49    0.36
  -9  12   5    0.02    0.30
   9 -12   5    0.65    0.36
   9  12  -5    0.42    0.32
 -10  12   5   22.15    1.09
   0  12  -6    7.84    0.45
   0  12   6    8.39    0.42
   1  12   6    1.61    0.20
   1 -12   6    1.61    0.22
  -1  12   6    1.43    0.16
   1  12  -6    1.25    0.19
   3 -12   6   61.13    2.48
  -3  12   6   61.52    2.30
   3  12  -6   59.28    2.48
   4  12   6    5.24    0.36
   4 -12   6    5.31    0.38
  -4  12   6    5.20    0.37
   4  12  -6    5.54    0.39
   5  12   6    3.57    0.32
   5  12  -6    3.54    0.37
   5 -12   6    4.13    0.37
  -5  12   6    3.73    0.33
   6  12   6   10.64    0.62
   6 -12   6   12.70    0.70
   6  12  -6   12.84    0.71
  -6  12   6   11.10    0.63
   7  12   6   33.90    1.42
   7  12  -6   32.97    1.42
   7  12  -6   33.70    1.54
  -7  12   6   33.16    1.44
   7 -12   6   35.25    1.54
   8  12   6    2.98    0.34
   8  12  -6    3.35    0.41
   8 -12   6    2.44    0.38
  -8  12   6    2.87    0.38
  -9  12   6   17.77    0.91
   9  12  -6   16.77    1.00
   9 -12   6   17.75    0.99
 -10  12   6    0.81    0.36
   0  12  -7    0.02    0.17
   0  12   7    0.05    0.14
   1  12   7   17.93    0.77
   1  12  -7   17.12    0.82
  -1  12   7   17.60    0.74
   1 -12   7   18.36    0.83
   2 -12   7   68.73    2.75
   2  12  -7   66.05    2.74
  -2  12   7   68.31    2.57
   3  12   7    0.93    0.20
  -3  12   7    1.29    0.15
   3  12  -7    1.11    0.21
  -3  12   7    0.40    0.13
   3 -12   7    1.58    0.24
   4  12   7   15.49    0.74
  -4  12   7   16.13    0.73
   4 -12   7   16.04    0.79
   4  12  -7   16.17    0.79
   5  12   7    2.68    0.29
   5 -12   7    2.46    0.29
  -5  12   7    2.91    0.28
   5  12  -7    2.09    0.29
   6  12   7   68.81    2.69
   6  12  -7   71.89    2.87
  -6  12   7   69.02    2.70
   6 -12   7   65.64    2.84
   7  12   7    3.18    0.34
   7 -12   7    3.19    0.38
   7  12  -7    3.12    0.39
  -7  12   7    3.14    0.35
   8  12   7    4.60    0.42
  -8  12   7    5.06    0.47
   8 -12   7    5.74    0.54
   8  12  -7    5.51    0.54
   9  12  -7    3.98    0.48
   9 -12   7    4.32    0.54
  -9  12   7    4.18    0.45
   0  12   8    1.15    0.18
   0  12  -8    0.71    0.15
   1  12   8    0.28    0.16
  -1  12   8    0.36    0.13
   1  12  -8    0.02    0.11
   1 -12   8    0.38    0.16
   2  12   8   10.50    0.53
   2  12  -8   11.26    0.58
  -2  12   8   12.47    0.54
   3  12   8   55.93    2.25
   3 -12   8   58.99    2.38
  -3  12   8   56.41    2.25
   3  12  -8   58.99    2.39
  -3  12   8   58.64    2.21
   4  12   8    2.18    0.26
   4 -12   8    2.34    0.28
   4  12  -8    2.14    0.29
  -4  12   8    2.35    0.26
   5  12   8    8.59    0.49
   5 -12   8    7.23    0.50
   5  12  -8    7.54    0.52
  -5  12   8    8.24    0.50
   6  12   8   14.06    0.76
  -6  12   8   16.49    0.80
   6 -12   8   15.18    0.82
   6  12  -8   17.89    0.87
   7  12   8   40.65    1.76
   7  12  -8   41.72    1.90
   7 -12   8   44.79    1.91
  -7  12   8   45.33    1.80
   8  12   8    3.66    0.38
   8 -12   8    3.32    0.42
  -8  12   8    2.91    0.40
   8  12  -8    3.83    0.47
  -9  12   8   11.06    0.72
   0  12   9    0.06    0.15
   0  12  -9    0.02    0.06
   1  12   9   14.60    0.66
  -1  12   9   14.21    0.63
   2  12   9   70.74    2.82
  -2  12   9   74.77    2.80
  -2  12   9   74.97    2.83
   3  12   9   10.30    0.55
   3  12  -9   11.21    0.59
   3 -12   9   10.90    0.59
  -3  12   9    9.87    0.53
  -3  12   9   11.22    0.49
   4  12   9   40.06    1.63
   4  12  -9   41.71    1.75
  -4  12   9   40.45    1.63
   4 -12   9   39.92    1.73
   5  12   9   17.94    0.82
   5  12  -9   18.64    0.90
  -5  12   9   17.07    0.84
   5 -12   9   18.22    0.89
   6  12   9   78.80    3.12
   6 -12   9   78.58    3.29
   6  12  -9   82.47    3.31
  -6  12   9   80.90    3.13
   7  12   9   10.80    0.63
   7 -12   9   10.67    0.72
   7  12  -9   11.32    0.71
  -7  12   9   10.38    0.66
   8  12   9   17.95    0.91
   8  12  -9   18.22    1.03
   8 -12   9   19.40    1.04
  -8  12   9   18.81    0.95
  -9  12   9    2.94    0.40
   0  12 -10   31.05    1.55
   0  12  10   43.06    1.49
   1  12  10    1.81    0.23
  -1  12 -10    1.50    0.26
   1 -12  10    1.19    0.21
  -1  12  10    2.42    0.26
   1  12 -10    1.42    0.22
  -1  12  10    1.67    0.20
   2  12  10    0.10    0.18
  -2  12  10    0.39    0.15
   2  12 -10    0.02    0.18
   2 -12  10    0.41    0.21
  -2  12  10    0.39    0.18
   3  12  10    9.05    0.51
   3 -12  10    8.99    0.55
  -3  12  10    9.48    0.49
   3  12 -10    8.90    0.54
   4  12  10   16.60    0.80
   4  12 -10   18.23    0.89
  -4  12  10   17.44    0.81
   4 -12  10   16.74    0.86
   5  12  10   35.39    1.48
   5 -12  10   36.31    1.58
  -5  12  10   34.81    1.48
   5  12 -10   35.46    1.57
   6  12  10    6.46    0.50
   6  12 -10    7.67    0.54
  -6  12  10    6.98    0.50
   6 -12  10    7.68    0.57
   7  12  10   22.89    1.07
   7 -12  10   24.26    1.18
   7  12 -10   23.64    1.19
  -7  12  10   22.53    1.09
   8  12  10    0.56    0.31
  -8  12  10    0.62    0.34
   8 -12  10    1.13    0.38
   8  12 -10    0.41    0.32
  -9  12  10    8.50    0.66
   0  12  11    0.16    0.17
   0  12 -11   -0.02    0.18
  -1  12 -11   31.20    1.38
   1  12  11   31.42    1.30
   1  12 -11   31.02    1.38
  -1  12  11   32.98    1.31
  -1  12  11   32.27    1.28
   2  12  11    5.01    0.37
   2  12 -11    4.71    0.38
  -2  12  11    4.97    0.38
   2 -12  11    4.54    0.40
  -2  12  11    5.12    0.33
   3  12  11   54.53    2.13
   3 -12  11   53.61    2.25
  -3  12  11   53.26    2.12
   3  12 -11   54.23    2.25
   4  12  11   13.76    0.67
   4  12 -11   13.61    0.74
  -4  12  11   13.92    0.70
   4 -12  11   13.56    0.75
   5  12  11    8.50    0.54
   5  12 -11    9.92    0.58
  -5  12  11    8.86    0.55
   5 -12  11    7.79    0.59
   6  12  11   30.69    1.37
  -6  12  11   34.51    1.41
   6  12 -11   31.56    1.47
   6 -12  11   31.74    1.48
   7  12  11    8.56    0.57
   7 -12  11    8.13    0.60
   7  12 -11    7.76    0.61
  -7  12  11    7.94    0.56
   8  12  11   24.95    1.18
   8  12 -11   24.62    1.31
   8 -12  11   26.32    1.31
  -8  12  11   27.03    1.23
  -9  12  11    0.71    0.37
   0  12 -12   10.51    0.60
   0  12  12   11.58    0.56
  -1  12 -12    8.97    0.53
   1  12  12    9.00    0.49
  -1  12  12    8.79    0.48
  -1  12  12    7.94    0.46
   1  12 -12    9.83    0.54
   2  12  12    0.14    0.17
  -2  12  12   -0.03    0.21
   2 -12  12   -0.09    0.23
   2  12 -12    0.28    0.25
  -2  12  12   -0.06    0.17
   3  12  12    3.84    0.31
   3  12 -12    2.92    0.34
  -3  12  12    3.47    0.34
   3 -12  12    4.16    0.38
   4  12  12    6.58    0.46
   4  12 -12    6.28    0.53
   4 -12  12    6.62    0.48
  -4  12  12    6.52    0.47
   5  12  12   12.00    0.67
   5  12 -12   12.40    0.71
   5 -12  12   11.82    0.72
  -5  12  12   12.43    0.68
   6  12  12   -0.03    0.25
   6  12 -12    0.07    0.26
  -6  12  12    0.37    0.30
   6 -12  12    0.64    0.32
   7  12  12    8.05    0.57
   7  12 -12    9.02    0.63
   7 -12  12    7.16    0.59
  -7  12  12    7.51    0.60
   8  12  12    2.66    0.38
  -8  12  12    1.84    0.36
   0  12 -13    0.09    0.21
   0  12  13    0.06    0.18
  -1  12 -13   12.13    0.66
   1  12  13   10.79    0.58
  -1  12  13   11.92    0.61
   1  12 -13   13.40    0.69
  -1  12  13   11.62    0.58
   2  12  13    0.79    0.24
   2 -12  13    0.84    0.27
   2  12 -13    0.80    0.28
  -2  12  13    0.89    0.24
  -2  12  13    0.81    0.20
   3  12  13   27.34    1.20
  -3  12  13   28.38    1.21
   3  12 -13   29.21    1.30
   3 -12  13   28.64    1.28
   4  12  13   19.66    0.93
   4 -12  13   20.19    1.00
  -4  12  13   21.27    0.95
   4  12 -13   21.20    1.04
   5  12  13    0.85    0.28
   5 -12  13    0.82    0.32
  -5  12  13    0.80    0.29
   5  12 -13    0.72    0.32
   6  12  13    9.57    0.61
  -6  12  13    9.80    0.64
   6 -12  13    8.65    0.67
   6  12 -13    9.95    0.69
   7  12  13    1.51    0.33
   7 -12  13    2.31    0.39
   7  12 -13    1.49    0.36
  -7  12  13    1.96    0.39
   8  12  13   19.19    0.97
  -8  12  13   18.74    1.00
   0  12  14   27.04    1.12
   0  12  14   25.52    1.12
   0  12 -14   26.32    1.20
   1  12  14   11.39    0.59
  -1  12 -14   12.23    0.70
  -1  12  14   11.20    0.59
  -1  12  14   11.61    0.61
   1  12 -14   12.35    0.66
   2  12  14    3.57    0.34
  -2  12  14    2.84    0.28
   2  12 -14    3.61    0.40
   2 -12  14    3.35    0.35
  -2  12  14    3.31    0.33
   3  12  14    1.32    0.24
   3  12 -14    0.89    0.30
  -3  12  14    0.80    0.23
   3 -12  14    0.96    0.30
   4  12  14    6.39    0.48
   4 -12  14    6.74    0.54
  -4  12  14    6.44    0.49
   4  12 -14    6.19    0.53
   5  12  14    8.52    0.58
   5 -12  14    8.88    0.60
   5  12 -14    9.30    0.65
  -5  12  14    9.14    0.60
   6  12  14    0.97    0.31
  -6  12  14    0.87    0.33
   6  12 -14    0.93    0.32
   6 -12  14    1.35    0.37
   7  12  14    5.00    0.47
   7  12 -14    5.49    0.56
  -7  12  14    5.04    0.50
   7 -12  14    4.72    0.51
   8  12  14    0.36    0.35
  -8  12  14    1.03    0.39
   0  12  15   -0.01    0.21
   0  12 -15   -0.20    0.26
   0  12  15    0.14    0.23
  -1  12 -15   32.02    1.45
   1  12  15   32.51    1.35
   1  12 -15   32.24    1.44
  -1  12  15   33.12    1.35
  -1  12  15   32.16    1.34
   2  12  15    3.22    0.34
  -2  12 -15    2.95    0.37
  -2  12  15    3.11    0.33
  -2  12  15    2.95    0.31
   2  12 -15    3.40    0.40
   2 -12  15    3.55    0.36
   3  12  15   14.62    0.76
   3  12 -15   14.92    0.84
   3 -12  15   14.35    0.79
  -3  12  15   15.61    0.76
   4  12  15    9.12    0.59
   4  12 -15    9.25    0.66
  -4  12  15    9.41    0.59
   4 -12  15    8.95    0.61
   4 -12  15    8.91    0.63
   5  12  15   10.28    0.62
   5  12 -15   11.15    0.73
   5 -12  15   10.76    0.68
  -5  12  15   10.87    0.67
   6  12  15    0.43    0.30
   6  12 -15   -0.33    0.33
  -6  12  15   -0.19    0.31
   6 -12  15    0.16    0.33
   7  12  15    1.39    0.35
  -7  12  15    1.21    0.38
   0  12  16   32.69    1.38
   0  12 -16   32.79    1.50
   0  12  16   33.90    1.39
   1  12  16   14.22    0.72
  -1  12 -16   14.32    0.77
  -1  12  16   14.62    0.70
   1  12 -16   13.21    0.78
  -1  12  16   13.24    0.70
   2  12  16   15.63    0.79
  -2  12 -16   16.86    0.88
   2  12 -16   15.40    0.83
  -2  12  16   16.16    0.75
  -2  12  16   14.93    0.77
   3  12  16    8.45    0.53
   3 -12  16    8.77    0.62
  -3  12  16    8.19    0.55
   3  12 -16    8.76    0.63
   3 -12  16    8.21    0.62
   4  12  16    3.34    0.39
  -4  12  16    3.61    0.40
   4 -12  16    3.37    0.40
   4  12 -16    4.55    0.47
   4 -12  16    4.53    0.46
   5  12  16    3.47    0.38
   5 -12  16    3.53    0.43
  -5  12  16    3.60    0.43
   5  12 -16    3.55    0.46
   6  12  16    0.77    0.33
   6  12 -16    0.40    0.36
  -6  12  16    0.59    0.35
   6 -12  16    1.11    0.38
   7  12  16    0.46    0.33
  -7  12  16    1.10    0.38
   0  12 -17   -0.19    0.25
   0  12  17   -0.33    0.23
   0  12  17    0.11    0.24
   1  12  17   34.70    1.49
  -1  12 -17   35.96    1.59
   1  12  17   36.24    1.48
   1  12 -17   35.55    1.60
  -1  12  17   36.38    1.48
  -1  12  17   33.55    1.46
   2  12  17    0.22    0.23
  -2  12 -17    0.22    0.33
  -2  12  17    0.12    0.23
  -2  12  17   -0.17    0.25
   2  12 -17   -0.05    0.30
   3  12  17    3.92    0.40
   3  12 -17    3.38    0.44
  -3  12  17    3.46    0.38
   3 -12  17    3.72    0.44
   3 -12  17    3.24    0.40
   4  12  17    1.91    0.35
  -4  12  17    1.73    0.33
   4 -12  17    1.54    0.34
   4  12 -17    1.55    0.34
   4 -12  17    2.09    0.36
   5  12  17   27.16    1.25
   5 -12  17   27.27    1.32
  -5  12  17   27.83    1.27
   5  12 -17   27.93    1.35
   6  12  17    5.06    0.49
  -6  12  17    3.92    0.48
   0  12 -18   23.07    1.12
   0  12  18   21.47    1.01
   0  12  18   21.82    1.02
   1  12  18    2.99    0.34
  -1  12 -18    3.14    0.43
   1  12 -18    3.33    0.43
  -1  12  18    3.03    0.35
  -1  12  18    3.15    0.36
   2  12  18   48.06    1.99
  -2  12 -18   49.34    2.13
  -2  12  18   47.59    1.97
   2  12 -18   48.81    2.12
  -2  12  18   49.81    1.98
  -3  12 -18    4.14    0.51
   3  12  18    4.32    0.43
   3 -12  18    4.24    0.47
   3  12 -18    3.66    0.46
   3 -12  18    3.63    0.46
  -3  12  18    2.83    0.38
   4  12  18    3.64    0.42
   4 -12  18    3.43    0.46
   4  12 -18    3.17    0.43
  -4  12  18    3.63    0.42
   4 -12  18    3.40    0.46
   5  12  18   -0.07    0.31
  -5  12  18    0.31    0.35
   5 -12  18    0.07    0.30
   5  12 -18    0.13    0.30
   5 -12  18   -0.05    0.29
   0  12 -19   -0.22    0.33
   0  12  19    0.16    0.27
   1  12  19   43.18    1.83
  -1  12 -19   45.08    1.95
  -1  12  19   46.00    1.82
   1  12 -19   42.15    1.92
  -1  12  19   43.37    1.79
   2  12  19    0.78    0.27
  -2  12 -19    0.66    0.36
   2  12 -19    0.56    0.31
  -2  12  19    0.09    0.27
  -2  12  19    0.90    0.29
  -3  12 -19    5.18    0.56
   3  12  19    4.34    0.43
  -3  12  19    5.63    0.47
   3  12 -19    4.67    0.51
   3 -12  19    4.57    0.52
   4  12  19    2.50    0.40
  -4  12  19    1.64    0.37
   4 -12  19    1.82    0.40
   4  12 -19    1.62    0.41
   4 -12  19    1.91    0.42
   5  12  19   14.30    0.85
   5 -12  19   12.93    0.88
  -5  12  19   14.67    0.83
   0  12 -20    8.17    0.61
   0  12  20    7.93    0.59
   1  12  20   -0.21    0.30
  -1  12 -20    0.11    0.30
   1  12 -20    0.11    0.36
  -1  12  20    0.04    0.28
   2  12  20   22.05    1.08
  -2  12 -20   23.38    1.18
  -2  12  20   20.98    1.09
   2  12 -20   22.51    1.16
  -3  12 -20    1.54    0.43
   3  12  20    1.19    0.36
   3  12 -20    1.46    0.41
  -3  12  20    1.27    0.35
   3 -12  20    0.80    0.38
   4  12  20    0.50    0.30
  -4  12  20    0.59    0.35
   4 -12  20    0.24    0.35
   0  12 -21   -0.12    0.35
   0  12  21    0.18    0.31
   1  12  21   10.64    0.72
  -1  12 -21   12.17    0.80
  -1  12  21   10.86    0.69
   1  12 -21   11.06    0.78
   2  12  21    0.41    0.34
  -2  12 -21   -0.04    0.38
   2  12 -21    0.49    0.39
   3  12  21    0.89    0.36
   3 -12  21    0.33    0.37
   0  12  22    2.15    0.40
  -1  13   0    0.29    0.14
   1  13   0    0.15    0.16
   1 -13   0    0.36    0.13
   1  13   0    0.23    0.13
   2  13   0   33.79    1.51
  -2  13   0   41.24    1.44
   2 -13   0   35.05    1.51
  -3  13   0    0.64    0.15
   3 -13   0    0.88    0.17
  -3  13   0    0.76    0.16
   3  13   0    0.89    0.17
   3  13   0    0.58    0.18
  -4  13   0    6.82    0.38
   4  13   0    7.14    0.43
   4 -13   0    7.76    0.43
   4  13   0    5.82    0.42
   5 -13   0    0.39    0.19
  -5  13   0    0.29    0.17
   5  13   0   -0.16    0.20
   5  13   0    0.77    0.22
  -6  13   0   66.88    2.67
   6  13   0   69.08    2.70
   6 -13   0   71.76    2.84
   6  13   0   68.58    2.83
  -7  13   0    0.61    0.25
   7  13   0    0.33    0.26
   7  13   0    0.54    0.25
   7 -13   0    0.49    0.27
  -8  13   0    3.71    0.36
   8  13   0    4.17    0.44
   8 -13   0    3.07    0.41
  -9  13   0    0.11    0.27
   9  13   0    0.15    0.27
   9 -13   0    0.22    0.33
   0  13   1   11.56    0.54
   0  13  -1   12.36    0.56
   0  13   1   11.29    0.54
   1  13   1   22.76    0.92
   1 -13  -1   21.57    0.93
   1  13   1   22.42    0.94
   1 -13   1   21.96    0.95
  -1  13   1   21.82    0.90
   1  13  -1   21.64    0.94
   2  13   1    1.94    0.19
   2 -13  -1    2.04    0.20
   2 -13   1    1.91    0.21
  -2  13   1    1.93    0.18
   2  13  -1    1.83    0.21
   3  13   1   56.48    2.36
   3 -13  -1   58.99    2.45
  -3  13  -1   61.62    2.32
   3  13   1   60.70    2.45
   3  13  -1   63.01    2.38
  -3  13   1   65.42    2.32
  -3  13   1   60.59    2.33
   3  13  -1   60.61    2.47
   3 -13   1   59.86    2.46
   4  13   1    4.88    0.36
  -4  13  -1    4.93    0.31
   4  13   1    4.26    0.36
   4 -13  -1    5.72    0.35
   4 -13   1    4.94    0.36
  -4  13   1    4.46    0.32
   4  13  -1    5.05    0.36
   4  13  -1    5.84    0.38
   5  13   1   51.73    2.16
   5  13   1   52.99    2.07
  -5  13  -1   52.48    2.04
   5 -13  -1   50.38    2.16
   5  13  -1   49.68    2.16
   5  13  -1   52.67    2.07
   5 -13   1   56.41    2.17
  -5  13   1   52.01    2.04
   6  13   1    8.97    0.54
  -6  13  -1    9.63    0.49
   6 -13  -1    9.22    0.56
   6  13   1    8.03    0.53
  -6  13   1    8.09    0.50
   6  13  -1    8.87    0.53
   6  13  -1    8.55    0.55
   6 -13   1    8.34    0.53
   7 -13  -1   16.71    0.85
   7  13   1   16.76    0.83
  -7  13  -1   14.54    0.74
   7  13   1   15.58    0.78
   7  13  -1   15.16    0.77
   7 -13   1   16.11    0.85
   7  13  -1   16.62    0.84
  -7  13   1   15.26    0.76
   8 -13  -1    0.76    0.30
   8  13   1    1.19    0.32
   8  13   1    1.01    0.27
  -8  13  -1    0.75    0.27
  -8  13   1    0.39    0.27
   8 -13   1    1.22    0.34
   8  13  -1    0.87    0.32
   9  13   1   25.24    1.27
   9 -13  -1   26.34    1.31
  -9  13   1   26.14    1.17
   9  13  -1   25.27    1.28
   9 -13   1   27.14    1.30
 -10  13   1    0.76    0.33
   0  13   2    0.29    0.14
   0  13  -2    0.37    0.14
   1  13   2    9.76    0.47
   1 -13  -2    9.22    0.45
   1  13   2    9.62    0.46
   1 -13   2    9.92    0.49
   1  13  -2    9.62    0.48
  -1  13   2    9.16    0.45
   2  13   2   38.24    1.60
   2 -13  -2   39.11    1.60
  -2  13   2   42.97    1.53
   2  13  -2   37.48    1.62
   2 -13   2   37.88    1.62
  -3  13  -2   28.48    1.11
   3 -13  -2   26.23    1.17
   3  13   2   27.34    1.17
  -3  13   2   28.99    1.10
   3  13  -2   27.21    1.20
   3 -13   2   27.79    1.20
  -3  13   2   28.32    1.13
   4  13   2   23.68    0.99
  -4  13  -2   22.43    0.95
   4  13   2   22.34    1.01
   4 -13  -2   23.65    1.01
   4 -13   2   23.65    1.04
   4  13  -2   23.78    1.01
  -4  13   2   23.35    0.97
   4  13  -2   22.00    1.04
   5  13   2   18.43    0.88
   5 -13  -2   19.17    0.89
  -5  13  -2   18.66    0.82
   5  13   2   18.71    0.87
   5  13  -2   18.66    0.91
  -5  13   2   19.29    0.85
   5 -13   2   20.28    0.92
   5  13  -2   20.68    0.89
   6 -13  -2   61.53    2.53
   6  13   2   61.69    2.41
   6  13   2   61.01    2.51
  -6  13  -2   56.55    2.36
   6  13  -2   64.05    2.55
  -6  13   2   59.89    2.39
   6 -13   2   62.46    2.54
   6  13  -2   62.02    2.41
  -7  13  -2    0.61    0.24
   7  13   2    0.63    0.26
   7  13   2    0.25    0.25
   7 -13  -2    0.75    0.27
   7  13  -2    0.52    0.25
   7 -13   2    0.44    0.27
   7  13  -2    0.86    0.29
  -7  13   2    0.84    0.25
   8  13   2    5.48    0.47
   8  13   2    6.56    0.53
   8 -13  -2    6.84    0.56
   8 -13   2    5.86    0.54
   8  13  -2    6.08    0.53
  -8  13   2    6.09    0.48
   9 -13  -2   -0.04    0.33
   9  13   2    0.25    0.31
  -9  13   2   -0.02    0.28
   9  13  -2    0.35    0.34
   9 -13   2    0.38    0.34
  10  13   2   18.76    1.07
  10 -13  -2   20.17    1.16
 -10  13   2   19.56    0.98
   0  13  -3  211.01    8.22
   0  13   3  206.68    7.85
   0  13   3  212.68    8.18
   1  13   3    2.39    0.21
   1  13   3    2.57    0.21
   1 -13   3    3.11    0.24
   1  13  -3    2.59    0.24
  -1  13   3    2.64    0.22
   2 -13  -3    8.25    0.41
   2  13   3    8.37    0.42
   2  13  -3    8.29    0.46
  -2  13   3    7.55    0.39
  -2  13   3    8.06    0.43
   2 -13   3    8.91    0.46
  -3  13  -3   89.95    3.46
   3  13   3   88.92    3.65
   3 -13  -3   92.39    3.65
  -3  13   3   93.51    3.47
   3 -13   3   94.22    3.68
  -3  13   3   93.25    3.49
   3  13  -3   92.66    3.69
   4  13   3   37.53    1.49
   4  13   3   36.33    1.54
   4 -13  -3   37.67    1.54
  -4  13  -3   37.04    1.44
   4 -13   3   37.01    1.57
   4  13  -3   36.04    1.57
  -4  13   3   36.53    1.47
   5  13   3   11.64    0.62
   5 -13  -3   12.37    0.63
  -5  13  -3   11.74    0.56
   5  13   3   12.12    0.60
   5 -13   3   11.25    0.64
  -5  13   3   12.66    0.60
   5  13  -3   11.85    0.64
   5  13  -3   12.26    0.64
   6  13   3    0.63    0.24
   6  13   3    1.26    0.24
   6 -13  -3    1.09    0.24
   6  13  -3    1.28    0.30
   6  13  -3    0.66    0.26
   6 -13   3    1.18    0.27
  -6  13   3    1.30    0.26
   7  13   3   24.67    1.12
   7 -13  -3   24.68    1.15
   7  13   3   22.69    1.06
  -7  13   3   24.50    1.07
   7  13  -3   23.30    1.15
   7  13  -3   23.44    1.07
   7 -13   3   24.40    1.16
   8 -13  -3    0.00    0.27
   8  13   3    0.29    0.27
   8  13   3   -0.03    0.25
  -8  13   3   -0.05    0.25
   8  13  -3   -0.02    0.29
   8 -13   3   -0.15    0.29
   9 -13  -3   17.11    0.97
   9  13   3   16.01    0.92
  -9  13   3   16.45    0.86
   9  13  -3   17.11    0.97
   9 -13   3   17.81    1.00
  10 -13  -3    1.23    0.42
  10  13   3    1.49    0.40
 -10  13   3    1.19    0.36
   0  13  -4   -0.08    0.15
   0  13   4   -0.22    0.14
   0  13   4   -0.04    0.09
   1  13   4   62.88    2.34
   1  13   4   60.46    2.40
   1  13  -4   61.53    2.45
   1 -13   4   61.88    2.45
  -1  13   4   57.51    2.39
  -1  13   4   59.60    2.32
   2  13   4    2.83    0.22
   2 -13  -4    2.15    0.19
  -2  13  -4    2.93    0.22
  -2  13   4    2.86    0.24
   2 -13   4    2.71    0.26
  -2  13   4    3.16    0.23
   2  13  -4    2.56    0.25
  -3  13  -4   97.44    3.57
   3  13   4   94.37    3.76
   3 -13  -4   92.39    3.76
   3  13  -4   94.90    3.81
  -3  13   4   97.47    3.58
   3 -13   4   96.38    3.80
  -3  13   4   93.00    3.61
   4 -13  -4   46.94    1.85
   4  13   4   44.86    1.79
  -4  13  -4   45.18    1.74
   4  13   4   44.52    1.84
   4  13  -4   43.98    1.89
  -4  13   4   45.07    1.78
   4 -13   4   44.31    1.88
   5  13   4    0.46    0.22
   5  13   4    0.72    0.18
   5 -13  -4    0.43    0.18
  -5  13   4    0.23    0.20
   5  13  -4    0.35    0.20
   5 -13   4    0.37    0.20
   6  13   4   25.49    1.14
   6 -13  -4   27.60    1.17
   6  13   4   24.70    1.11
   6  13  -4   26.60    1.19
  -6  13   4   24.82    1.11
   6  13  -4   24.88    1.13
   6 -13   4   24.85    1.17
   7  13   4   14.49    0.75
   7 -13  -4   15.34    0.81
   7  13   4   15.60    0.78
   7 -13   4   13.93    0.80
   7  13  -4   14.80    0.81
  -7  13   4   16.18    0.77
   7  13  -4   15.08    0.77
   8  13   4    8.53    0.59
   8  13   4    7.93    0.57
   8 -13  -4    8.93    0.62
  -8  13   4    7.71    0.53
   8 -13   4    8.37    0.65
   8  13  -4    8.98    0.65
   9 -13  -4    7.52    0.71
   9 -13   4    8.47    0.70
   9  13  -4    8.50    0.70
  -9  13   4    8.32    0.60
 -10  13   4   10.91    0.71
   0  13  -5  135.42    5.54
   0  13   5  145.56    5.28
   1  13   5    0.38    0.16
  -1  13   5   -0.04    0.12
   1  13  -5    0.30    0.17
   1 -13   5    0.19    0.17
  -2  13  -5    7.75    0.36
   2  13  -5    6.60    0.44
  -2  13   5    7.34    0.36
   2 -13   5    7.86    0.45
  -2  13   5    6.97    0.41
   3 -13   5   25.53    1.15
  -3  13   5   25.94    1.08
   3  13  -5   25.22    1.16
  -3  13   5   27.54    1.04
   4  13   5   53.08    2.09
   4 -13   5   51.64    2.18
   4  13  -5   52.70    2.20
  -4  13   5   53.74    2.07
   5  13   5   12.04    0.61
   5 -13   5   11.94    0.65
  -5  13   5   11.80    0.60
   5  13  -5   10.62    0.63
   6  13   5    1.47    0.28
   6  13  -5    1.97    0.32
   6 -13   5    1.28    0.30
  -6  13   5    1.73    0.29
   6  13  -5    1.82    0.33
   7  13   5    8.17    0.54
   7  13  -5    8.42    0.56
   7 -13   5    8.20    0.61
  -7  13   5    9.88    0.58
   7  13  -5    8.73    0.59
   8  13   5    0.24    0.25
  -8  13   5    0.32    0.29
   8 -13   5    0.43    0.28
   8  13  -5    0.37    0.32
   9  13  -5   12.17    0.81
   9 -13   5   11.70    0.82
  -9  13   5   10.94    0.70
   0  13   6    0.15    0.15
   0  13  -6    0.15    0.18
   1  13   6   81.77    3.09
   1  13  -6   78.30    3.24
   1 -13   6   80.27    3.24
  -1  13   6   82.71    3.07
   2  13   6    0.53    0.14
  -2  13   6    0.45    0.14
   2 -13   6    1.15    0.20
   2  13  -6    1.47    0.21
  -2  13   6    0.95    0.14
   3  13   6   65.06    2.71
   3 -13   6   72.19    2.86
  -3  13   6   70.29    2.70
  -3  13   6   71.38    2.66
   3  13  -6   72.21    2.86
   4  13   6   27.31    1.14
  -4  13   6   27.14    1.12
   4 -13   6   26.49    1.20
   4  13  -6   25.76    1.19
   5  13   6    0.12    0.21
   5 -13   6    0.32    0.20
  -5  13   6    0.29    0.22
   5  13  -6    0.25    0.21
   6  13   6    6.57    0.49
   6 -13   6    7.85    0.52
  -6  13   6    7.05    0.47
   6  13  -6    8.45    0.57
   7  13   6   18.39    0.89
   7  13  -6   17.20    0.89
  -7  13   6   19.21    0.91
   7  13  -6   18.61    0.96
   7 -13   6   20.06    0.99
   8  13   6   17.37    0.87
   8  13  -6   19.35    1.01
   8 -13   6   17.26    0.96
  -8  13   6   18.14    0.91
   9 -13   6   13.69    0.87
   9  13  -6   13.50    0.85
  -9  13   6   15.33    0.82
   0  13  -7  165.66    6.53
   0  13   7  165.76    6.22
   1  13   7    0.87    0.19
   1 -13   7    0.97    0.22
  -1  13   7    0.66    0.15
   1  13  -7    1.25    0.21
   2  13   7   53.71    2.32
   2  13  -7   61.89    2.46
   2 -13   7   62.29    2.47
  -2  13   7   62.84    2.30
   3  13   7    1.92    0.26
  -3  13   7    2.38    0.24
   3  13  -7    2.67    0.30
   3 -13   7    2.75    0.30
  -3  13   7    2.60    0.21
   4  13   7   37.22    1.52
   4 -13   7   37.05    1.59
  -4  13   7   36.77    1.51
   4  13  -7   37.37    1.60
   5  13   7   10.70    0.60
   5 -13   7   11.51    0.65
   5  13  -7   11.21    0.66
  -5  13   7   11.04    0.60
   6  13   7    2.82    0.33
   6  13  -7    2.93    0.39
   6 -13   7    2.95    0.37
  -6  13   7    2.97    0.35
   7  13   7    1.85    0.31
  -7  13   7    2.20    0.34
   7  13  -7    1.59    0.38
   7 -13   7    1.32    0.35
   7  13  -7    2.43    0.35
   8  13   7    0.09    0.26
  -8  13   7    0.55    0.31
   8 -13   7    0.53    0.34
   8  13  -7    0.17    0.29
  -9  13   7    3.08    0.42
   0  13   8   -0.19    0.14
   0  13  -8   -0.20    0.18
   1  13   8  106.20    4.15
   1 -13   8  112.82    4.38
   1  13  -8  110.25    4.37
  -1  13   8  109.14    4.13
   2  13   8    0.67    0.19
   2 -13   8    0.82    0.20
  -2  13   8    0.90    0.21
   2  13  -8    0.66    0.23
  -2  13   8    0.73    0.15
   3  13   8  123.82    4.72
  -3  13   8  124.80    4.70
   3 -13   8  123.46    4.96
   3  13  -8  125.48    4.97
   4  13   8    8.50    0.50
   4  13  -8    8.06    0.52
  -4  13   8    8.29    0.49
   4 -13   8    7.98    0.50
   5  13   8    3.41    0.33
   5  13  -8    3.29    0.38
   5 -13   8    2.69    0.33
  -5  13   8    3.26    0.33
   6  13   8    3.00    0.32
  -6  13   8    2.79    0.36
   6  13  -8    3.06    0.37
   6 -13   8    3.41    0.37
   7  13   8   12.23    0.68
   7 -13   8   12.43    0.77
  -7  13   8   10.80    0.66
   7  13  -8   13.40    0.80
   8  13   8   10.29    0.64
   8  13  -8    9.25    0.69
   8 -13   8   10.44    0.71
  -8  13   8   11.65    0.70
  -9  13   8    6.90    0.56
   0  13   9   47.17    1.87
   0  13  -9   48.58    2.00
  -1  13  -9    9.72    0.55
   1  13   9    8.96    0.46
   1 -13   9    9.28    0.54
  -1  13   9    8.94    0.46
   1  13  -9    8.87    0.51
   2  13   9   31.43    1.32
  -2  13   9   32.44    1.28
  -2  13   9   31.39    1.31
   2 -13   9   33.57    1.42
   2  13  -9   32.84    1.41
   3  13   9    4.31    0.36
   3 -13   9    4.79    0.41
  -3  13   9    4.20    0.36
   3  13  -9    4.10    0.39
   4  13   9   15.14    0.72
   4  13  -9   13.82    0.76
   4 -13   9   15.34    0.78
  -4  13   9   14.50    0.72
   5  13   9    3.10    0.32
  -5  13   9    3.58    0.35
   5 -13   9    2.36    0.35
   5  13  -9    2.73    0.34
   6  13   9    6.26    0.45
  -6  13   9    6.01    0.47
   6  13  -9    6.51    0.55
   6 -13   9    6.12    0.53
   7  13   9    1.12    0.30
   7 -13   9    1.01    0.35
  -7  13   9    1.20    0.29
   7  13  -9    1.03    0.36
   8  13   9    0.39    0.28
   8 -13   9    0.28    0.36
  -8  13   9    0.40    0.33
   8  13  -9    0.76    0.33
  -9  13   9    1.48    0.39
   0  13 -10    0.05    0.18
   0  13  10    0.25    0.15
   1  13  10   17.82    0.82
  -1  13 -10   18.97    0.89
  -1  13  10   19.56    0.80
   1  13 -10   17.56    0.87
   2  13  10    0.41    0.20
   2 -13  10    0.38    0.22
  -2  13  10    0.66    0.22
  -2  13  10    0.41    0.15
   2  13 -10    0.68    0.21
   3  13  10   59.92    2.32
   3  13 -10   60.16    2.46
   3 -13  10   59.12    2.45
  -3  13  10   57.10    2.31
   4  13  10    3.38    0.31
   4  13 -10    3.33    0.36
  -4  13  10    3.63    0.32
   4 -13  10    3.69    0.36
   5  13  10    2.84    0.31
   5  13 -10    2.66    0.34
  -5  13  10    2.63    0.33
   5 -13  10    3.08    0.38
   6  13  10   18.67    0.91
  -6  13  10   19.43    0.95
   6 -13  10   19.87    1.01
   6  13 -10   20.13    1.00
   7  13  10    0.47    0.27
  -7  13  10    0.99    0.33
   7  13 -10    0.60    0.30
   7 -13  10    0.66    0.29
   8  13  10    2.88    0.38
   8  13 -10    3.09    0.48
   8 -13  10    2.59    0.41
  -8  13  10    2.34    0.38
  -9  13  10    0.73    0.37
   0  13  11   11.92    0.56
   0  13 -11   10.70    0.63
  -1  13 -11   25.71    1.19
   1  13  11   25.88    1.11
  -1  13  11   27.03    1.12
  -1  13  11   26.73    1.09
   1  13 -11   27.31    1.19
   2  13  11   30.71    1.31
  -2  13  11   32.97    1.31
   2 -13  11   31.17    1.40
  -2  13  11   33.55    1.28
   2  13 -11   29.89    1.40
   3  13  11   29.12    1.21
  -3  13  11   27.81    1.20
   3 -13  11   29.15    1.29
   3  13 -11   28.59    1.31
   4  13  11    7.84    0.50
   4 -13  11    7.94    0.55
   4  13 -11    8.06    0.53
  -4  13  11    7.47    0.51
   5  13  11    5.44    0.45
   5  13 -11    5.63    0.47
  -5  13  11    5.13    0.43
   5 -13  11    4.82    0.44
   6  13  11    3.55    0.37
   6  13 -11    3.48    0.44
   6 -13  11    3.60    0.41
  -6  13  11    2.91    0.39
   7  13  11    2.96    0.38
  -7  13  11    3.05    0.41
   7 -13  11    2.90    0.43
   7  13 -11    3.07    0.45
   8  13  11    1.75    0.35
  -8  13  11    1.66    0.40
   0  13 -12   -0.03    0.20
   0  13  12    0.09    0.18
  -1  13 -12   58.54    2.41
   1  13  12   58.52    2.28
   1  13 -12   57.61    2.41
  -1  13  12   58.45    2.28
  -1  13  12   57.06    2.25
   2  13  12   24.32    1.05
  -2  13  12   24.62    1.05
   2 -13  12   23.86    1.11
   2  13 -12   23.82    1.11
  -2  13  12   23.60    1.01
   3  13  12   34.32    1.40
  -3  13  12   33.07    1.39
   3 -13  12   33.66    1.48
   3  13 -12   32.69    1.49
   4  13  12    7.76    0.50
   4 -13  12    6.85    0.51
  -4  13  12    6.85    0.50
   4  13 -12    7.96    0.57
   5  13  12   16.56    0.82
  -5  13  12   16.66    0.85
   5 -13  12   17.61    0.92
   5  13 -12   17.65    0.90
   6  13  12   30.82    1.35
   6  13 -12   30.96    1.44
  -6  13  12   30.85    1.36
   6 -13  12   31.31    1.46
   7  13  12    0.71    0.31
  -7  13  12    0.34    0.33
   7  13 -12    0.93    0.38
   7 -13  12    0.72    0.36
   8  13  12    0.71    0.33
  -8  13  12    1.61    0.40
   0  13 -13    1.76    0.29
   0  13  13    2.05    0.23
   1  13  13    4.41    0.34
  -1  13 -13    4.82    0.43
  -1  13  13    3.95    0.34
   1  13 -13    4.50    0.40
  -1  13  13    4.30    0.36
   2  13  13   69.20    2.75
   2  13 -13   71.96    2.91
   2 -13  13   71.42    2.90
  -2  13  13   70.07    2.71
  -2  13  13   69.47    2.74
   3  13  13   43.03    1.76
  -3  13  13   42.83    1.75
   3  13 -13   41.57    1.86
   3 -13  13   45.25    1.88
   4  13  13    7.70    0.52
   4 -13  13    6.94    0.57
   4  13 -13    7.88    0.59
  -4  13  13    7.61    0.49
   5  13  13   15.39    0.81
   5  13 -13   15.90    0.89
   5 -13  13   15.74    0.88
  -5  13  13   16.28    0.80
   6  13  13    4.81    0.44
   6 -13  13    4.98    0.51
   6  13 -13    3.76    0.45
  -6  13  13    5.31    0.49
   7  13  13    5.49    0.48
   7 -13  13    4.79    0.51
   7  13 -13    5.10    0.52
  -7  13  13    6.37    0.52
   8  13  13    2.79    0.41
  -8  13  13    2.43    0.44
   0  13  14   -0.01    0.20
   0  13 -14   -0.08    0.22
  -1  13 -14   36.15    1.58
   1  13  14   35.35    1.48
   1  13 -14   36.93    1.60
  -1  13  14   36.89    1.48
  -1  13  14   34.50    1.46
   2  13  14   22.00    0.97
  -2  13 -14   20.43    1.03
  -2  13  14   20.65    0.96
   2 -13  14   22.36    1.04
   2  13 -14   19.98    1.05
  -2  13  14   22.61    0.93
   3  13  14    4.00    0.38
  -3  13  14    4.74    0.39
   3 -13  14    5.17    0.44
   3  13 -14    4.67    0.46
   4  13  14   12.73    0.69
  -4  13  14   12.35    0.66
   4  13 -14   11.55    0.75
   4 -13  14   11.54    0.70
   5  13  14   12.62    0.72
  -5  13  14   14.12    0.75
   5 -13  14   12.77    0.76
   5  13 -14   12.59    0.80
   6  13  14   16.35    0.84
   6  13 -14   16.90    0.96
  -6  13  14   18.18    0.91
   6 -13  14   15.41    0.94
   7  13  14    0.51    0.32
  -7  13  14    0.37    0.31
   0  13  15    1.47    0.28
   0  13 -15    1.32    0.29
   0  13  15    1.21    0.25
  -1  13 -15    3.15    0.40
   1  13  15    2.50    0.29
  -1  13  15    2.90    0.30
  -1  13  15    2.79    0.32
   1  13 -15    2.55    0.38
   2  13  15   47.27    1.93
  -2  13 -15   47.69    2.05
  -2  13  15   47.56    1.90
  -2  13  15   47.06    1.92
   2  13 -15   48.50    2.06
   3  13  15    4.83    0.41
   3  13 -15    4.78    0.46
   3 -13  15    4.89    0.45
  -3  13  15    5.37    0.44
   4  13  15    0.85    0.29
   4 -13  15    1.35    0.34
   4  13 -15    1.46    0.32
  -4  13  15    1.15    0.31
   5  13  15   11.76    0.69
   5 -13  15   11.08    0.75
   5  13 -15   11.24    0.76
  -5  13  15   10.73    0.69
   6  13  15    0.76    0.32
   6 -13  15    0.13    0.29
   6  13 -15    0.35    0.37
  -6  13  15    0.78    0.31
   7  13  15   12.58    0.77
  -7  13  15   12.53    0.80
   0  13 -16   -0.24    0.29
   0  13  16    0.15    0.25
   0  13  16   -0.06    0.23
   1  13  16    9.55    0.58
  -1  13 -16   10.35    0.67
  -1  13  16    9.91    0.56
   1  13 -16   10.01    0.62
  -1  13  16    8.14    0.56
  -2  13 -16    5.18    0.47
   2  13  16    4.48    0.38
   2  13 -16    4.30    0.44
  -2  13  16    4.38    0.40
  -2  13  16    5.09    0.40
   3  13  16    3.18    0.37
   3  13 -16    2.56    0.38
  -3  13  16    2.84    0.36
   3 -13  16    3.06    0.42
   4  13  16   14.67    0.77
   4 -13  16   15.08    0.87
   4  13 -16   14.78    0.88
  -4  13  16   15.12    0.80
   5  13  16   11.07    0.71
  -5  13  16   11.77    0.72
   5  13 -16   11.42    0.74
   5 -13  16   12.04    0.78
   6  13  16   11.65    0.73
  -6  13  16   11.41    0.75
   0  13  17    6.94    0.50
   0  13  17    6.75    0.50
   0  13 -17    7.70    0.60
   1  13  17   12.58    0.70
   1  13  17   12.57    0.67
  -1  13 -17   13.29    0.75
  -1  13  17   12.67    0.68
  -1  13  17   12.29    0.68
   1  13 -17   12.44    0.74
   2  13  17   11.21    0.67
  -2  13 -17   11.74    0.71
  -2  13  17   10.31    0.64
   2  13 -17   11.64    0.74
  -2  13  17   11.06    0.63
  -3  13 -17    3.97    0.46
   3  13  17    3.67    0.40
   3 -13  17    3.56    0.42
   3  13 -17    3.28    0.41
  -3  13  17    3.51    0.38
   4  13  17    1.98    0.32
  -4  13  17    1.80    0.35
   4 -13  17    1.62    0.35
   4  13 -17    1.56    0.40
   5  13  17   12.76    0.76
   5 -13  17   12.38    0.82
   5  13 -17   12.27    0.83
  -5  13  17   13.33    0.78
   6  13  17    0.91    0.35
  -6  13  17    0.86    0.38
   0  13 -18   -0.38    0.31
   0  13  18    0.00    0.26
   0  13  18    0.33    0.27
   1  13  18    3.05    0.38
  -1  13 -18    2.68    0.39
   1  13  18    3.17    0.37
  -1  13  18    2.63    0.35
  -1  13  18    2.67    0.34
   1  13 -18    2.82    0.39
   2  13  18    0.81    0.31
  -2  13 -18    1.10    0.38
  -2  13  18    0.93    0.30
  -2  13  18    0.73    0.29
   2  13 -18    0.81    0.35
   3  13  18    0.64    0.31
  -3  13 -18    0.31    0.40
  -3  13  18    0.48    0.30
   3  13 -18    1.32    0.38
   4  13  18   22.14    1.06
   4 -13  18   20.63    1.15
   4  13 -18   23.14    1.18
  -4  13  18   23.02    1.08
   5  13  18    4.04    0.46
  -5  13  18    2.89    0.45
   0  13  19   11.12    0.67
   0  13 -19   11.16    0.75
   0  13  19   10.95    0.71
   1  13  19    3.37    0.40
  -1  13 -19    3.02    0.45
  -1  13  19    3.16    0.38
   1  13 -19    3.91    0.47
  -1  13  19    4.00    0.40
   2  13  19    0.47    0.32
  -2  13 -19    0.37    0.37
   2  13 -19    0.60    0.32
  -2  13  19    0.63    0.30
  -3  13 -19    0.06    0.33
   3  13  19    0.32    0.32
   3  13 -19    0.02    0.35
  -3  13  19    0.22    0.30
   4  13  19    2.28    0.37
  -4  13  19    1.92    0.38
   0  13 -20   -0.13    0.35
   0  13  20    0.40    0.30
   1  13  20    2.86    0.39
  -1  13 -20    3.32    0.48
  -1  13  20    2.66    0.38
   1  13 -20    2.96    0.47
  -2  13 -20    1.24    0.43
   2  13  20    1.39    0.36
  -2  13  20    0.60    0.32
   2  13 -20    1.32    0.36
   3  13  20    4.57    0.48
  -3  13  20    5.28    0.49
   0  13  21    2.74    0.40
   1  13  21    4.53    0.48
  -1  13  21    4.67    0.48
   2  13  21    6.51    0.56
   0  14   0  489.70   19.38
   0  14   0  508.83   18.55
   1 -14   0    0.67    0.16
   1  14   0    0.25    0.15
   1  14   0    0.53    0.15
  -1  14   0    0.32    0.16
  -2  14   0    6.49    0.34
   2 -14   0    5.79    0.37
   2  14   0    6.04    0.36
   3 -14   0    0.23    0.15
  -3  14   0    0.13    0.13
  -3  14   0   -0.10    0.14
   3  14   0   -0.07    0.16
   3  14   0    0.01    0.14
   4 -14   0    6.86    0.42
  -4  14   0    6.76    0.38
   4  14   0    6.45    0.42
   4  14   0    6.56    0.44
  -5  14   0    0.91    0.20
   5  14   0    0.73    0.23
   5  14   0    0.63    0.21
   5 -14   0    0.62    0.22
   6  14   0    7.74    0.51
   6  14   0    8.46    0.51
   6 -14   0    7.35    0.49
  -6  14   0    7.13    0.46
   7 -14   0    0.08    0.21
   7  14   0    0.62    0.26
   7  14   0    0.33    0.25
  -7  14   0    0.14    0.24
  -8  14   0    2.66    0.35
   8 -14   0    2.61    0.38
   8  14   0    2.88    0.36
   8  14   0    3.17    0.40
   9 -14   0    1.81    0.42
   9  14   0    1.31    0.38
   0  14   1   -0.45    0.17
   0  14   1    0.28    0.12
   0  14  -1    0.12    0.14
   1 -14  -1   63.72    2.48
   1  14   1   60.58    2.47
   1  14   1   64.40    2.40
  -1  14   1   60.94    2.38
   1 -14   1   59.18    2.49
   1  14  -1   62.31    2.49
   2  14   1    7.41    0.40
   2 -14  -1    7.36    0.40
   2  14  -1    7.51    0.42
   2 -14   1    7.37    0.42
  -2  14   1    8.08    0.39
   3 -14  -1   15.92    0.73
   3  14   1   15.50    0.74
   3  14   1   15.13    0.73
  -3  14  -1   15.21    0.69
  -3  14   1   17.05    0.68
   3  14  -1   15.87    0.75
   3 -14   1   17.07    0.76
  -3  14   1   16.36    0.71
   3  14  -1   15.95    0.75
   4  14   1   20.08    0.92
   4  14   1   21.39    0.91
   4 -14  -1   21.28    0.92
  -4  14  -1   18.82    0.85
   4  14  -1   20.23    0.91
  -4  14   1   20.25    0.86
   4 -14   1   19.80    0.92
   4  14  -1   19.88    0.93
  -5  14  -1    4.72    0.34
   5 -14  -1    3.79    0.34
   5  14   1    4.13    0.36
   5  14   1    4.23    0.35
   5 -14   1    4.39    0.38
  -5  14   1    4.71    0.34
   5  14  -1    4.00    0.36
   5  14  -1    4.71    0.39
   6  14   1    0.93    0.24
   6 -14  -1    1.00    0.26
   6  14   1    0.65    0.25
  -6  14  -1    1.41    0.24
  -6  14   1    0.71    0.23
   6  14  -1    1.20    0.28
   6  14  -1    0.90    0.26
   6 -14   1    0.92    0.25
   7  14   1    1.02    0.25
  -7  14  -1    1.16    0.27
   7  14   1    1.44    0.28
   7 -14  -1    1.49    0.31
  -7  14   1    1.47    0.28
   7 -14   1    1.45    0.31
   7  14  -1    1.11    0.28
   7  14  -1    1.57    0.31
   8  14   1    0.49    0.27
   8  14   1    0.41    0.29
   8 -14  -1    0.37    0.30
   8  14  -1    0.39    0.28
   8  14  -1    0.34    0.30
   8 -14   1    0.70    0.31
  -8  14   1    0.45    0.26
   9  14   1   13.32    0.81
   9 -14  -1   13.05    0.85
   9  14  -1   12.63    0.82
  -9  14   1   13.54    0.76
   9 -14   1   12.86    0.86
   0  14   2  175.13    6.66
   0  14   2  166.47    6.39
   0  14  -2  169.58    6.68
   1  14   2   18.66    0.79
   1 -14  -2   17.14    0.78
   1  14   2   18.05    0.78
   1 -14   2   18.47    0.82
  -1  14   2   18.58    0.77
   1  14  -2   17.65    0.81
   2  14   2   13.20    0.63
   2 -14  -2   13.51    0.63
  -2  14   2   14.24    0.60
   2  14  -2   13.85    0.65
   2 -14   2   13.01    0.65
   3 -14  -2    7.62    0.43
   3  14   2    7.50    0.43
   3  14   2    5.98    0.43
  -3  14  -2    8.09    0.41
   3  14  -2    7.50    0.45
  -3  14   2    8.01    0.43
  -3  14   2    8.07    0.38
   3 -14   2    8.28    0.45
   3  14  -2    8.01    0.48
   4  14   2   42.64    1.77
   4  14   2   43.75    1.72
  -4  14  -2   42.62    1.67
   4 -14  -2   42.25    1.77
   4 -14   2   41.13    1.78
   4  14  -2   44.62    1.73
  -4  14   2   43.20    1.69
   4  14  -2   41.39    1.79
   5 -14  -2    2.07    0.26
  -5  14  -2    1.86    0.23
   5  14   2    2.03    0.25
   5  14   2    1.85    0.27
   5  14  -2    1.83    0.26
   5 -14   2    1.69    0.27
  -5  14   2    2.15    0.25
   5  14  -2    1.54    0.27
   6 -14  -2    5.38    0.45
   6  14   2    6.20    0.45
   6  14   2    6.27    0.46
  -6  14  -2    5.51    0.41
   6  14  -2    6.31    0.46
  -6  14   2    5.86    0.43
   6  14  -2    6.60    0.46
   6 -14   2    5.88    0.47
   7 -14  -2    1.28    0.30
   7  14   2    1.21    0.28
   7  14   2    1.30    0.29
   7  14  -2    1.35    0.28
  -7  14   2    1.49    0.29
   7  14  -2    0.84    0.27
   7 -14   2    1.11    0.31
   8  14   2    2.38    0.36
   8  14   2    1.94    0.32
   8 -14  -2    1.43    0.34
   8  14  -2    1.54    0.36
   8 -14   2    2.34    0.40
  -8  14   2    1.62    0.31
   9  14   2    2.72    0.41
   9 -14  -2    2.72    0.44
   9 -14   2    2.55    0.46
   9  14  -2    2.47    0.43
  -9  14   2    1.92    0.35
   0  14   3    0.25    0.12
   0  14  -3    0.14    0.15
   0  14   3   -0.11    0.12
   1  14   3   30.81    1.25
   1  14   3   30.83    1.23
  -1  14   3   31.74    1.25
  -1  14   3   30.19    1.22
   1  14  -3   29.47    1.29
   1 -14   3   29.43    1.29
   2 -14  -3   25.36    1.05
   2  14   3   26.35    1.06
   2  14  -3   24.26    1.09
  -2  14   3   24.97    1.03
  -2  14   3   24.67    1.01
   2 -14   3   24.36    1.09
  -3  14  -3   37.43    1.43
   3 -14  -3   35.82    1.51
   3  14   3   37.86    1.51
   3  14   3   32.01    1.47
   3 -14   3   36.82    1.54
  -3  14   3   35.55    1.45
   3  14  -3   37.85    1.55
  -3  14   3   38.38    1.42
  -4  14  -3    3.14    0.25
   4  14   3    3.35    0.28
   4 -14  -3    3.14    0.28
   4  14   3    3.43    0.32
  -4  14   3    2.78    0.28
   4  14  -3    3.45    0.32
   4 -14   3    2.35    0.27
   4  14  -3    3.32    0.32
   5  14   3    6.76    0.46
  -5  14  -3    6.41    0.39
   5 -14  -3    6.64    0.43
   5  14   3    7.20    0.43
  -5  14   3    6.27    0.42
   5 -14   3    6.21    0.47
   5  14  -3    6.54    0.48
   5  14  -3    6.62    0.48
   6  14   3   12.40    0.65
   6 -14  -3   12.17    0.69
   6  14   3   13.23    0.68
   6  14  -3   13.34    0.69
  -6  14   3   11.86    0.63
   6 -14   3   13.31    0.70
   6  14  -3   12.64    0.70
   7  14   3    1.82    0.30
   7 -14  -3    1.82    0.31
   7  14   3    1.68    0.30
   7  14  -3    1.48    0.30
   7  14  -3    1.48    0.30
  -7  14   3    1.35    0.29
   7 -14   3    1.96    0.34
   8  14   3    0.64    0.29
   8 -14  -3    0.88    0.31
   8  14   3    0.48    0.28
   8 -14   3    0.38    0.32
   8  14  -3    0.42    0.32
  -8  14   3    0.72    0.29
   9 -14  -3    4.55    0.54
   9 -14   3    5.40    0.57
   9  14  -3    4.55    0.52
  -9  14   3    4.11    0.44
   0  14  -4   45.48    1.93
   0  14   4   48.40    1.84
   1  14   4    8.68    0.45
   1 -14   4    9.02    0.48
   1  14  -4    7.69    0.45
  -1  14   4    8.15    0.42
  -2  14  -4   30.90    1.20
   2  14  -4   30.71    1.30
   2 -14   4   30.89    1.30
  -2  14   4   30.66    1.23
  -2  14   4   28.48    1.20
  -3  14  -4   38.54    1.43
   3  14   4   32.20    1.47
  -3  14   4   37.13    1.47
   3 -14   4   37.38    1.56
   3  14  -4   36.06    1.56
  -3  14   4   38.32    1.43
   4  14   4   47.90    1.91
   4 -14   4   45.92    2.00
  -4  14   4   49.32    1.90
   4  14  -4   49.30    2.02
   5  14   4   11.32    0.60
  -5  14   4   10.71    0.57
   5 -14   4   11.14    0.63
   5  14  -4   10.73    0.61
   5  14  -4   10.18    0.61
   6  14   4    3.39    0.35
   6 -14   4    3.10    0.34
  -6  14   4    2.82    0.30
   6  14  -4    3.35    0.38
   6  14  -4    2.74    0.35
   7  14   4    5.51    0.47
   7  14  -4    6.09    0.52
   7 -14   4    7.19    0.55
  -7  14   4    6.09    0.48
   7  14  -4    5.64    0.47
   8  14   4    0.18    0.27
   8  14  -4    0.27    0.31
   8 -14   4    0.34    0.32
  -8  14   4   -0.29    0.27
  -9  14   4    4.46    0.44
   9  14  -4    4.20    0.51
   9 -14   4    4.62    0.52
   0  14  -5    0.17    0.17
   0  14   5    0.03    0.14
   1  14   5   20.97    0.85
  -1  14   5   19.11    0.82
   1 -14   5   19.88    0.90
   1  14  -5   18.50    0.88
  -2  14  -5   21.65    0.81
   2  14   5   16.53    0.84
  -2  14   5   19.46    0.85
  -2  14   5   21.05    0.82
   2 -14   5   20.36    0.91
   2  14  -5   19.38    0.90
   3  14   5   14.26    0.66
   3 -14   5   13.28    0.67
  -3  14   5   13.24    0.60
   3  14  -5   12.95    0.68
  -3  14   5   14.47    0.65
   4  14   5    0.79    0.24
   4 -14   5    1.15    0.22
  -4  14   5    0.75    0.22
   4  14  -5    0.84    0.24
   5  14   5    7.06    0.47
   5 -14   5    6.53    0.49
   5  14  -5    6.49    0.50
  -5  14   5    6.39    0.42
   6  14   5   36.68    1.54
   6 -14   5   36.70    1.63
   6  14  -5   34.44    1.54
   6  14  -5   37.97    1.64
  -6  14   5   38.23    1.54
   7  14   5    3.85    0.37
   7 -14   5    3.30    0.39
   7  14  -5    3.68    0.44
  -7  14   5    3.31    0.38
   7  14  -5    3.54    0.39
   8  14   5    1.98    0.33
   8 -14   5    2.51    0.42
  -8  14   5    2.37    0.37
   8  14  -5    2.63    0.41
  -9  14   5    1.61    0.37
   9  14  -5    1.57    0.43
   9 -14   5    2.15    0.40
   0  14   6   23.88    0.99
   0  14  -6   24.26    1.06
   1  14   6    3.28    0.27
  -1  14   6    3.10    0.25
   1 -14   6    2.95    0.28
   1  14  -6    3.28    0.30
   2  14   6   22.26    0.93
  -2  14   6   21.06    0.93
   2  14  -6   21.43    0.99
   2 -14   6   21.45    0.99
  -2  14   6   22.30    0.90
   3  14   6   54.37    2.17
   3  14  -6   54.71    2.28
   3 -14   6   57.35    2.29
  -3  14   6   54.51    2.16
   4  14   6   10.92    0.56
   4  14  -6   10.58    0.59
  -4  14   6   10.37    0.54
   4 -14   6    9.81    0.57
   5  14   6    4.24    0.36
   5 -14   6    4.57    0.40
   5  14  -6    4.26    0.38
  -5  14   6    3.62    0.33
   6  14   6    0.74    0.26
   6 -14   6    0.69    0.28
   6  14  -6    0.75    0.30
  -6  14   6    0.76    0.27
   7  14   6   21.07    0.98
  -7  14   6   21.71    1.00
   7  14  -6   21.21    1.08
   7 -14   6   19.82    1.04
   7  14  -6   20.40    0.99
   8  14   6    0.87    0.29
   8  14  -6    0.68    0.32
   8 -14   6    1.60    0.38
  -8  14   6    1.27    0.34
  -9  14   6    7.14    0.57
   0  14   7   -0.09    0.13
   0  14  -7    0.17    0.19
   1  14   7    1.67    0.22
  -1  14  -7    1.81    0.27
   1  14  -7    1.34    0.22
   1 -14   7    1.64    0.25
  -1  14   7    1.82    0.20
   2  14   7    5.61    0.37
  -2  14   7    6.69    0.36
   2  14  -7    6.60    0.45
   2 -14   7    6.41    0.42
  -2  14   7    6.59    0.41
   3  14   7    1.16    0.21
   3  14  -7    1.12    0.26
   3 -14   7    1.18    0.25
  -3  14   7    1.06    0.23
   4  14   7    0.96    0.21
   4 -14   7    1.04    0.23
  -4  14   7    1.24    0.25
   4  14  -7    1.14    0.25
   5  14   7    5.24    0.39
  -5  14   7    5.04    0.39
   5 -14   7    4.66    0.41
   5  14  -7    5.69    0.47
   6  14   7   52.85    2.17
  -6  14   7   54.99    2.18
   6  14  -7   53.78    2.30
   6 -14   7   55.62    2.31
   7  14   7    5.82    0.46
  -7  14   7    5.77    0.47
   7  14  -7    6.15    0.50
   7  14  -7    6.29    0.56
   7 -14   7    5.48    0.53
   8  14   7    0.24    0.28
  -8  14   7    0.13    0.32
   8 -14   7    0.11    0.34
   8  14  -7    0.13    0.34
  -9  14   7    1.75    0.39
   0  14  -8    2.58    0.27
   0  14   8    2.27    0.23
  -1  14  -8    0.58    0.20
   1  14   8    0.59    0.16
   1  14  -8    0.40    0.19
   1 -14   8    0.29    0.18
  -1  14   8    0.32    0.16
   2  14   8    2.29    0.24
  -2  14   8    2.16    0.27
  -2  14   8    2.43    0.21
   2  14  -8    2.18    0.27
   2 -14   8    2.33    0.27
   3  14   8   19.79    0.91
   3  14  -8   20.96    0.98
  -3  14   8   20.70    0.90
   3 -14   8   21.46    0.98
   4  14   8    5.83    0.40
   4 -14   8    5.86    0.44
   4  14  -8    6.01    0.48
  -4  14   8    5.71    0.43
   5  14   8   11.71    0.64
  -5  14   8   12.30    0.64
   5 -14   8   11.36    0.66
   5  14  -8   11.21    0.67
   6  14   8    5.84    0.47
   6  14  -8    5.54    0.49
  -6  14   8    6.34    0.50
   6 -14   8    5.40    0.47
   7  14   8   28.82    1.30
   7 -14   8   29.60    1.42
  -7  14   8   31.51    1.34
   7  14  -8   30.23    1.44
   8  14   8    0.11    0.28
   8 -14   8   -0.14    0.28
  -8  14   8    0.14    0.32
   8  14  -8    0.11    0.36
  -9  14   8    7.70    0.63
   0  14  -9   -0.19    0.20
   0  14   9   -0.05    0.16
  -1  14  -9    0.62    0.21
   1  14   9    0.66    0.19
   1  14  -9    0.65    0.23
  -1  14   9    0.22    0.16
   2  14   9   18.07    0.82
  -2  14   9   18.02    0.78
   2 -14   9   17.65    0.88
  -2  14   9   18.38    0.81
   2  14  -9   18.83    0.89
   3  14   9    9.58    0.53
  -3  14   9    9.20    0.53
   3 -14   9    9.36    0.56
   3  14  -9    9.56    0.56
   4  14   9    0.49    0.23
   4 -14   9    0.34    0.25
  -4  14   9    0.37    0.23
   4  14  -9    0.87    0.25
   5  14   9   12.34    0.65
  -5  14   9   12.71    0.69
   5 -14   9   12.76    0.74
   5  14  -9   13.65    0.76
   6  14   9   23.16    1.08
  -6  14   9   23.53    1.08
   6 -14   9   24.80    1.18
   6  14  -9   23.81    1.18
   7  14   9    3.82    0.41
   7  14  -9    4.38    0.49
  -7  14   9    4.13    0.43
   7 -14   9    3.49    0.43
   8  14   9   11.35    0.70
  -8  14   9   12.56    0.72
   8 -14   9   12.06    0.82
   8  14  -9   11.42    0.77
   0  14  10   10.80    0.55
   0  14 -10   11.48    0.63
  -1  14 -10   24.30    1.10
   1  14  10   23.12    1.01
   1  14 -10   24.20    1.10
  -1  14  10   24.84    1.01
   2  14  10   11.83    0.62
  -2  14  10   12.08    0.58
  -2  14  10   12.89    0.63
   2 -14  10   12.07    0.66
   2  14 -10   12.50    0.69
   3  14  10   15.80    0.76
   3  14 -10   15.81    0.85
  -3  14  10   16.97    0.78
   3 -14  10   17.20    0.83
   4  14  10    0.43    0.20
   4  14 -10    0.85    0.26
   4 -14  10    0.58    0.26
  -4  14  10    0.36    0.21
   5  14  10   23.36    1.07
   5 -14  10   24.58    1.15
  -5  14  10   23.60    1.07
   5  14 -10   25.32    1.16
   6  14  10    6.23    0.47
   6 -14  10    5.99    0.52
   6  14 -10    6.61    0.53
  -6  14  10    6.80    0.53
   7  14  10   17.33    0.89
   7  14 -10   16.90    0.96
   7 -14  10   19.25    1.00
  -7  14  10   17.89    0.90
   8  14  10    0.98    0.33
  -8  14  10    1.35    0.34
   0  14  11    0.24    0.19
   0  14 -11    0.20    0.21
   1  14  11    1.69    0.25
  -1  14 -11    1.89    0.28
  -1  14  11    1.48    0.23
   1  14 -11    1.85    0.28
  -1  14  11    1.76    0.28
   2  14  11   26.72    1.18
   2  14 -11   28.08    1.27
  -2  14  11   27.62    1.18
  -2  14  11   28.43    1.14
   2 -14  11   27.95    1.27
   3  14  11    5.47    0.44
   3  14 -11    6.91    0.50
  -3  14  11    4.96    0.43
   3 -14  11    6.08    0.45
   4  14  11    9.76    0.60
   4 -14  11   10.76    0.63
   4  14 -11   10.53    0.67
  -4  14  11   10.65    0.60
   5  14  11    6.72    0.48
   5 -14  11    7.29    0.57
  -5  14  11    6.42    0.51
   5  14 -11    6.94    0.53
   6  14  11   14.63    0.78
   6  14 -11   15.52    0.88
   6 -14  11   14.45    0.86
  -6  14  11   14.91    0.78
   7  14  11    6.50    0.55
   7 -14  11    7.18    0.59
  -7  14  11    6.79    0.55
   7  14 -11    7.12    0.62
   8  14  11   14.58    0.84
  -8  14  11   16.59    0.90
   0  14 -12   53.11    2.17
   0  14  12   49.50    2.02
   1  14  12   23.99    1.07
  -1  14 -12   24.49    1.16
  -1  14  12   25.35    1.08
   1  14 -12   25.05    1.16
  -1  14  12   26.84    1.06
   2  14  12    1.90    0.26
   2  14 -12    3.11    0.34
  -2  14  12    3.17    0.32
  -2  14  12    2.30    0.24
   2 -14  12    2.04    0.33
   3  14  12    7.04    0.46
   3  14 -12    7.42    0.55
   3 -14  12    7.19    0.51
  -3  14  12    7.81    0.50
   4  14  12    2.69    0.34
  -4  14  12    2.75    0.34
   4  14 -12    3.13    0.37
   4 -14  12    2.85    0.35
   5  14  12   35.50    1.54
   5  14 -12   38.02    1.67
  -5  14  12   36.84    1.56
   5 -14  12   36.37    1.64
   6  14  12    0.32    0.29
  -6  14  12    0.27    0.27
   6 -14  12    0.61    0.29
   6  14 -12    0.56    0.30
   7  14  12   15.11    0.83
  -7  14  12   15.49    0.83
   7 -14  12   15.04    0.93
   7  14 -12   15.55    0.93
   8  14  12    0.36    0.33
  -8  14  12    0.64    0.38
   0  14 -13    0.32    0.27
   0  14  13    0.11    0.20
  -1  14 -13    6.93    0.53
   1  14  13    6.89    0.46
   1  14 -13    6.70    0.49
  -1  14  13    6.69    0.48
  -1  14  13    6.61    0.42
  -2  14 -13    0.52    0.27
   2  14  13    0.94    0.25
  -2  14  13    0.60    0.25
   2 -14  13    0.27    0.23
   2  14 -13    0.30    0.24
  -2  14  13    0.40    0.21
   3  14  13   19.20    0.88
   3 -14  13   18.71    0.94
  -3  14  13   19.44    0.90
   3  14 -13   18.16    0.97
   4  14  13   19.66    0.93
   4 -14  13   19.96    1.00
  -4  14  13   19.21    0.91
   4  14 -13   18.72    0.98
   5  14  13    0.41    0.29
   5 -14  13    0.42    0.31
   5  14 -13    0.47    0.28
  -5  14  13    0.48    0.26
   6  14  13    1.95    0.35
   6 -14  13    2.19    0.41
   6  14 -13    2.00    0.42
  -6  14  13    1.98    0.38
   7  14  13    4.12    0.45
  -7  14  13    4.59    0.46
   0  14  14   28.52    1.24
   0  14 -14   30.89    1.37
   1  14  14   12.29    0.64
  -1  14 -14   13.06    0.74
  -1  14  14   11.51    0.65
  -1  14  14   11.82    0.61
   1  14 -14   12.68    0.73
  -2  14 -14    1.96    0.34
   2  14  14    1.97    0.30
  -2  14  14    1.76    0.27
   2  14 -14    1.74    0.31
  -2  14  14    1.62    0.25
   3  14  14    3.08    0.32
   3  14 -14    3.17    0.38
  -3  14  14    2.64    0.35
   3 -14  14    2.69    0.36
   4  14  14    7.98    0.51
   4  14 -14    7.54    0.61
  -4  14  14    6.74    0.49
   4 -14  14    6.78    0.54
   5  14  14    7.04    0.50
   5 -14  14    6.39    0.55
  -5  14  14    6.93    0.55
   5  14 -14    6.68    0.56
   6  14  14    0.22    0.30
  -6  14  14    0.72    0.36
   6  14 -14    0.45    0.32
   6 -14  14    0.28    0.34
   7  14  14    8.93    0.65
  -7  14  14    8.79    0.63
   0  14 -15   -0.07    0.29
   0  14  15    0.14    0.22
   0  14  15    0.04    0.26
  -1  14 -15   40.73    1.74
   1  14  15   39.61    1.62
   1  14 -15   40.44    1.74
  -1  14  15   37.84    1.62
  -1  14  15   38.33    1.60
  -2  14 -15    7.18    0.60
   2  14  15    7.35    0.48
  -2  14  15    6.58    0.50
  -2  14  15    7.89    0.46
   2  14 -15    6.88    0.54
   3  14  15    7.99    0.54
   3  14 -15    7.89    0.58
   3 -14  15    7.93    0.61
  -3  14  15    7.67    0.54
   4  14  15    4.72    0.43
  -4  14  15    4.54    0.43
   4 -14  15    3.69    0.45
   4  14 -15    4.55    0.49
   5  14  15    3.73    0.41
  -5  14  15    3.52    0.43
   5 -14  15    3.73    0.47
   5  14 -15    3.06    0.42
   6  14  15    0.69    0.30
  -6  14  15    1.10    0.37
   0  14 -16   25.03    1.23
   0  14  16   25.22    1.12
   0  14  16   25.72    1.13
  -1  14 -16    4.00    0.47
   1  14  16    4.72    0.40
   1  14 -16    4.02    0.46
  -1  14  16    4.13    0.37
  -1  14  16    4.46    0.40
   2  14  16   32.15    1.37
  -2  14 -16   32.40    1.48
   2  14 -16   31.18    1.47
  -2  14  16   31.77    1.33
  -2  14  16   30.34    1.35
   3  14  16    3.12    0.34
   3  14 -16    3.12    0.44
  -3  14  16    3.23    0.39
   3 -14  16    2.94    0.42
   4  14  16   12.85    0.74
   4  14 -16   11.98    0.77
  -4  14  16   12.99    0.74
   4 -14  16   13.22    0.81
   5  14  16    1.28    0.35
  -5  14  16    1.12    0.36
   5 -14  16    1.46    0.35
   5  14 -16    1.18    0.39
   6  14  16    0.50    0.32
  -6  14  16   -0.04    0.36
   0  14  17   -0.17    0.27
   0  14  17    0.11    0.25
   0  14 -17   -0.21    0.32
  -1  14 -17   49.06    2.15
   1  14  17   47.71    1.99
   1  14  17   50.50    2.01
  -1  14  17   49.98    2.00
  -1  14  17   47.20    1.98
   1  14 -17   50.72    2.15
   2  14  17    0.32    0.27
  -2  14 -17   -0.38    0.34
  -2  14  17    0.33    0.29
  -2  14  17    0.30    0.27
   2  14 -17    0.40    0.34
   3  14  17   10.84    0.68
  -3  14 -17   11.05    0.72
   3  14 -17   10.81    0.71
   3 -14  17   11.81    0.71
  -3  14  17   10.08    0.66
   4  14  17    0.01    0.29
  -4  14  17   -0.04    0.30
   4 -14  17    0.24    0.29
   4  14 -17    0.05    0.29
   5  14  17   15.15    0.84
  -5  14  17   14.18    0.84
   0  14  18    2.90    0.37
   0  14  18    3.38    0.38
   0  14 -18    3.65    0.43
   1  14  18    4.87    0.46
  -1  14 -18    4.75    0.48
   1  14  18    4.74    0.43
  -1  14  18    4.74    0.42
   1  14 -18    5.18    0.52
  -1  14  18    4.71    0.42
   2  14  18   24.24    1.10
  -2  14 -18   24.44    1.23
  -2  14  18   22.94    1.10
   2  14 -18   24.41    1.22
   3  14  18    2.92    0.40
  -3  14 -18    2.96    0.48
   3  14 -18    2.05    0.39
  -3  14  18    2.16    0.37
   4  14  18    1.86    0.38
  -4  14  18    1.92    0.39
   5  14  18   -0.04    0.33
  -5  14  18   -0.28    0.35
   0  14  19    0.00    0.27
   0  14 -19   -0.12    0.35
   0  14  19   -0.29    0.28
   1  14  19   23.69    1.15
  -1  14 -19   26.71    1.27
  -1  14  19   25.57    1.14
   1  14 -19   24.79    1.26
  -1  14  19   23.81    1.14
   2  14  19    0.52    0.28
  -2  14 -19    0.40    0.38
   2  14 -19    0.36    0.32
  -2  14  19    0.17    0.30
   3  14  19    1.46    0.37
  -3  14  19    1.58    0.36
   4  14  19    1.40    0.38
  -4  14  19    1.39    0.37
   0  14  20    5.81    0.50
   0  14 -20    5.53    0.55
   1  14  20    0.24    0.32
  -1  14  20    0.24    0.32
  -1  14  20    0.22    0.29
   2  14  20   28.80    1.36
  -2  14  20   30.81    1.34
   3  14  20    1.92    0.40
  -3  14  20    1.27    0.37
   0  14  21   -0.03    0.32
  -1  15   0    0.48    0.17
  -1  15   0    0.15    0.16
   1 -15   0    0.60    0.15
   1  15   0    0.24    0.14
   1  15   0    0.07    0.15
   2 -15   0    2.61    0.24
  -2  15   0    2.43    0.23
   2  15   0    2.40    0.23
  -3  15   0    0.78    0.17
  -3  15   0    0.78    0.19
   3 -15   0    0.64    0.18
   3  15   0    0.66    0.22
   3  15   0    0.76    0.19
   4  15   0    1.14    0.22
  -4  15   0    1.12    0.20
   4  15   0    0.98    0.24
   4 -15   0    1.43    0.22
   5  15   0   -0.07    0.20
   5  15   0    0.11    0.23
   5 -15   0    0.03    0.20
   6 -15   0   31.09    1.38
   6  15   0   29.82    1.37
   6  15   0   31.10    1.33
  -6  15   0   31.19    1.30
  -7  15   0   -0.09    0.23
   7  15   0    0.07    0.25
   7 -15   0    0.45    0.27
   7  15   0    0.10    0.26
  -8  15   0    0.16    0.26
   8  15   0    0.72    0.31
   8 -15   0    0.43    0.32
   8  15   0   -0.08    0.27
   9  15   0    0.24    0.33
   9 -15   0   -0.19    0.34
   0  15   1    3.47    0.29
   0  15  -1    4.03    0.28
   0  15   1    3.40    0.25
  -1  15  -1    6.46    0.39
   1  15   1    7.05    0.38
   1  15   1    7.14    0.42
   1  15  -1    7.10    0.40
   1 -15   1    6.94    0.40
  -1  15   1    7.14    0.39
   1  15  -1    6.57    0.42
  -1  15   1    6.72    0.37
   2  15   1    7.47    0.42
   2 -15  -1    7.55    0.41
   2  15  -1    7.04    0.43
  -2  15   1    7.48    0.40
   2 -15   1    8.18    0.44
   3  15   1    5.38    0.38
  -3  15  -1    6.31    0.35
  -3  15  -1    6.44    0.37
   3 -15  -1    6.71    0.38
   3  15   1    5.69    0.38
  -3  15   1    5.62    0.34
   3 -15   1    6.45    0.40
   3  15  -1    5.42    0.40
   3  15  -1    6.32    0.40
  -3  15   1    6.29    0.38
   4 -15  -1   19.07    0.89
   4  15   1   19.70    0.89
  -4  15  -1   19.58    0.84
   4  15   1   20.82    0.90
  -4  15   1   19.70    0.85
   4  15  -1   17.26    0.90
   4  15  -1   19.91    0.90
   4 -15   1   19.78    0.91
   5  15   1    2.05    0.28
   5  15   1    2.21    0.30
  -5  15  -1    2.16    0.25
   5 -15  -1    2.22    0.28
   5  15  -1    1.48    0.25
   5  15  -1    2.13    0.29
  -5  15   1    2.49    0.27
   5 -15   1    2.16    0.29
   6 -15  -1    1.07    0.26
   6  15   1    0.99    0.26
  -6  15  -1    0.70    0.22
   6  15   1    0.84    0.27
   6  15  -1    0.48    0.26
  -6  15   1    1.13    0.25
   6 -15   1    1.15    0.27
   6  15  -1    1.03    0.27
   7 -15  -1    0.43    0.28
   7  15   1    0.58    0.27
  -7  15  -1    0.27    0.24
   7  15   1    0.67    0.27
  -7  15   1    0.02    0.25
   7  15  -1    0.39    0.26
   7 -15   1    0.39    0.27
   7  15  -1    0.12    0.26
   8  15   1    0.12    0.27
   8 -15  -1    0.27    0.30
   8  15   1    0.34    0.29
   8 -15   1    0.08    0.30
   8  15  -1   -0.08    0.29
  -8  15   1    0.13    0.25
   8  15  -1    0.15    0.27
   9 -15  -1    8.90    0.71
   9  15   1    6.74    0.60
  -9  15   1    8.22    0.58
   9  15  -1    7.93    0.66
   9 -15   1    7.82    0.68
   0  15  -2    0.25    0.15
   0  15   2    0.29    0.13
   0  15   2    0.30    0.16
   1  15   2    3.23    0.24
   1  15   2    3.20    0.28
  -1  15   2    2.59    0.23
  -1  15   2    2.79    0.24
   1 -15   2    2.84    0.26
   1  15  -2    2.84    0.26
   2 -15  -2   15.04    0.71
   2  15   2   15.00    0.71
   2 -15   2   16.82    0.74
  -2  15   2   16.29    0.68
   2  15  -2   14.95    0.73
   3 -15  -2   53.31    2.20
   3  15   2   50.16    2.20
  -3  15  -2   54.38    2.09
   3  15   2   53.42    2.14
  -3  15   2   58.14    2.09
   3  15  -2   55.98    2.16
   3  15  -2   51.77    2.22
   3 -15   2   56.77    2.23
  -3  15   2   53.61    2.11
   4 -15  -2    3.65    0.31
   4  15   2    3.82    0.31
  -4  15  -2    3.43    0.28
   4  15   2    3.12    0.30
  -4  15   2    3.10    0.29
   4 -15   2    3.07    0.30
   4  15  -2    3.58    0.35
   4  15  -2    3.91    0.34
   5  15   2   -0.08    0.19
   5 -15  -2    0.23    0.19
  -5  15  -2    0.20    0.18
   5  15   2    0.26    0.19
   5 -15   2    0.13    0.21
  -5  15   2    0.11    0.19
   5  15  -2    0.26    0.24
   5  15  -2    0.23    0.22
   6 -15  -2   11.81    0.63
   6  15   2   10.02    0.58
   6  15   2   11.17    0.61
   6 -15   2   11.48    0.65
  -6  15   2   10.18    0.58
   6  15  -2    9.36    0.61
   6  15  -2   10.32    0.65
   7 -15  -2    0.23    0.28
   7  15   2    0.36    0.26
   7  15   2    0.18    0.25
   7  15  -2    0.22    0.26
  -7  15   2    0.26    0.24
   7  15  -2    0.22    0.28
   7 -15   2    0.41    0.24
   8 -15  -2    0.13    0.30
   8  15   2    0.21    0.29
   8  15   2    0.52    0.28
   8 -15   2    0.23    0.32
   8  15  -2    0.20    0.28
  -8  15   2    0.34    0.28
   8  15  -2    0.42    0.31
   9 -15  -2    1.91    0.43
  -9  15   2    1.94    0.36
   9 -15   2    1.88    0.44
   9  15  -2    2.04    0.42
   0  15   3   42.52    1.68
   0  15  -3   42.63    1.76
   1  15   3    2.13    0.24
  -1  15  -3    1.82    0.22
  -1  15   3    1.70    0.20
   1 -15   3    1.63    0.22
   1  15  -3    1.96    0.23
  -1  15   3    2.46    0.20
   2  15   3   17.49    0.84
   2 -15  -3   20.36    0.88
   2 -15   3   21.01    0.90
   2  15  -3   20.09    0.90
  -2  15   3   18.99    0.82
   3 -15  -3   46.25    1.84
   3  15   3   44.71    1.79
  -3  15  -3   44.64    1.74
   3  15   3   45.55    1.85
   3 -15   3   43.82    1.86
  -3  15   3   44.54    1.77
   3  15  -3   43.00    1.87
  -3  15   3   45.10    1.74
   4  15   3   10.89    0.57
   4 -15  -3   10.59    0.56
  -4  15  -3   10.53    0.51
   4  15   3   10.98    0.58
   4 -15   3   10.76    0.60
   4  15  -3    9.95    0.59
  -4  15   3   10.52    0.55
   4  15  -3   10.28    0.58
   5  15   3    2.66    0.29
   5 -15  -3    2.67    0.30
   5  15  -3    2.17    0.32
   5 -15   3    2.61    0.31
   5  15  -3    2.53    0.31
  -5  15   3    2.42    0.28
   6  15   3    9.28    0.57
   6 -15   3    9.12    0.58
   6  15  -3    8.80    0.59
   6  15  -3    9.72    0.62
  -6  15   3    9.25    0.55
   7  15   3    3.93    0.39
   7  15  -3    2.96    0.36
   7  15  -3    2.85    0.39
  -7  15   3    3.01    0.36
   7 -15   3    3.57    0.41
   8  15   3    0.11    0.28
  -8  15   3   -0.01    0.27
   8  15  -3    0.30    0.31
   8 -15   3    0.28    0.27
   8  15  -3   -0.06    0.28
  -9  15   3    7.08    0.56
   9  15  -3    6.17    0.57
   9 -15   3    7.08    0.64
   0  15  -4    0.02    0.16
   0  15   4   -0.07    0.15
  -1  15  -4    0.76    0.21
   1  15   4    1.32    0.19
   1  15  -4    1.05    0.20
   1 -15   4    0.90    0.20
  -1  15   4    1.16    0.18
   2  15   4    1.47    0.21
  -2  15   4    1.99    0.25
   2 -15   4    1.81    0.23
  -2  15   4    2.04    0.19
   2  15  -4    1.82    0.25
   3  15   4   10.78    0.58
  -3  15  -4   11.42    0.51
   3 -15   4   11.68    0.60
   3  15  -4   10.69    0.60
  -3  15   4   10.66    0.56
   4  15   4   16.54    0.80
  -4  15   4   17.56    0.78
   4 -15   4   16.80    0.82
   4  15  -4   16.50    0.82
   5  15   4   20.27    0.94
   5  15  -4   19.83    0.96
  -5  15   4   20.79    0.92
   5  15  -4   20.43    0.98
   5 -15   4   20.49    0.98
   6  15   4    4.81    0.41
   6 -15   4    4.39    0.41
   6  15  -4    4.79    0.44
  -6  15   4    4.90    0.40
   6  15  -4    4.38    0.42
   7  15   4   10.31    0.62
   7  15  -4    9.15    0.61
  -7  15   4    9.54    0.56
   7  15  -4    9.08    0.66
   7 -15   4    9.45    0.66
   8  15   4   -0.09    0.27
   8 -15   4    0.14    0.31
  -8  15   4    0.57    0.30
   8  15  -4    0.15    0.32
  -9  15   4   10.13    0.67
   0  15  -5   47.87    1.97
   0  15   5   47.33    1.87
   1  15   5    1.86    0.23
  -1  15  -5    2.29    0.27
  -1  15   5    1.95    0.21
   1 -15   5    1.40    0.22
   1  15  -5    2.55    0.27
   2  15   5    1.27    0.22
   2  15  -5    1.18    0.23
   2 -15   5    1.02    0.22
  -2  15   5    1.51    0.24
  -2  15   5    1.32    0.18
   3  15   5    4.36    0.34
  -3  15   5    4.81    0.34
   3 -15   5    4.91    0.39
   3  15  -5    4.92    0.37
   4  15   5   35.20    1.47
   4 -15   5   36.97    1.54
   4  15  -5   35.78    1.54
  -4  15   5   33.85    1.44
   5  15   5    4.88    0.41
   5  15  -5    5.38    0.43
   5 -15   5    5.27    0.45
  -5  15   5    4.71    0.37
   6  15   5    9.50    0.57
   6  15  -5    8.18    0.60
   6  15  -5    7.96    0.58
   6 -15   5    7.89    0.55
  -6  15   5    8.97    0.52
   7  15   5    5.91    0.49
   7  15  -5    6.13    0.53
  -7  15   5    5.74    0.45
   7  15  -5    5.79    0.48
   7 -15   5    5.01    0.51
   8  15   5    0.75    0.30
   8  15  -5    0.59    0.35
   8 -15   5    0.34    0.33
  -8  15   5    0.87    0.32
  -9  15   5    0.77    0.34
   0  15   6   -0.02    0.16
   0  15  -6    0.07    0.16
   1  15   6    3.87    0.33
  -1  15  -6    4.38    0.34
   1 -15   6    4.60    0.34
  -1  15   6    4.00    0.30
   1  15  -6    3.80    0.34
   2  15   6    0.38    0.17
  -2  15   6    0.29    0.15
   2  15  -6    0.27    0.18
   2 -15   6    0.53    0.21
  -2  15   6    0.39    0.19
   3  15   6   10.05    0.57
  -3  15   6   10.62    0.54
   3  15  -6   10.78    0.59
   3 -15   6   11.29    0.59
   4  15   6    9.88    0.57
  -4  15   6    9.71    0.55
   4  15  -6    9.85    0.60
   4 -15   6    9.84    0.59
   5  15   6    3.89    0.37
   5  15  -6    4.40    0.42
  -5  15   6    4.25    0.36
   5 -15   6    4.48    0.40
   6  15   6    1.53    0.30
  -6  15   6    1.49    0.30
   6  15  -6    0.98    0.32
   6 -15   6    1.45    0.29
   7  15   6    6.99    0.53
   7  15  -6    7.35    0.55
  -7  15   6    6.38    0.53
   7 -15   6    5.93    0.55
   7  15  -6    7.26    0.62
   8  15   6    0.70    0.31
   8 -15   6    1.08    0.39
   8  15  -6    0.93    0.33
  -8  15   6    1.12    0.34
  -9  15   6    3.72    0.46
   0  15   7   10.94    0.55
   0  15  -7   11.89    0.62
   1  15   7    0.23    0.18
  -1  15  -7    0.28    0.22
   1  15  -7    0.61    0.22
  -1  15   7    0.18    0.16
   2  15   7    1.96    0.24
  -2  15   7    1.86    0.20
   2 -15   7    2.82    0.30
   2  15  -7    2.21    0.27
  -2  15   7    1.75    0.26
   3  15   7    2.20    0.28
  -3  15   7    2.03    0.27
   3 -15   7    2.34    0.31
   3  15  -7    2.89    0.33
   4  15   7    4.50    0.38
   4 -15   7    4.39    0.40
   4  15  -7    5.30    0.45
  -4  15   7    4.42    0.36
   5  15   7    5.86    0.47
   5 -15   7    5.52    0.46
   5  15  -7    6.28    0.47
  -5  15   7    6.00    0.45
   6  15   7    0.62    0.27
  -6  15   7    0.29    0.27
   6 -15   7    0.36    0.25
   6  15  -7    0.26    0.26
   7  15   7    1.44    0.32
  -7  15   7    1.48    0.33
   7 -15   7    1.49    0.36
   7  15  -7    1.68    0.40
   7  15  -7    1.56    0.35
   8  15   7    3.73    0.41
   8 -15   7    3.23    0.48
  -8  15   7    3.41    0.44
   8  15  -7    3.84    0.50
  -9  15   7    0.69    0.37
   0  15  -8   -0.03    0.18
   0  15   8    0.21    0.17
   1  15   8    6.49    0.41
  -1  15  -8    6.47    0.44
  -1  15   8    6.46    0.39
   1  15  -8    6.94    0.47
   2  15   8    0.51    0.21
   2 -15   8    0.53    0.23
  -2  15   8    0.45    0.20
   2  15  -8    0.45    0.24
  -2  15   8    0.62    0.16
   3  15   8    0.60    0.22
   3  15  -8    0.32    0.21
   3 -15   8    0.53    0.22
  -3  15   8    0.59    0.23
   4  15   8   12.96    0.68
  -4  15   8   13.26    0.66
   4 -15   8   13.15    0.71
   4  15  -8   14.17    0.73
   5  15   8   12.96    0.70
  -5  15   8   14.74    0.73
   5 -15   8   13.54    0.78
   5  15  -8   14.47    0.77
   6  15   8    0.57    0.28
   6  15  -8    0.88    0.29
  -6  15   8    1.07    0.31
   6 -15   8    0.81    0.31
   7  15   8    5.62    0.46
   7 -15   8    5.99    0.53
   7  15  -8    6.58    0.58
  -7  15   8    5.68    0.50
   8  15   8    3.72    0.42
   8  15  -8    4.02    0.51
  -8  15   8    5.32    0.49
   8 -15   8    3.75    0.47
   0  15  -9   25.58    1.14
   0  15   9   25.10    1.06
  -1  15  -9    1.21    0.27
   1  15   9    0.79    0.21
   1  15  -9    0.94    0.26
  -1  15   9    0.67    0.18
   2  15   9   17.62    0.80
  -2  15   9   16.24    0.78
   2  15  -9   17.91    0.85
   2 -15   9   18.30    0.87
  -2  15   9   16.32    0.75
   3  15   9    7.68    0.48
  -3  15   9    7.66    0.48
   3  15  -9    7.82    0.54
   3 -15   9    6.74    0.52
   4  15   9    1.86    0.27
   4  15  -9    2.05    0.31
   4 -15   9    1.85    0.29
  -4  15   9    2.01    0.30
   5  15   9   11.12    0.66
  -5  15   9   12.45    0.67
   5 -15   9   11.33    0.71
   5  15  -9   12.23    0.73
   6  15   9    0.69    0.29
   6 -15   9    1.03    0.34
   6  15  -9    0.97    0.35
  -6  15   9    0.65    0.26
   7  15   9    0.18    0.29
  -7  15   9    0.13    0.31
   7  15  -9    0.49    0.35
   7 -15   9    0.23    0.28
   8  15   9    0.41    0.32
  -8  15   9    0.84    0.32
   0  15  10   -0.27    0.17
   0  15 -10    0.19    0.23
   1  15  10    4.85    0.35
  -1  15 -10    4.91    0.41
  -1  15  10    4.94    0.37
   1  15 -10    5.77    0.42
   2  15  10   19.74    0.90
   2  15 -10   20.42    0.96
   2 -15  10   19.82    0.96
  -2  15  10   20.15    0.86
  -2  15  10   19.60    0.91
   3  15  10   15.19    0.73
   3  15 -10   15.32    0.79
  -3  15  10   14.43    0.71
   3 -15  10   14.73    0.77
   4  15  10    1.06    0.27
  -4  15  10    1.25    0.28
   4 -15  10    1.30    0.28
   4  15 -10    1.34    0.29
   5  15  10    0.24    0.27
  -5  15  10    0.51    0.28
   5  15 -10    0.90    0.32
   5 -15  10    0.37    0.29
   6  15  10    4.62    0.43
   6 -15  10    4.66    0.48
  -6  15  10    3.89    0.43
   6  15 -10    4.07    0.45
   7  15  10    0.52    0.27
   7 -15  10    0.55    0.35
  -7  15  10    0.78    0.30
   7  15 -10    0.80    0.33
   8  15  10    9.34    0.65
  -8  15  10    8.75    0.63
   0  15  11    0.46    0.20
   0  15 -11    0.39    0.26
   1  15  11   22.30    0.96
  -1  15 -11   21.37    1.04
   1  15 -11   21.74    1.04
  -1  15  11   21.69    0.94
  -1  15  11   23.40    0.99
   2  15  11   24.01    1.06
   2  15 -11   24.22    1.13
  -2  15  11   24.37    1.07
   2 -15  11   25.52    1.15
  -2  15  11   23.57    1.01
   3  15  11   30.32    1.29
  -3  15  11   29.84    1.28
   3 -15  11   30.11    1.37
   3  15 -11   31.14    1.39
   4  15  11    0.98    0.29
  -4  15  11    1.41    0.26
   4 -15  11    1.20    0.28
   4  15 -11    1.57    0.35
   5  15  11   -0.26    0.26
  -5  15  11   -0.01    0.27
   5  15 -11    0.41    0.31
   5 -15  11    0.02    0.25
   6  15  11    2.63    0.36
   6  15 -11    2.26    0.38
   6 -15  11    2.37    0.37
  -6  15  11    2.43    0.38
   7  15  11    0.97    0.33
   7 -15  11    0.97    0.38
   7  15 -11    0.61    0.37
  -7  15  11    1.16    0.37
   8  15  11    0.23    0.33
  -8  15  11    0.84    0.39
   0  15 -12    0.27    0.22
   0  15  12   -0.09    0.20
   1  15  12    1.08    0.25
  -1  15 -12    1.53    0.28
  -1  15  12    1.43    0.29
  -1  15  12    1.14    0.22
   1  15 -12    1.39    0.27
  -2  15 -12    1.64    0.31
   2  15  12    1.84    0.28
   2  15 -12    1.49    0.32
  -2  15  12    1.96    0.30
  -2  15  12    1.80    0.23
   2 -15  12    1.84    0.30
   3  15  12    0.51    0.22
  -3  15  12    0.59    0.26
   3  15 -12    0.99    0.31
   3 -15  12    0.98    0.27
   4  15  12    0.59    0.27
   4  15 -12    0.12    0.25
  -4  15  12    0.51    0.28
   4 -15  12    0.17    0.24
   5  15  12   11.44    0.65
   5 -15  12   11.93    0.72
   5  15 -12   12.01    0.73
  -5  15  12   11.88    0.70
   6  15  12    3.58    0.41
   6 -15  12    4.30    0.49
   6  15 -12    3.42    0.44
  -6  15  12    3.56    0.43
   7  15  12    2.05    0.38
  -7  15  12    1.69    0.39
   0  15  13    0.59    0.22
   0  15 -13    0.30    0.24
   1  15  13    9.23    0.55
  -1  15 -13    9.14    0.60
  -1  15  13   10.01    0.54
  -1  15  13    9.28    0.57
   1  15 -13    9.77    0.60
  -2  15 -13   23.90    1.13
   2  15  13   22.73    1.01
  -2  15  13   21.95    1.01
   2  15 -13   23.56    1.12
  -2  15  13   22.48    0.99
   3  15  13   12.81    0.67
  -3  15  13   13.26    0.70
   3  15 -13   12.80    0.74
   3 -15  13   12.99    0.77
   4  15  13    0.15    0.27
   4  15 -13    0.48    0.27
   4 -15  13    0.34    0.31
  -4  15  13    0.46    0.29
   5  15  13    1.84    0.34
   5 -15  13    2.14    0.39
   5  15 -13    1.82    0.39
  -5  15  13    1.39    0.34
   6  15  13    0.60    0.32
  -6  15  13    0.07    0.32
   6  15 -13    0.40    0.36
   6 -15  13    0.29    0.34
   7  15  13    7.86    0.62
  -7  15  13    6.94    0.58
   0  15 -14   -0.17    0.28
   0  15  14    0.16    0.18
  -1  15 -14   10.75    0.68
   1  15  14    9.74    0.58
  -1  15  14    9.41    0.54
   1  15 -14    9.84    0.66
  -1  15  14    9.71    0.59
   2  15  14    0.39    0.22
  -2  15 -14    0.27    0.28
  -2  15  14    0.51    0.24
   2  15 -14    0.67    0.32
  -2  15  14    1.09    0.23
   3  15  14    2.04    0.29
  -3  15  14    1.83    0.32
   3  15 -14    2.54    0.39
   3 -15  14    1.49    0.36
   4  15  14    2.11    0.31
   4  15 -14    2.30    0.37
  -4  15  14    2.28    0.36
   4 -15  14    2.87    0.40
   5  15  14    6.05    0.49
  -5  15  14    5.73    0.51
   5  15 -14    6.77    0.58
   5 -15  14    5.96    0.56
   6  15  14   10.43    0.70
   6 -15  14   10.82    0.74
  -6  15  14   11.35    0.74
   7  15  14    0.56    0.34
  -7  15  14    0.12    0.32
   0  15  15    0.68    0.29
   0  15  15    0.26    0.23
   0  15 -15    0.13    0.31
   1  15  15    0.73    0.27
  -1  15 -15    0.39    0.33
  -1  15  15    0.78    0.29
  -1  15  15    1.04    0.25
   1  15 -15    0.88    0.29
   2  15  15   14.10    0.76
  -2  15 -15   14.99    0.86
   2  15 -15   15.09    0.86
  -2  15  15   14.82    0.76
  -2  15  15   15.04    0.72
   3  15  15   10.37    0.62
   3 -15  15    9.39    0.68
   3  15 -15    9.47    0.65
  -3  15  15    9.51    0.61
   4  15  15    0.46    0.30
   4 -15  15    0.15    0.32
  -4  15  15    0.11    0.31
   4  15 -15    0.51    0.35
   5  15  15    4.00    0.45
  -5  15  15    4.42    0.47
   5  15 -15    5.23    0.54
   5 -15  15    5.34    0.50
   6  15  15    0.07    0.27
  -6  15  15    0.08    0.31
   0  15  16   -0.19    0.29
   0  15  16    0.17    0.25
   0  15 -16    0.01    0.32
   1  15  16    1.79    0.31
  -1  15 -16    2.21    0.36
  -1  15  16    1.93    0.31
  -1  15  16    2.05    0.33
   1  15 -16    2.69    0.41
   2  15  16    0.56    0.28
  -2  15 -16    0.51    0.36
   2  15 -16    0.20    0.33
  -2  15  16    0.46    0.28
   3  15  16   -0.46    0.22
  -3  15 -16    0.11    0.33
  -3  15  16    0.18    0.25
   3  15 -16    0.52    0.31
   3 -15  16    0.01    0.32
   4  15  16    1.39    0.34
   4 -15  16    1.20    0.34
   4  15 -16    1.67    0.37
  -4  15  16    1.91    0.36
   5  15  16    7.99    0.62
  -5  15  16    7.58    0.62
   6  15  16    1.79    0.35
  -6  15  16    1.41    0.42
   0  15  17    5.07    0.45
   0  15  17    4.97    0.43
   0  15 -17    5.38    0.53
  -1  15 -17   10.97    0.75
   1  15  17   11.22    0.65
   1  15  17   10.72    0.65
  -1  15  17   10.69    0.62
   1  15 -17   10.80    0.74
  -1  15  17   10.44    0.65
  -2  15 -17    2.13    0.43
   2  15  17    2.17    0.35
   2  15 -17    2.18    0.38
  -2  15  17    2.08    0.34
  -3  15 -17    0.35    0.34
   3  15  17    0.57    0.31
  -3  15  17    0.42    0.31
   3  15 -17    0.44    0.32
   4  15  17    0.81    0.32
  -4  15  17    0.61    0.34
   4 -15  17    0.15    0.36
   4  15 -17    0.36    0.39
   5  15  17    5.12    0.51
  -5  15  17    5.57    0.53
   0  15  18   -0.20    0.28
   0  15 -18   -0.24    0.29
   0  15  18    0.17    0.28
   1  15  18    0.33    0.32
  -1  15 -18    0.41    0.36
   1  15  18    0.66    0.30
  -1  15  18    0.28    0.28
   1  15 -18    0.61    0.32
  -1  15  18    0.18    0.27
  -2  15 -18    0.73    0.39
   2  15  18    0.31    0.27
  -2  15  18    0.27    0.31
   2  15 -18    0.27    0.36
  -3  15 -18    0.15    0.35
   3  15  18    0.33    0.32
  -3  15  18    0.24    0.32
   3  15 -18    0.35    0.32
   4  15  18   14.71    0.86
  -4  15  18   15.99    0.87
   0  15 -19    2.06    0.44
   0  15  19    2.24    0.36
   0  15  19    2.24    0.37
  -1  15 -19    3.41    0.45
   1  15  19    2.84    0.40
  -1  15  19    3.03    0.40
   1  15 -19    3.54    0.45
  -1  15  19    3.06    0.38
   2  15  19    0.43    0.28
  -2  15  19    0.74    0.33
   3  15  19    0.19    0.33
  -3  15  19    0.40    0.34
   0  15  20    0.22    0.31
   1  15  20    1.75    0.37
  -1  15  20    1.10    0.35
  -1  15  20    1.57    0.35
   2  15  20    0.60    0.35
  -2  15  20   -0.01    0.32
   0  16   0   93.84    3.75
   0  16   0   95.34    3.61
   1  16   0    0.39    0.17
   1  16   0    0.55    0.17
  -1  16   0    0.07    0.16
  -1  16   0    0.49    0.16
   2 -16   0   37.37    1.55
   2  16   0   37.35    1.51
   2  16   0   34.54    1.55
  -2  16   0   39.26    1.48
  -3  16   0    0.07    0.16
  -3  16   0    0.00    0.15
   3 -16   0    0.28    0.17
   3  16   0    0.03    0.16
   3  16   0    0.10    0.18
   4 -16   0    3.32    0.31
   4  16   0    3.49    0.32
   4  16   0    3.42    0.34
  -4  16   0    3.20    0.28
   5  16   0    0.21    0.24
   5 -16   0    0.30    0.21
  -5  16   0    0.74    0.20
   5  16   0    0.26    0.25
   6  16   0    1.56    0.29
  -6  16   0    1.04    0.25
   6  16   0    0.95    0.29
   6 -16   0    1.34    0.28
   7  16   0    0.15    0.28
  -7  16   0   -0.05    0.26
   7  16   0    0.53    0.28
   7 -16   0    0.35    0.28
   8  16   0    0.92    0.33
   8  16   0    0.49    0.30
   8 -16   0    0.73    0.34
   9  16   0    0.84    0.36
   0  16  -1   -0.19    0.16
   0  16  -1    0.05    0.14
   0  16   1   -0.03    0.13
   0  16   1   -0.09    0.14
  -1  16  -1    3.02    0.26
   1  16   1    2.13    0.25
  -1  16  -1    2.33    0.25
   1  16   1    2.46    0.24
   1  16  -1    2.26    0.25
  -1  16   1    3.64    0.28
   1  16  -1    2.35    0.25
  -1  16   1    2.59    0.24
   2 -16  -1   18.73    0.82
  -2  16  -1   17.07    0.80
   2  16   1   17.93    0.83
   2  16   1   19.14    0.84
   2  16  -1   18.31    0.84
  -2  16   1   19.05    0.79
   2 -16   1   18.59    0.84
   2  16  -1   17.39    0.84
  -3  16  -1    0.24    0.16
   3 -16  -1    0.13    0.16
   3  16   1    0.22    0.16
  -3  16  -1    0.19    0.17
   3  16   1    0.40    0.19
   3  16  -1    0.13    0.21
  -3  16   1    0.14    0.18
  -3  16   1    0.07    0.15
   3 -16   1    0.32    0.19
   3  16  -1    0.18    0.18
  -4  16  -1    1.15    0.21
   4 -16  -1    1.23    0.23
   4  16   1    1.51    0.27
   4  16   1    1.27    0.22
   4  16  -1    1.31    0.24
   4 -16   1    1.12    0.24
  -4  16   1    1.14    0.22
   4  16  -1    1.24    0.24
   5 -16  -1   14.26    0.74
  -5  16  -1   14.20    0.68
   5  16   1   14.62    0.73
   5  16   1   13.90    0.73
   5  16  -1   14.45    0.74
  -5  16   1   13.64    0.68
   5  16  -1   13.91    0.71
   5 -16   1   13.87    0.73
   6  16   1    0.09    0.23
   6  16   1    0.35    0.26
   6 -16  -1    0.47    0.23
  -6  16  -1    0.37    0.24
   6  16  -1    0.35    0.27
   6 -16   1    0.28    0.26
   6  16  -1    0.26    0.22
  -6  16   1   -0.12    0.22
   7  16   1    8.10    0.57
   7 -16  -1    8.63    0.59
   7  16   1    8.05    0.56
  -7  16   1    6.72    0.51
   7  16  -1    7.61    0.57
   7  16  -1    7.52    0.55
   7 -16   1    7.90    0.59
   8  16   1    2.67    0.37
   8  16   1    2.40    0.38
   8 -16  -1    1.88    0.39
   8 -16   1    2.12    0.38
  -8  16   1    2.53    0.35
   8  16  -1    2.90    0.41
   8  16  -1    2.01    0.37
   9 -16  -1    6.68    0.64
   9  16  -1    5.75    0.57
   9 -16   1    6.29    0.62
   0  16   2    5.60    0.35
   0  16   2    6.14    0.35
   0  16  -2    5.76    0.37
   1  16   2   21.25    0.96
  -1  16  -2   21.83    0.99
   1  16   2   22.50    0.96
  -1  16   2   22.81    0.96
  -1  16   2   21.57    0.94
   1  16  -2   24.56    1.00
   2  16   2    1.10    0.22
   2 -16  -2    0.53    0.16
   2  16   2    0.90    0.18
   2  16  -2    0.56    0.18
   2  16  -2    0.69    0.21
  -2  16   2    0.76    0.18
   2 -16   2    0.62    0.19
   3  16   2    5.91    0.37
  -3  16  -2    5.73    0.36
   3 -16  -2    5.72    0.38
   3  16   2    5.57    0.41
   3 -16   2    5.55    0.40
   3  16  -2    5.22    0.40
  -3  16   2    5.76    0.38
   3  16  -2    5.68    0.41
   4  16   2    8.10    0.52
   4  16   2    8.39    0.50
   4 -16  -2    8.73    0.49
  -4  16  -2    8.27    0.46
   4 -16   2    9.61    0.53
   4  16  -2    8.61    0.55
   4  16  -2    8.36    0.52
  -4  16   2    8.49    0.48
   5  16   2    4.12    0.38
  -5  16  -2    3.08    0.28
   5  16   2    3.31    0.34
   5 -16  -2    3.96    0.35
   5  16  -2    3.57    0.36
  -5  16   2    2.99    0.30
   5 -16   2    3.63    0.36
   5  16  -2    3.22    0.37
   6 -16  -2    0.23    0.23
   6  16   2    0.29    0.26
   6 -16   2    0.19    0.24
  -6  16   2   -0.11    0.21
   6  16  -2    0.37    0.27
   6  16  -2    0.18    0.26
   7  16   2    0.08    0.28
   7 -16   2    0.65    0.30
   7  16  -2    0.01    0.28
   7  16  -2   -0.03    0.27
  -7  16   2    0.04    0.25
   8  16   2    1.90    0.36
   8  16  -2    2.57    0.41
   8 -16   2    2.54    0.42
   8  16  -2    2.14    0.36
  -8  16   2    2.00    0.35
  -9  16   2    0.34    0.31
   9  16  -2    0.35    0.37
   9 -16   2    0.13    0.31
   0  16   3    0.06    0.16
   0  16  -3    0.00    0.17
  -1  16  -3    7.40    0.46
   1  16   3    8.87    0.45
  -1  16   3    7.80    0.43
   1  16  -3    7.89    0.46
   2  16   3    0.23    0.19
   2  16  -3    0.00    0.17
  -2  16   3    0.19    0.16
   2 -16   3    0.28    0.18
  -3  16  -3    2.43    0.24
   3  16   3    2.47    0.27
  -3  16   3    2.78    0.28
   3  16  -3    2.39    0.29
   3 -16   3    2.56    0.28
   4  16   3    0.18    0.23
  -4  16  -3    0.25    0.18
   4 -16   3    0.30    0.21
   4  16  -3    0.06    0.22
   4  16  -3    0.37    0.19
  -4  16   3    0.24    0.20
   5  16   3    5.69    0.43
   5  16  -3    6.41    0.47
   5  16  -3    5.41    0.46
   5 -16   3    5.34    0.45
  -5  16   3    5.36    0.41
   6  16   3    6.98    0.51
  -6  16   3    6.36    0.48
   6  16  -3    7.13    0.54
   6  16  -3    5.66    0.48
   6 -16   3    7.60    0.53
   7  16   3    0.03    0.27
   7  16  -3    0.55    0.29
  -7  16   3   -0.19    0.25
   7  16  -3    0.17    0.28
   7 -16   3    0.08    0.29
   8  16   3   13.25    0.75
   8  16  -3   12.48    0.80
   8 -16   3   13.73    0.83
   8  16  -3   11.78    0.73
  -8  16   3   13.14    0.74
  -9  16   3    2.95    0.41
   0  16  -4    1.05    0.21
   0  16   4    1.46    0.21
  -1  16  -4   44.02    1.86
   1  16   4   44.94    1.78
   1  16  -4   44.58    1.87
  -1  16   4   45.69    1.76
   2  16   4   16.49    0.77
   2  16  -4   17.31    0.82
  -2  16   4   16.80    0.73
   2 -16   4   17.43    0.82
  -2  16   4   17.31    0.78
   3  16   4    4.19    0.36
   3 -16   4    4.40    0.36
  -3  16   4    4.54    0.36
   3  16  -4    5.13    0.40
   4  16   4   12.67    0.66
  -4  16   4   12.27    0.63
   4 -16   4   12.58    0.66
   4  16  -4   12.19    0.68
   5  16   4    0.42    0.26
   5 -16   4    0.94    0.27
   5  16  -4    0.99    0.28
  -5  16   4    0.99    0.25
   5  16  -4    0.92    0.30
   6  16   4    3.02    0.37
  -6  16   4    3.30    0.35
   6  16  -4    3.73    0.40
   6  16  -4    3.01    0.39
   6 -16   4    3.06    0.35
   7  16   4    0.60    0.29
   7  16  -4    0.29    0.29
   7  16  -4    0.87    0.33
  -7  16   4    0.71    0.26
   7 -16   4    0.76    0.33
   8  16   4    0.53    0.31
   8  16  -4    0.05    0.28
   8 -16   4    0.53    0.35
   8  16  -4    0.34    0.34
  -8  16   4    0.38    0.31
  -9  16   4    0.92    0.34
   0  16   5    0.20    0.17
   0  16  -5    0.00    0.18
   1  16   5   14.74    0.71
  -1  16  -5   15.83    0.75
  -1  16   5   15.46    0.68
   1  16  -5   14.79    0.73
   2  16   5   -0.14    0.16
   2  16  -5    0.17    0.20
   2 -16   5    0.32    0.20
  -2  16   5   -0.01    0.18
  -2  16   5    0.46    0.17
   3  16   5    9.79    0.56
   3 -16   5   10.46    0.57
  -3  16   5    9.74    0.52
   3  16  -5    9.80    0.58
   4  16   5   12.31    0.65
  -4  16   5   11.44    0.62
   4  16  -5   13.15    0.69
   4 -16   5   11.82    0.67
   5  16   5    7.89    0.51
   5  16  -5    8.79    0.58
  -5  16   5    8.42    0.52
   5 -16   5    8.18    0.54
   6  16   5    7.19    0.54
   6 -16   5    9.02    0.58
  -6  16   5    7.25    0.52
   6  16  -5    7.04    0.57
   6  16  -5    6.87    0.52
   7  16   5    0.37    0.29
   7  16  -5    0.04    0.31
   7 -16   5    0.19    0.25
  -7  16   5    0.15    0.28
   7  16  -5    0.15    0.29
   8  16   5   10.08    0.66
   8 -16   5    9.84    0.75
  -8  16   5    9.61    0.66
   8  16  -5   10.82    0.74
  -9  16   5    1.12    0.37
   0  16  -6    0.65    0.22
   0  16   6    0.23    0.15
   1  16   6    7.14    0.44
  -1  16  -6    7.51    0.48
  -1  16   6    7.06    0.41
   1  16  -6    7.14    0.47
   2  16   6    2.58    0.29
  -2  16   6    2.04    0.22
  -2  16   6    2.65    0.29
   2  16  -6    2.21    0.27
   2 -16   6    2.74    0.29
   3  16   6   17.40    0.81
   3 -16   6   17.17    0.83
   3  16  -6   17.73    0.86
  -3  16   6   15.97    0.77
   4  16   6    1.43    0.25
  -4  16   6    1.00    0.23
   4 -16   6    0.75    0.26
   4  16  -6    2.15    0.32
   5  16   6   15.24    0.79
  -5  16   6   15.56    0.77
   5  16  -6   16.02    0.84
   5 -16   6   15.21    0.82
   6  16   6    1.43    0.31
   6  16  -6    1.20    0.33
  -6  16   6    1.35    0.31
   6 -16   6    1.37    0.33
   6  16  -6    1.37    0.35
   7  16   6   -0.12    0.28
   7 -16   6    0.47    0.28
  -7  16   6    1.04    0.33
   7  16  -6    0.50    0.31
   7  16  -6    0.57    0.31
   8  16   6    2.85    0.39
  -8  16   6    3.57    0.43
   8  16  -6    2.78    0.41
   8 -16   6    3.40    0.45
   0  16   7   -0.10    0.17
   0  16  -7    0.09    0.21
  -1  16  -7    7.99    0.49
   1  16   7    6.95    0.44
  -1  16   7    6.72    0.40
   1  16  -7    7.18    0.48
   2  16   7    5.18    0.37
  -2  16   7    5.26    0.35
   2  16  -7    5.26    0.40
   2 -16   7    4.75    0.39
  -2  16   7    5.72    0.41
   3  16   7    4.14    0.35
   3 -16   7    4.28    0.37
  -3  16   7    3.93    0.35
   3  16  -7    4.46    0.40
   4  16   7    2.75    0.32
   4  16  -7    2.49    0.35
  -4  16   7    2.56    0.31
   4 -16   7    2.14    0.32
   5  16   7   11.41    0.68
   5  16  -7   12.41    0.74
   5 -16   7   12.82    0.73
  -5  16   7   12.67    0.68
   6  16   7    9.28    0.62
   6  16  -7    9.44    0.67
  -6  16   7   10.34    0.63
   6 -16   7   10.87    0.68
   7  16   7    9.68    0.63
   7 -16   7    9.61    0.65
  -7  16   7    8.89    0.60
   7  16  -7    9.09    0.65
   7  16  -7    9.62    0.71
   8  16   7    4.84    0.48
   8  16  -7    5.27    0.57
   8 -16   7    5.57    0.57
  -8  16   7    5.28    0.50
   0  16   8   11.39    0.59
   0  16  -8   12.98    0.67
  -1  16  -8    1.39    0.28
   1  16   8    1.57    0.22
  -1  16   8    1.68    0.22
   1  16  -8    1.30    0.27
   2  16   8   14.24    0.68
   2  16  -8   13.66    0.74
   2 -16   8   13.87    0.74
  -2  16   8   13.97    0.63
  -2  16   8   13.98    0.69
   3  16   8   10.45    0.59
   3  16  -8   10.84    0.65
  -3  16   8   10.72    0.59
   3 -16   8   10.74    0.64
   4  16   8   -0.01    0.24
  -4  16   8    0.33    0.24
   4 -16   8    0.27    0.22
   4  16  -8    0.62    0.25
   5  16   8   -0.01    0.25
   5 -16   8    0.30    0.28
  -5  16   8    0.27    0.23
   5  16  -8    0.00    0.28
   6  16   8    2.57    0.36
   6  16  -8    2.60    0.40
  -6  16   8    2.06    0.35
   6 -16   8    2.21    0.38
   7  16   8    0.72    0.31
   7 -16   8    0.55    0.30
   7  16  -8    0.59    0.36
  -7  16   8    0.60    0.29
   7  16  -8    0.23    0.34
   8  16   8   -0.05    0.30
  -8  16   8   -0.08    0.34
   0  16  -9   -0.03    0.19
   0  16   9   -0.09    0.18
   1  16   9    0.43    0.21
  -1  16  -9    0.29    0.22
  -1  16   9    0.50    0.19
   1  16  -9    0.97    0.24
   2  16   9    0.35    0.23
  -2  16   9    0.51    0.24
   2  16  -9    0.20    0.22
  -2  16   9    0.25    0.17
   2 -16   9    0.43    0.25
   3  16   9    9.58    0.56
  -3  16   9    8.81    0.55
   3  16  -9   10.05    0.62
   3 -16   9    9.07    0.57
   4  16   9    1.61    0.29
   4 -16   9    2.57    0.35
  -4  16   9    1.66    0.28
   4  16  -9    2.24    0.35
   5  16   9    1.05    0.27
   5 -16   9    0.70    0.27
  -5  16   9    0.82    0.28
   5  16  -9    0.94    0.29
   6  16   9    1.70    0.30
   6  16  -9    2.64    0.38
  -6  16   9    2.07    0.36
   6 -16   9    1.87    0.37
   7  16   9    6.87    0.57
   7 -16   9    7.45    0.60
  -7  16   9    7.22    0.56
   7  16  -9    8.11    0.66
   8  16   9    0.21    0.33
  -8  16   9    0.20    0.36
   0  16 -10    7.56    0.49
   0  16  10    6.30    0.43
  -1  16 -10    2.96    0.36
   1  16  10    2.73    0.30
  -1  16  10    2.87    0.27
   1  16 -10    3.22    0.37
   2  16  10    8.19    0.49
  -2  16  10    8.70    0.46
   2 -16  10    8.97    0.58
  -2  16  10    8.34    0.53
   2  16 -10    8.78    0.55
   3  16  10    0.46    0.21
  -3  16  10    0.37    0.21
   3  16 -10    0.31    0.24
   3 -16  10    0.69    0.28
   4  16  10    1.50    0.26
   4 -16  10    1.72    0.34
   4  16 -10    1.73    0.32
  -4  16  10    1.77    0.31
   5  16  10    0.12    0.27
  -5  16  10    0.16    0.27
   5 -16  10    0.20    0.25
   5  16 -10    0.51    0.28
   6  16  10    0.41    0.30
   6  16 -10    0.12    0.33
  -6  16  10    0.79    0.32
   6 -16  10    0.67    0.34
   7  16  10    0.16    0.31
  -7  16  10    0.06    0.34
   7 -16  10    0.18    0.30
   7  16 -10   -0.10    0.35
   8  16  10   -0.40    0.33
  -8  16  10    0.63    0.38
   0  16 -11   -0.01    0.25
   0  16  11    0.22    0.21
   1  16  11    0.96    0.25
  -1  16 -11    0.76    0.29
  -1  16  11    0.76    0.21
  -1  16  11    0.89    0.25
   1  16 -11    1.08    0.26
   2  16  11    3.42    0.35
  -2  16 -11    3.77    0.39
   2  16 -11    3.60    0.37
   2 -16  11    3.98    0.38
  -2  16  11    3.65    0.34
  -2  16  11    3.30    0.30
   3  16  11    7.09    0.49
   3 -16  11    6.91    0.50
  -3  16  11    5.80    0.44
   3  16 -11    6.45    0.50
   4  16  11    0.42    0.23
   4  16 -11    0.61    0.31
  -4  16  11    0.83    0.29
   4 -16  11    0.55    0.30
   5  16  11    0.89    0.30
   5  16 -11    1.06    0.31
   5 -16  11    0.94    0.30
  -5  16  11    1.17    0.28
   6  16  11    1.60    0.35
  -6  16  11    1.69    0.37
   6  16 -11    1.50    0.40
   6 -16  11    1.85    0.40
   7  16  11    4.70    0.47
  -7  16  11    4.93    0.50
   0  16  12   27.55    1.18
   0  16 -12   28.49    1.29
  -1  16 -12    1.65    0.31
   1  16  12    1.57    0.27
  -1  16  12    1.82    0.25
   1  16 -12    1.70    0.30
  -1  16  12    1.69    0.28
   2  16  12    6.03    0.43
  -2  16 -12    6.75    0.55
  -2  16  12    5.86    0.42
   2  16 -12    6.31    0.54
  -2  16  12    6.82    0.48
   3  16  12    4.77    0.40
   3 -16  12    3.75    0.43
  -3  16  12    3.64    0.36
   3  16 -12    4.47    0.43
   4  16  12    0.05    0.23
   4 -16  12    0.46    0.30
  -4  16  12    0.02    0.28
   4  16 -12    0.07    0.26
   5  16  12   -0.07    0.28
   5  16 -12    0.52    0.34
  -5  16  12    0.13    0.29
   5 -16  12   -0.15    0.30
   6  16  12    2.23    0.37
  -6  16  12    1.58    0.37
   6 -16  12    1.66    0.40
   6  16 -12    1.51    0.41
   7  16  12    1.50    0.37
  -7  16  12    1.60    0.41
   0  16  13   -0.27    0.21
   0  16 -13    0.20    0.28
  -1  16 -13    0.17    0.25
   1  16  13    0.40    0.24
   1  16 -13   -0.03    0.24
  -1  16  13   -0.12    0.20
  -1  16  13    0.18    0.27
  -2  16 -13    0.77    0.29
   2  16  13    0.45    0.26
   2  16 -13    0.53    0.27
  -2  16  13    0.45    0.28
  -2  16  13    0.25    0.20
   3  16  13    6.18    0.51
  -3  16  13    7.61    0.53
   3  16 -13    7.38    0.55
   3 -16  13    7.84    0.59
   4  16  13    1.00    0.31
   4 -16  13    1.41    0.31
  -4  16  13    1.30    0.32
   4  16 -13    1.57    0.33
   5  16  13    6.61    0.55
  -5  16  13    6.33    0.53
   5 -16  13    6.75    0.59
   5  16 -13    6.75    0.57
   6  16  13    8.66    0.60
   6 -16  13    8.58    0.67
  -6  16  13    9.88    0.68
   7  16  13    4.09    0.44
  -7  16  13    4.51    0.52
   0  16 -14    0.58    0.28
   0  16  14    0.39    0.24
   1  16  14    9.35    0.56
  -1  16 -14    8.89    0.60
  -1  16  14    8.40    0.57
  -1  16  14    8.83    0.52
   1  16 -14    8.26    0.63
  -2  16 -14    3.41    0.44
   2  16  14    2.81    0.33
   2  16 -14    3.13    0.39
  -2  16  14    3.70    0.36
   3  16  14   12.06    0.68
  -3  16  14   13.35    0.72
   3  16 -14   13.44    0.81
   3 -16  14   12.76    0.75
   4  16  14    0.83    0.31
  -4  16  14    0.27    0.30
   4  16 -14    0.80    0.31
   4 -16  14    0.75    0.34
   5  16  14    0.07    0.31
   5  16 -14    0.21    0.30
  -5  16  14    0.18    0.32
   5 -16  14    0.10    0.33
   6  16  14    0.58    0.34
  -6  16  14    0.54    0.32
   0  16  15    0.40    0.25
   0  16  15    0.42    0.31
   0  16 -15    0.14    0.28
  -1  16 -15    2.69    0.42
   1  16  15    1.55    0.30
  -1  16  15    1.63    0.33
  -1  16  15    1.79    0.28
   1  16 -15    2.75    0.41
   2  16  15    0.74    0.28
  -2  16 -15    0.37    0.31
   2  16 -15    0.28    0.28
  -2  16  15    0.31    0.24
  -3  16 -15    1.27    0.37
   3  16  15    1.58    0.34
  -3  16  15    1.61    0.34
   3 -16  15    1.43    0.34
   3  16 -15    1.18    0.33
   4  16  15    8.12    0.60
   4  16 -15    7.43    0.66
   4 -16  15    7.82    0.66
  -4  16  15    8.05    0.60
   5  16  15    1.30    0.36
  -5  16  15    0.91    0.32
   6  16  15    2.35    0.41
  -6  16  15    2.52    0.45
   0  16  16    6.59    0.54
   0  16 -16    6.25    0.56
   0  16  16    6.39    0.49
  -1  16 -16    2.78    0.43
   1  16  16    2.90    0.35
   1  16 -16    2.20    0.41
  -1  16  16    2.40    0.32
  -1  16  16    2.22    0.31
  -2  16 -16    0.83    0.37
   2  16  16    0.66    0.30
  -2  16  16    0.70    0.30
   2  16 -16    0.30    0.30
   3  16  16    0.74    0.31
  -3  16 -16    0.84    0.36
   3  16 -16    0.87    0.34
  -3  16  16    0.89    0.33
   4  16  16    0.50    0.31
  -4  16  16    0.37    0.34
   4  16 -16    0.56    0.33
   4 -16  16    0.51    0.37
   5  16  16   -0.13    0.32
  -5  16  16   -0.06    0.29
   0  16 -17   -0.29    0.29
   0  16  17    0.18    0.30
   0  16  17    0.07    0.26
  -1  16 -17    0.48    0.32
   1  16  17    0.66    0.30
  -1  16  17    0.69    0.27
   1  16 -17    0.90    0.33
  -1  16  17    0.65    0.32
   2  16  17    2.37    0.36
  -2  16 -17    2.31    0.40
   2  16 -17    1.69    0.42
  -2  16  17    2.20    0.33
  -3  16 -17    0.31    0.35
   3  16  17    0.48    0.31
   3  16 -17    0.38    0.32
  -3  16  17    0.34    0.33
   4  16  17    0.59    0.29
  -4  16  17    0.02    0.33
   0  16  18    1.53    0.36
   0  16 -18    1.27    0.36
   0  16  18    1.26    0.32
   1  16  18    1.80    0.36
   1  16  18    2.12    0.39
  -1  16 -18    2.02    0.44
   1  16 -18    1.89    0.43
  -1  16  18    1.99    0.34
  -1  16  18    1.83    0.35
   2  16  18    2.01    0.34
  -2  16  18    2.33    0.38
   3  16  18    6.87    0.56
  -3  16  18    7.32    0.60
   0  16  19    0.09    0.30
   0  16  19   -0.22    0.33
   1  16  19    0.83    0.33
   1  16  19    1.20    0.36
  -1  16  19    0.04    0.31
  -1  16  19    0.38    0.30
   2  16  19    7.20    0.55
  -2  16  19    6.60    0.55
   0  17   0    0.17    0.19
   0  17   0    0.48    0.17
   1  17   0    0.12    0.15
  -1  17   0    0.43    0.19
   1  17   0   -0.04    0.16
  -1  17   0    0.35    0.17
  -2  17   0    2.53    0.26
   2  17   0    2.70    0.30
   2  17   0    2.45    0.27
   2 -17   0    2.69    0.26
   3 -17   0    0.26    0.18
   3  17   0    0.20    0.23
   3  17   0   -0.05    0.17
  -3  17   0    0.21    0.18
   4  17   0   24.96    1.08
  -4  17   0   23.85    1.03
   4 -17   0   23.71    1.10
   4  17   0   25.28    1.11
   5 -17   0    0.40    0.24
   5  17   0    0.47    0.24
  -5  17   0    0.75    0.23
   5  17   0    0.92    0.29
   6 -17   0    1.31    0.29
  -6  17   0    1.38    0.27
   6  17   0    1.53    0.30
   6  17   0    1.30    0.31
  -7  17   0    0.04    0.28
   7  17   0    0.05    0.27
   7  17   0   -0.23    0.27
   7 -17   0    0.11    0.27
   8 -17   0   11.23    0.75
   8  17   0   11.00    0.70
   8  17   0   10.61    0.72
   0  17   1   12.51    0.59
   0  17  -1   11.61    0.60
   0  17  -1   11.67    0.59
   0  17   1   11.87    0.59
   1  17   1    0.54    0.17
  -1  17  -1    0.57    0.18
  -1  17  -1    0.41    0.19
   1  17   1    0.64    0.20
  -1  17   1    0.54    0.16
  -1  17   1    0.37    0.18
   1  17  -1    0.45    0.22
   1  17  -1    0.42    0.17
   2 -17  -1    1.60    0.22
   2  17   1    1.37    0.23
   2  17   1    1.36    0.21
  -2  17  -1    1.38    0.23
   2  17  -1    1.49    0.27
   2  17  -1    1.46    0.23
  -2  17   1    1.65    0.21
   2 -17   1    2.03    0.24
  -3  17  -1    1.62    0.22
  -3  17  -1    1.65    0.23
   3  17   1    1.08    0.23
   3 -17  -1    1.09    0.22
   3  17   1    1.17    0.25
  -3  17   1    1.61    0.24
   3 -17   1    1.19    0.23
   3  17  -1    1.68    0.28
   3  17  -1    1.30    0.23
   4  17   1    0.17    0.19
  -4  17  -1    0.09    0.17
   4  17   1    0.35    0.25
   4 -17  -1    0.22    0.19
  -4  17   1    0.16    0.19
   4  17  -1    0.22    0.25
   4  17  -1    0.01    0.20
   4 -17   1    0.02    0.20
  -5  17  -1   25.51    1.11
   5  17   1   26.06    1.19
   5  17   1   28.09    1.18
   5 -17  -1   27.64    1.20
   5  17  -1   26.08    1.20
   5 -17   1   25.04    1.20
  -5  17   1   25.72    1.12
   5  17  -1   26.49    1.18
   6  17   1    1.68    0.33
   6 -17  -1    1.35    0.31
   6  17   1    1.38    0.32
   6 -17   1    1.25    0.29
   6  17  -1    1.46    0.33
   6  17  -1    1.44    0.30
  -6  17   1    1.07    0.27
   7  17   1   14.36    0.79
   7  17  -1   15.53    0.83
   7 -17   1   14.51    0.84
  -7  17   1   13.58    0.75
   7  17  -1   14.53    0.80
   8  17   1    0.61    0.32
   8  17  -1    0.76    0.34
   8  17  -1    0.56    0.32
   8 -17   1    0.42    0.34
  -8  17   1    0.83    0.32
   0  17   2    0.32    0.18
   0  17  -2    0.07    0.17
  -1  17  -2    7.16    0.44
   1  17   2    7.63    0.44
   1  17  -2    6.39    0.43
  -1  17   2    7.29    0.41
   2  17   2   12.73    0.65
   2  17  -2   12.89    0.66
   2 -17   2   12.97    0.66
  -2  17   2   13.08    0.61
   2  17  -2   13.19    0.67
  -3  17  -2    5.34    0.36
   3  17   2    5.16    0.42
   3  17  -2    5.00    0.40
   3 -17   2    4.74    0.39
   3  17  -2    5.51    0.40
  -3  17   2    5.28    0.38
  -4  17  -2   41.33    1.68
   4  17   2   41.80    1.74
  -4  17   2   40.75    1.70
   4  17  -2   43.84    1.76
   4 -17   2   43.99    1.81
   4  17  -2   43.58    1.81
   5  17   2    1.11    0.29
   5 -17   2    1.04    0.26
  -5  17   2    0.87    0.25
   5  17  -2    1.18    0.31
   5  17  -2    0.98    0.26
   6  17   2    0.80    0.26
   6 -17   2    0.81    0.27
   6  17  -2    0.78    0.30
   6  17  -2    0.70    0.30
  -6  17   2    1.09    0.27
   7  17   2    0.61    0.30
   7  17  -2    0.63    0.31
   7  17  -2    0.57    0.31
   7 -17   2    0.76    0.32
  -7  17   2    0.67    0.27
   8  17   2    7.72    0.63
   8 -17   2    6.45    0.61
   8  17  -2    7.12    0.62
   8  17  -2    7.01    0.57
  -8  17   2    7.39    0.56
   0  17   3   53.16    2.07
   0  17  -3   51.95    2.16
   1  17   3   18.23    0.81
  -1  17  -3   18.06    0.84
   1  17  -3   18.01    0.84
  -1  17   3   17.21    0.78
   2  17   3   11.49    0.60
   2  17  -3   11.76    0.63
  -2  17   3   12.21    0.57
   2 -17   3   11.95    0.63
   3  17   3    0.02    0.22
  -3  17  -3    0.14    0.17
   3  17  -3    0.31    0.21
   3  17  -3    0.27    0.25
  -3  17   3    0.14    0.17
   3 -17   3    0.18    0.19
   4  17   3   -0.17    0.23
   4 -17   3    0.03    0.21
   4  17  -3    0.24    0.23
  -4  17   3    0.33    0.21
   4  17  -3   -0.20    0.26
   5  17   3   23.32    1.07
   5  17  -3   23.02    1.10
   5 -17   3   23.63    1.11
   5  17  -3   24.72    1.11
  -5  17   3   24.19    1.05
   6  17   3    3.06    0.35
   6 -17   3    3.47    0.39
  -6  17   3    3.41    0.35
   6  17  -3    3.19    0.40
   6  17  -3    2.98    0.39
   7  17   3    3.59    0.41
  -7  17   3    3.49    0.39
   7  17  -3    3.31    0.40
   7  17  -3    3.10    0.39
   7 -17   3    3.93    0.44
   8  17   3    1.08    0.35
   8  17  -3    1.34    0.33
   8 -17   3    1.51    0.40
  -8  17   3    1.72    0.36
   8  17  -3    1.55    0.38
   0  17  -4    0.25    0.20
   0  17   4    0.09    0.15
  -1  17  -4    0.66    0.22
   1  17   4    0.48    0.20
   1  17  -4    0.36    0.19
  -1  17   4    0.27    0.17
   2  17   4    7.53    0.49
   2  17  -4    7.58    0.50
  -2  17   4    8.89    0.49
  -2  17   4    8.38    0.44
   2 -17   4    8.62    0.51
   3  17   4   10.67    0.59
   3  17  -4   10.96    0.60
  -3  17   4   10.27    0.57
   3 -17   4   10.92    0.61
   4  17   4    2.23    0.31
   4  17  -4    2.13    0.36
   4  17  -4    2.17    0.32
   4 -17   4    3.04    0.33
  -4  17   4    2.44    0.29
   5  17   4   22.65    1.01
  -5  17   4   21.04    0.97
   5  17  -4   20.66    1.05
   5 -17   4   22.62    1.05
   5  17  -4   20.27    1.02
   6  17   4   -0.05    0.24
  -6  17   4    0.46    0.26
   6  17  -4    0.70    0.30
   6  17  -4    0.06    0.25
   6 -17   4    0.52    0.28
   7  17   4    7.59    0.58
   7  17  -4    7.27    0.62
  -7  17   4    7.07    0.56
   7  17  -4    8.75    0.60
   7 -17   4    7.94    0.62
   8  17   4   10.44    0.69
  -8  17   4   10.59    0.68
   8 -17   4   10.47    0.72
   8  17  -4    9.96    0.68
   8  17  -4   10.15    0.74
   0  17   5    0.01    0.18
   0  17  -5   -0.11    0.19
  -1  17  -5   10.82    0.60
   1  17   5   10.27    0.57
   1  17  -5   11.36    0.61
  -1  17   5   11.10    0.54
   2  17   5   35.64    1.50
   2  17  -5   37.02    1.58
  -2  17   5   33.90    1.48
  -2  17   5   36.87    1.46
   2 -17   5   39.52    1.59
   3  17   5   16.68    0.80
   3  17  -5   17.69    0.85
  -3  17   5   16.47    0.78
   3 -17   5   15.37    0.82
   4  17   5    0.88    0.24
  -4  17   5    1.07    0.25
   4  17  -5    0.95    0.28
   4 -17   5    0.88    0.23
   5  17   5    1.62    0.33
   5 -17   5    1.91    0.33
   5  17  -5    2.17    0.34
   5  17  -5    1.89    0.37
  -5  17   5    2.53    0.31
   6  17   5   27.79    1.24
   6  17  -5   27.38    1.26
   6  17  -5   26.31    1.30
   6 -17   5   27.93    1.31
  -6  17   5   28.04    1.22
   7  17   5    0.53    0.27
  -7  17   5    0.73    0.32
   7  17  -5    0.23    0.33
   7  17  -5    0.45    0.31
   7 -17   5    0.64    0.33
   8  17   5   -0.14    0.31
  -8  17   5    0.37    0.32
   8 -17   5    0.30    0.35
   8  17  -5    0.77    0.34
   8  17  -5    0.42    0.31
   0  17  -6    0.06    0.20
   0  17   6   -0.07    0.18
  -1  17  -6   31.40    1.39
   1  17   6   31.78    1.31
  -1  17   6   32.06    1.30
   1  17  -6   31.71    1.38
   2  17   6    0.40    0.20
  -2  17   6    0.27    0.23
  -2  17   6    0.81    0.18
   2 -17   6    0.70    0.24
   2  17  -6    0.62    0.21
   3  17   6    2.96    0.33
  -3  17   6    3.17    0.33
   3  17  -6    3.55    0.37
   3 -17   6    3.29    0.33
   4  17   6    0.40    0.27
  -4  17   6    0.46    0.21
   4  17  -6    0.89    0.29
   4 -17   6    0.79    0.23
   5  17   6   12.89    0.72
   5 -17   6   12.03    0.70
   5  17  -6   13.53    0.75
  -5  17   6   12.10    0.65
   6  17   6    1.09    0.32
   6  17  -6    1.56    0.35
   6  17  -6    1.64    0.35
  -6  17   6    1.25    0.31
   6 -17   6    0.80    0.28
   7  17   6    3.26    0.41
   7 -17   6    3.48    0.46
  -7  17   6    3.68    0.42
   7  17  -6    3.13    0.45
   7  17  -6    3.24    0.41
   8  17   6    0.47    0.34
   8  17  -6    1.46    0.42
   8 -17   6    0.86    0.39
  -8  17   6    0.05    0.33
   0  17  -7   32.93    1.45
   0  17   7   33.73    1.37
   1  17   7    2.31    0.28
  -1  17  -7    2.63    0.30
   1  17  -7    2.29    0.31
  -1  17   7    2.07    0.24
   2  17   7   45.48    1.84
   2  17  -7   44.11    1.92
  -2  17   7   46.22    1.83
   2 -17   7   47.35    1.94
  -2  17   7   44.24    1.78
   3  17   7    1.31    0.24
  -3  17   7    0.79    0.26
   3 -17   7    1.38    0.25
   3  17  -7    1.06    0.26
   4  17   7    0.19    0.22
  -4  17   7    0.24    0.25
   4 -17   7    0.05    0.25
   4  17  -7    0.32    0.27
   5  17   7    1.38    0.29
   5 -17   7    2.24    0.35
  -5  17   7    2.11    0.32
   5  17  -7    1.18    0.33
   6  17   7    0.24    0.29
   6 -17   7    0.22    0.30
  -6  17   7    0.00    0.28
   6  17  -7    0.04    0.26
   7  17   7    1.13    0.33
   7 -17   7    1.45    0.34
   7  17  -7    0.99    0.37
  -7  17   7    1.64    0.37
   7  17  -7    1.32    0.35
   8  17   7    5.19    0.51
  -8  17   7    5.91    0.54
   0  17  -8    0.13    0.23
   0  17   8   -0.06    0.19
   1  17   8   10.60    0.57
  -1  17  -8   11.39    0.66
   1  17  -8   11.87    0.66
  -1  17   8   11.74    0.57
   2  17   8    1.96    0.29
   2 -17   8    2.18    0.29
  -2  17   8    1.74    0.26
   2  17  -8    1.97    0.31
  -2  17   8    2.15    0.24
   3  17   8    3.76    0.36
   3  17  -8    3.33    0.36
   3 -17   8    3.55    0.36
  -3  17   8    3.75    0.33
   4  17   8    0.57    0.28
   4  17  -8    1.14    0.28
  -4  17   8    0.69    0.27
   4 -17   8    0.91    0.26
   5  17   8    4.53    0.41
  -5  17   8    4.55    0.42
   5 -17   8    5.23    0.48
   5  17  -8    4.78    0.48
   6  17   8    7.05    0.57
  -6  17   8    7.32    0.57
   6 -17   8    7.80    0.61
   6  17  -8    7.49    0.58
   7  17   8    3.68    0.43
   7  17  -8    3.43    0.44
   7 -17   8    3.81    0.49
   7  17  -8    3.91    0.47
  -7  17   8    3.71    0.45
   8  17   8    0.09    0.33
  -8  17   8    0.65    0.37
   0  17   9   12.12    0.63
   0  17  -9   13.18    0.69
  -1  17  -9    5.42    0.44
   1  17   9    3.52    0.34
  -1  17   9    4.39    0.34
   1  17  -9    4.02    0.40
   2  17   9   51.34    2.09
   2  17  -9   53.06    2.22
   2 -17   9   52.15    2.22
  -2  17   9   53.35    2.06
  -2  17   9   52.69    2.10
   3  17   9    7.36    0.50
  -3  17   9    6.60    0.48
   3  17  -9    6.49    0.50
   3 -17   9    7.16    0.53
   4  17   9   11.63    0.65
  -4  17   9   10.81    0.64
   4  17  -9   10.47    0.66
   4 -17   9   11.07    0.69
   5  17   9    0.41    0.29
   5 -17   9    0.41    0.26
  -5  17   9    0.52    0.29
   5  17  -9    0.39    0.28
   6  17   9   -0.07    0.24
  -6  17   9    0.11    0.30
   6  17  -9    0.24    0.34
   6 -17   9    0.18    0.27
   7  17   9    0.47    0.31
  -7  17   9    0.53    0.35
   7 -17   9    0.39    0.36
   7  17  -9    0.60    0.38
   8  17   9   -0.43    0.33
  -8  17   9    0.20    0.37
   0  17  10   -0.22    0.20
   0  17 -10    0.07    0.22
   1  17  10    8.31    0.49
  -1  17 -10    9.64    0.57
  -1  17  10    9.04    0.50
   1  17 -10    8.28    0.55
  -2  17 -10   16.26    0.85
   2  17  10   16.82    0.80
  -2  17  10   16.85    0.75
   2 -17  10   16.16    0.87
  -2  17  10   15.40    0.80
   2  17 -10   17.82    0.89
   3  17  10   18.63    0.89
   3  17 -10   19.59    0.98
   3 -17  10   18.49    0.96
  -3  17  10   18.71    0.89
   4  17  10    5.34    0.45
   4 -17  10    6.05    0.49
   4  17 -10    5.78    0.50
  -4  17  10    5.47    0.44
   5  17  10    7.72    0.57
   5 -17  10    8.30    0.63
   5  17 -10    7.88    0.59
  -5  17  10    8.22    0.58
   6  17  10    2.43    0.38
   6 -17  10    2.48    0.38
   6  17 -10    2.17    0.39
  -6  17  10    2.28    0.39
   7  17  10    0.00    0.32
  -7  17  10    0.10    0.34
   0  17 -11   16.04    0.83
   0  17  11   16.04    0.76
  -1  17 -11   22.22    1.06
   1  17  11   21.19    0.96
  -1  17  11   20.85    0.96
   1  17 -11   21.95    1.06
  -1  17  11   20.41    0.93
   2  17  11    8.56    0.55
  -2  17 -11    9.27    0.60
   2  17 -11   10.10    0.60
  -2  17  11    8.11    0.50
  -2  17  11    9.46    0.57
   3  17  11    4.83    0.41
  -3  17  11    4.89    0.42
   3 -17  11    4.92    0.45
   3  17 -11    4.67    0.47
   4  17  11   21.77    1.02
  -4  17  11   21.94    1.02
   4 -17  11   21.35    1.09
   4  17 -11   21.42    1.11
   5  17  11    4.66    0.45
   5 -17  11    4.30    0.48
  -5  17  11    4.16    0.43
   5  17 -11    3.64    0.44
   6  17  11    0.15    0.27
   6  17 -11    0.50    0.32
  -6  17  11    0.27    0.33
   6 -17  11    0.28    0.29
   7  17  11    0.27    0.33
  -7  17  11    0.16    0.36
   0  17  12    0.02    0.22
   0  17 -12    0.03    0.28
   1  17  12    2.01    0.30
  -1  17 -12    2.05    0.35
  -1  17  12    1.84    0.26
   1  17 -12    1.87    0.35
  -1  17  12    2.07    0.30
  -2  17 -12    1.14    0.30
   2  17  12    0.76    0.28
   2  17 -12    1.36    0.34
  -2  17  12    0.52    0.28
   3  17  12   19.35    0.92
   3  17 -12   20.04    1.04
  -3  17  12   18.71    0.94
   3 -17  12   20.92    1.03
   4  17  12    4.28    0.43
  -4  17  12    3.88    0.42
   4 -17  12    4.18    0.47
   4  17 -12    4.20    0.45
   5  17  12    0.34    0.27
   5  17 -12    0.89    0.36
  -5  17  12    0.45    0.28
   5 -17  12    0.71    0.35
   6  17  12    2.03    0.38
   6 -17  12    1.77    0.39
  -6  17  12    2.62    0.41
   7  17  12    2.20    0.41
  -7  17  12    1.86    0.39
   0  17  13   20.50    0.96
   0  17 -13   22.10    1.06
   1  17  13    6.39    0.47
  -1  17 -13    5.57    0.49
  -1  17  13    5.70    0.46
   1  17 -13    5.85    0.51
  -1  17  13    5.47    0.42
  -2  17 -13    2.47    0.37
   2  17  13    1.76    0.32
   2  17 -13    2.39    0.36
  -2  17  13    2.09    0.34
   3  17  13    0.01    0.27
  -3  17  13   -0.22    0.28
   3 -17  13    0.22    0.26
   3  17 -13    0.11    0.32
   4  17  13   22.08    1.03
   4  17 -13   21.63    1.10
   4 -17  13   21.74    1.09
  -4  17  13   20.52    1.00
   5  17  13    4.68    0.47
   5  17 -13    4.68    0.49
   5 -17  13    4.60    0.51
  -5  17  13    4.67    0.47
   6  17  13    2.17    0.39
  -6  17  13    1.75    0.41
   0  17 -14    0.55    0.33
   0  17  14    0.04    0.23
  -1  17 -14   12.62    0.74
   1  17  14   13.10    0.69
   1  17 -14   12.87    0.78
  -1  17  14   11.90    0.64
  -1  17  14   11.90    0.67
  -2  17 -14    0.59    0.35
   2  17  14    0.19    0.27
  -2  17  14    0.21    0.28
   2  17 -14    0.35    0.33
  -3  17 -14   12.48    0.75
   3  17  14   11.37    0.70
   3 -17  14   11.80    0.76
  -3  17  14   11.93    0.70
   3  17 -14   12.07    0.75
   4  17  14    3.17    0.40
   4 -17  14    3.26    0.41
  -4  17  14    2.71    0.37
   4  17 -14    3.23    0.43
   5  17  14    1.75    0.38
  -5  17  14    1.88    0.35
   6  17  14   -0.05    0.34
  -6  17  14    0.53    0.37
   0  17  15   36.29    1.50
   0  17 -15   36.51    1.64
   0  17  15   33.99    1.51
   1  17  15    1.02    0.29
  -1  17 -15    1.34    0.33
  -1  17  15    1.52    0.28
  -1  17  15    1.32    0.33
   1  17 -15    1.20    0.32
   2  17  15    1.58    0.33
  -2  17 -15    1.75    0.37
   2  17 -15    1.69    0.39
  -2  17  15    1.26    0.33
  -3  17 -15    0.86    0.41
   3  17  15    0.60    0.27
   3  17 -15    0.56    0.37
  -3  17  15    0.24    0.31
   4  17  15   11.81    0.69
   4  17 -15   11.65    0.81
   4 -17  15   11.54    0.75
  -4  17  15   11.33    0.72
   5  17  15    1.11    0.32
  -5  17  15    1.05    0.38
   0  17  16    0.05    0.27
   0  17 -16    0.22    0.30
   0  17  16    0.02    0.31
  -1  17 -16    0.98    0.38
   1  17  16    0.83    0.26
  -1  17  16    1.06    0.34
   1  17 -16    1.14    0.38
  -1  17  16    0.93    0.28
   2  17  16    1.86    0.34
  -2  17 -16    1.40    0.41
   2  17 -16    1.37    0.39
  -2  17  16    1.38    0.34
  -3  17 -16   11.57    0.84
   3  17  16   12.47    0.74
  -3  17  16   12.42    0.74
   3  17 -16   13.17    0.85
   4  17  16    0.19    0.32
  -4  17  16    0.31    0.34
   5  17  16    4.54    0.46
  -5  17  16    4.68    0.51
   0  17  17   10.93    0.66
   0  17  17   11.33    0.70
   0  17 -17   10.83    0.74
   1  17  17    1.45    0.33
  -1  17 -17    1.68    0.42
  -1  17  17    1.68    0.36
  -1  17  17    1.52    0.33
   1  17 -17    1.61    0.37
   2  17  17    0.17    0.26
  -2  17  17    0.19    0.31
   3  17  17   13.63    0.79
  -3  17  17   12.95    0.78
   4  17  17    0.53    0.35
  -4  17  17    0.70    0.37
   0  17  18   -0.17    0.32
   0  17  18    0.37    0.30
   1  17  18    1.39    0.37
   1  17  18    1.37    0.35
  -1  17  18    1.48    0.36
  -1  17  18    1.17    0.32
   2  17  18   17.06    0.91
  -2  17  18   17.08    0.90
   3  17  18    1.00    0.35
  -3  17  18    0.33    0.35
   0  17  19    0.01    0.33
   0  17  19    0.38    0.32
   1  17  19    0.35    0.35
   1  17  19    0.46    0.32
  -1  17  19   -0.04    0.29
  -1  17  19    0.00    0.32
   0  18   0    0.73    0.20
   0  18   0    0.31    0.20
  -1  18   0    0.22    0.19
   1  18   0    0.11    0.22
   1  18   0    0.38    0.17
  -1  18   0    0.43    0.17
   2 -18   0  121.36    4.70
  -2  18   0  115.02    4.48
   2  18   0  115.70    4.70
   2  18   0  121.14    4.53
  -3  18   0    0.05    0.19
   3  18   0    0.09    0.18
   3  18   0   -0.05    0.19
   3 -18   0    0.09    0.18
   4  18   0    0.62    0.23
   4  18   0    0.54    0.27
   4 -18   0    0.96    0.24
  -4  18   0    1.04    0.22
  -5  18   0    0.37    0.22
   5  18   0    0.02    0.28
   5  18   0    0.66    0.25
   5 -18   0    0.42    0.24
  -6  18   0    3.88    0.38
   6  18   0    3.18    0.39
   6 -18   0    4.42    0.42
   6  18   0    3.15    0.37
   7  18   0    0.32    0.31
   8  18   0    0.61    0.35
   0  18  -1    0.22    0.17
   0  18   1    0.09    0.19
   0  18  -1   -0.17    0.20
  -1  18  -1   45.29    1.88
   1  18   1   45.51    1.83
  -1  18  -1   46.00    1.82
   1  18  -1   43.76    1.83
  -1  18   1   46.96    1.81
   1  18  -1   45.43    1.89
  -2  18  -1   -0.46    0.20
   2  18   1   -0.26    0.22
   2  18  -1    0.16    0.19
   2 -18   1    0.19    0.19
  -2  18   1   -0.03    0.17
   2  18  -1   -0.16    0.24
  -3  18  -1   17.04    0.75
   3  18   1   15.92    0.80
   3 -18   1   16.57    0.80
   3  18  -1   16.29    0.80
   3  18  -1   15.48    0.81
  -3  18   1   16.29    0.76
   4  18   1    2.24    0.34
  -4  18  -1    2.39    0.27
   4 -18   1    2.71    0.31
   4  18  -1    2.57    0.32
  -4  18   1    2.43    0.28
   4  18  -1    2.48    0.31
   5  18   1   51.59    2.04
  -5  18  -1   48.00    1.97
   5  18  -1   48.75    2.10
   5 -18   1   52.31    2.12
   5  18  -1   49.53    2.04
  -5  18   1   48.02    1.98
   6  18   1   -0.19    0.28
  -6  18   1    0.10    0.24
   6 -18   1    0.38    0.27
   6  18  -1    0.12    0.29
   6  18  -1    0.48    0.28
   7  18   1    4.84    0.46
   7  18  -1    3.94    0.44
  -7  18   1    4.37    0.43
   7 -18   1    5.37    0.50
   7  18  -1    4.32    0.46
   8  18   1    5.37    0.51
   8 -18   1    5.73    0.57
   8  18  -1    5.40    0.51
   8  18  -1    4.74    0.51
   0  18  -2   30.93    1.36
   0  18   2   31.36    1.30
   0  18  -2   32.42    1.31
  -1  18  -2   23.69    1.06
   1  18   2   22.88    1.02
   1  18  -2   24.47    1.07
  -1  18   2   24.03    1.02
   1  18  -2   23.72    1.04
   2  18   2   61.19    2.45
  -2  18   2   62.35    2.40
   2  18  -2   61.60    2.46
   2 -18   2   63.15    2.54
   2  18  -2   61.58    2.54
   3  18   2    0.57    0.25
  -3  18  -2    0.65    0.20
   3  18  -2    0.54    0.22
   3 -18   2    0.56    0.22
   3  18  -2    0.35    0.26
  -3  18   2    0.49    0.22
   4  18   2   10.55    0.64
  -4  18  -2   10.54    0.55
   4  18  -2   12.23    0.64
   4 -18   2   10.81    0.63
   4  18  -2   10.96    0.65
  -4  18   2   10.68    0.58
   5  18   2    2.02    0.35
   5  18  -2    1.98    0.35
   5 -18   2    2.38    0.33
  -5  18   2    2.22    0.29
   5  18  -2    2.12    0.33
   6  18   2    9.69    0.65
   6  18  -2    9.62    0.65
   6  18  -2   10.00    0.67
  -6  18   2    9.98    0.60
   6 -18   2   10.73    0.66
   7  18   2    3.10    0.41
   7  18  -2    2.51    0.38
   7  18  -2    2.44    0.39
  -7  18   2    3.38    0.39
   7 -18   2    3.22    0.42
   8  18   2    0.41    0.34
   8  18  -2    0.85    0.35
  -8  18   2    1.16    0.35
   8  18  -2    0.87    0.36
   8 -18   2    0.90    0.37
   0  18   3    0.34    0.20
   0  18  -3    0.28    0.19
  -1  18  -3   25.59    1.17
   1  18   3   26.59    1.14
  -1  18   3   28.21    1.12
   1  18  -3   25.77    1.18
   2  18   3   18.92    0.89
   2 -18   3   19.80    0.92
   2  18  -3   19.60    0.91
  -2  18   3   18.82    0.84
   3  18   3    8.49    0.52
  -3  18   3    8.74    0.52
   3  18  -3    9.68    0.59
   3 -18   3    9.41    0.55
   3  18  -3    9.27    0.56
   4  18   3    4.03    0.39
   4  18  -3    5.03    0.43
   4  18  -3    5.48    0.46
   4 -18   3    4.21    0.39
  -4  18   3    4.65    0.39
   5  18   3   17.26    0.91
  -5  18   3   18.23    0.86
   5  18  -3   19.06    0.94
   5 -18   3   18.83    0.93
   5  18  -3   18.49    0.93
   6  18   3    0.22    0.29
   6  18  -3    0.69    0.31
  -6  18   3    1.42    0.30
   6  18  -3    0.87    0.31
   6 -18   3    0.54    0.29
   7  18   3    0.23    0.32
  -7  18   3    0.40    0.28
   7  18  -3   -0.09    0.29
   7 -18   3    0.28    0.31
   7  18  -3   -0.05    0.31
   8  18   3   25.57    1.24
   8  18  -3   26.29    1.28
   8 -18   3   25.29    1.30
   8  18  -3   24.77    1.21
  -8  18   3   25.51    1.19
   0  18   4    0.16    0.19
   0  18  -4    0.36    0.18
   1  18   4   25.78    1.11
  -1  18  -4   25.74    1.17
  -1  18   4   26.15    1.10
   1  18  -4   26.77    1.17
   2  18   4   14.99    0.74
   2 -18   4   15.88    0.78
   2  18  -4   14.13    0.76
  -2  18   4   15.63    0.69
  -2  18   4   14.71    0.73
   3  18   4    2.94    0.33
   3  18  -4    3.06    0.35
   3 -18   4    3.07    0.32
  -3  18   4    3.26    0.32
   4  18   4    8.62    0.58
   4  18  -4    8.86    0.58
   4 -18   4    9.03    0.58
   4  18  -4    9.02    0.57
  -4  18   4    9.78    0.54
   5  18   4    0.13    0.29
   5 -18   4    0.20    0.22
  -5  18   4    0.60    0.25
   5  18  -4    0.02    0.26
   5  18  -4    0.49    0.29
   6  18   4    0.08    0.29
   6  18  -4    0.16    0.30
   6 -18   4    0.92    0.31
  -6  18   4    0.77    0.29
   6  18  -4   -0.13    0.28
   7  18   4    7.96    0.61
   7  18  -4    7.98    0.61
  -7  18   4    8.32    0.59
   7 -18   4    7.80    0.63
   7  18  -4    7.08    0.63
   8  18   4    1.44    0.37
   8 -18   4    0.89    0.38
  -8  18   4    1.14    0.36
   8  18  -4    0.69    0.35
   8  18  -4    1.31    0.39
   0  18  -5    0.33    0.22
   0  18   5   -0.19    0.19
   1  18   5   15.26    0.75
  -1  18  -5   15.30    0.77
  -1  18   5   16.33    0.73
   1  18  -5   15.73    0.79
   2  18   5    0.60    0.21
   2  18  -5    0.53    0.24
  -2  18   5    0.39    0.18
   2 -18   5    0.60    0.24
  -2  18   5    0.65    0.21
   3  18   5    8.20    0.53
  -3  18   5    7.33    0.47
   3  18  -5    8.71    0.56
   3 -18   5    8.30    0.54
   4  18   5   27.66    1.20
   4 -18   5   26.13    1.26
  -4  18   5   27.50    1.18
   4  18  -5   28.06    1.27
   5  18   5    7.15    0.57
   5 -18   5    7.37    0.57
   5  18  -5    8.41    0.59
   5  18  -5    7.59    0.60
  -5  18   5    8.38    0.53
   6  18   5    0.16    0.30
   6  18  -5    0.17    0.31
   6  18  -5    0.04    0.30
   6 -18   5    0.32    0.25
  -6  18   5    0.01    0.27
   7  18   5    0.93    0.34
   7  18  -5    0.50    0.35
   7  18  -5    1.24    0.36
   7 -18   5    0.75    0.35
  -7  18   5    0.76    0.32
   8  18   5   11.26    0.75
  -8  18   5   11.00    0.73
   8  18  -5   11.87    0.74
   0  18  -6   96.01    3.83
   0  18   6   93.98    3.64
  -1  18  -6   18.79    0.91
   1  18   6   17.45    0.84
  -1  18   6   19.02    0.84
   1  18  -6   19.43    0.92
   2  18   6   17.11    0.83
   2 -18   6   18.35    0.90
  -2  18   6   18.37    0.85
  -2  18   6   17.62    0.80
   2  18  -6   18.45    0.90
   3  18   6    0.53    0.22
  -3  18   6    0.73    0.23
   3  18  -6    1.02    0.28
   3 -18   6    0.52    0.22
   4  18   6    9.68    0.63
   4 -18   6   10.83    0.66
  -4  18   6   11.00    0.61
   4  18  -6   11.29    0.68
   5  18   6   33.73    1.46
   5  18  -6   31.42    1.51
   5 -18   6   33.69    1.52
  -5  18   6   34.63    1.43
   6  18   6    7.70    0.59
  -6  18   6    7.70    0.52
   6  18  -6    8.05    0.62
   6  18  -6    7.26    0.56
   6 -18   6    7.29    0.60
   7  18   6   10.25    0.66
   7  18  -6   10.60    0.72
   7  18  -6   10.91    0.77
   7 -18   6   10.82    0.75
  -7  18   6   11.23    0.70
   8  18   6    2.09    0.41
  -8  18   6    2.30    0.42
   8  18  -6    2.67    0.42
   0  18   7    0.04    0.20
   0  18  -7    0.21    0.24
   1  18   7   50.92    2.08
  -1  18  -7   53.41    2.20
   1  18  -7   53.98    2.20
  -1  18   7   51.32    2.06
   2  18   7    0.67    0.25
   2 -18   7    0.74    0.26
  -2  18   7    0.86    0.27
  -2  18   7    0.36    0.19
   2  18  -7    0.62    0.23
   3  18   7   12.45    0.67
   3  18  -7   11.64    0.70
  -3  18   7   12.19    0.66
   3 -18   7   11.87    0.69
   4  18   7   33.40    1.39
  -4  18   7   32.45    1.36
   4  18  -7   32.20    1.47
   4 -18   7   30.07    1.45
   5  18   7    0.79    0.31
   5 -18   7    1.67    0.33
  -5  18   7    0.80    0.30
   5  18  -7    1.53    0.31
   6  18   7    2.53    0.36
   6 -18   7    2.41    0.40
   6  18  -7    2.82    0.44
   6  18  -7    3.36    0.43
  -6  18   7    3.29    0.37
   7  18   7   17.29    0.91
   7  18  -7   16.78    0.98
  -7  18   7   17.92    0.92
   7  18  -7   15.49    0.92
   7 -18   7   17.39    0.99
   8  18   7   35.87    1.59
  -8  18   7   36.04    1.60
   0  18  -8  104.36    4.06
   0  18   8   96.48    3.84
   1  18   8   11.78    0.64
  -1  18  -8   13.34    0.69
   1  18  -8   12.77    0.68
  -1  18   8   11.25    0.62
   2  18   8    3.95    0.38
  -2  18  -8    5.08    0.45
   2 -18   8    4.67    0.41
  -2  18   8    3.89    0.34
  -2  18   8    5.09    0.39
   2  18  -8    4.66    0.43
   3  18   8    0.11    0.25
   3 -18   8    0.11    0.25
  -3  18   8    0.16    0.25
   3  18  -8    0.18    0.27
   4  18   8    2.66    0.35
   4 -18   8    3.04    0.38
  -4  18   8    2.54    0.34
   4  18  -8    2.70    0.39
   5  18   8   22.40    1.09
   5 -18   8   22.10    1.14
   5  18  -8   24.61    1.17
  -5  18   8   23.47    1.08
   6  18   8    0.41    0.31
   6  18  -8    0.62    0.34
   6 -18   8    0.44    0.33
  -6  18   8    0.69    0.32
   7  18   8   19.51    1.00
   7  18  -8   18.49    1.02
  -7  18   8   19.53    0.98
   7  18  -8   19.35    1.07
   7 -18   8   19.49    1.07
   0  18   9   -0.05    0.21
   0  18  -9    0.03    0.25
  -1  18  -9    0.53    0.24
   1  18   9    0.21    0.23
  -1  18   9    0.09    0.20
   1  18  -9    0.24    0.23
   2  18   9    6.35    0.48
  -2  18  -9    6.54    0.50
  -2  18   9    6.77    0.46
   2  18  -9    6.45    0.50
   2 -18   9    7.57    0.54
  -2  18   9    6.74    0.42
   3  18   9    0.99    0.29
   3  18  -9    1.04    0.32
   3 -18   9    1.79    0.33
  -3  18   9    1.46    0.27
   4  18   9    7.65    0.55
  -4  18   9    7.08    0.49
   4 -18   9    7.05    0.53
   4  18  -9    6.70    0.54
   5  18   9    2.35    0.33
  -5  18   9    1.93    0.36
   5 -18   9    1.79    0.37
   5  18  -9    2.42    0.37
   6  18   9    5.92    0.49
  -6  18   9    5.82    0.51
   6  18  -9    5.29    0.54
   6 -18   9    4.98    0.50
   7  18   9    8.22    0.64
  -7  18   9    8.96    0.68
   7  18  -9    8.28    0.67
   0  18 -10    7.42    0.52
   0  18  10    7.24    0.47
   1  18  10    0.96    0.23
  -1  18 -10    0.78    0.30
  -1  18  10    0.54    0.22
   1  18 -10    1.01    0.31
  -2  18 -10   10.32    0.70
   2  18  10   11.65    0.65
   2  18 -10   12.57    0.69
  -2  18  10   11.69    0.66
   3  18  10    8.00    0.55
   3 -18  10    7.93    0.60
   3  18 -10    7.93    0.61
  -3  18  10    8.26    0.52
   4  18  10    0.24    0.27
  -4  18  10    0.23    0.28
   4 -18  10    0.48    0.30
   4  18 -10   -0.22    0.31
   5  18  10   24.80    1.14
  -5  18  10   24.44    1.13
   5 -18  10   23.05    1.20
   5  18 -10   24.02    1.19
   6  18  10    0.27    0.32
   6 -18  10    0.74    0.35
   6  18 -10    0.57    0.32
  -6  18  10    0.68    0.34
   7  18  10   10.91    0.73
  -7  18  10   10.39    0.75
   0  18 -11    0.41    0.26
   0  18  11    0.19    0.23
   1  18  11    1.38    0.28
  -1  18 -11    1.31    0.30
  -1  18  11    1.17    0.24
  -1  18  11    1.65    0.33
   1  18 -11    1.23    0.29
   2  18  11    6.63    0.48
  -2  18 -11    7.68    0.60
  -2  18  11    7.65    0.53
   2  18 -11    7.50    0.55
   3  18  11    0.85    0.29
  -3  18  11    0.41    0.28
   3  18 -11    0.50    0.28
   3 -18  11    0.22    0.26
   4  18  11    7.61    0.57
  -4  18  11    8.26    0.58
   4  18 -11    8.11    0.65
   4 -18  11    7.61    0.57
   5  18  11    2.80    0.39
   5 -18  11    1.98    0.36
  -5  18  11    2.09    0.38
   5  18 -11    1.94    0.37
   6  18  11   20.92    1.03
  -6  18  11   19.39    0.99
   0  18  12    6.68    0.47
   0  18 -12    7.80    0.59
  -1  18 -12   -0.06    0.30
   1  18  12    0.11    0.21
  -1  18  12    0.06    0.22
   1  18 -12    0.57    0.31
  -1  18  12    0.26    0.26
   2  18  12   16.45    0.86
  -2  18 -12   17.70    0.95
   2  18 -12   17.92    0.95
  -2  18  12   17.12    0.84
   3  18  12    8.89    0.59
  -3  18  12    9.36    0.60
   3  18 -12    8.33    0.61
   3 -18  12    7.56    0.63
   4  18  12    0.69    0.32
   4  18 -12    0.38    0.35
  -4  18  12    0.36    0.31
   4 -18  12    0.39    0.33
   5  18  12   10.62    0.68
  -5  18  12   10.18    0.67
   5 -18  12    9.26    0.72
   5  18 -12    9.62    0.74
   6  18  12    5.14    0.50
  -6  18  12    4.78    0.48
   0  18 -13   -0.03    0.32
   0  18  13    0.01    0.24
  -1  18 -13   12.67    0.78
   1  18  13   13.41    0.69
   1  18 -13   13.00    0.78
  -1  18  13   12.37    0.65
  -1  18  13   11.33    0.68
   2  18  13    2.90    0.37
  -2  18 -13    2.59    0.43
  -2  18  13    3.21    0.39
   2  18 -13    2.86    0.39
  -3  18 -13    1.32    0.36
   3  18  13    1.08    0.32
   3  18 -13    0.53    0.30
   3 -18  13    0.55    0.32
  -3  18  13    1.13    0.32
   4  18  13    0.53    0.28
   4 -18  13    0.77    0.32
  -4  18  13    0.88    0.33
   4  18 -13    0.67    0.37
   5  18  13   11.93    0.75
  -5  18  13   11.82    0.74
   6  18  13   25.88    1.25
  -6  18  13   26.54    1.26
   0  18  14   31.52    1.36
   0  18 -14   32.41    1.49
   1  18  14    4.49    0.42
  -1  18 -14    5.11    0.48
  -1  18  14    4.77    0.43
   1  18 -14    5.47    0.52
  -1  18  14    5.18    0.41
   2  18  14   18.95    0.91
  -2  18 -14   19.17    1.04
   2  18 -14   19.33    1.03
  -2  18  14   18.72    0.92
  -3  18 -14   15.22    0.91
   3  18  14   15.33    0.82
  -3  18  14   14.29    0.81
   3 -18  14   15.20    0.86
   3  18 -14   14.50    0.90
   4  18  14    2.23    0.39
   4 -18  14    2.29    0.43
   4  18 -14    2.20    0.45
  -4  18  14    1.99    0.38
   5  18  14    3.01    0.44
  -5  18  14    2.92    0.40
   0  18  15    0.11    0.26
   0  18 -15    0.18    0.34
   0  18  15    0.20    0.33
   1  18  15   13.47    0.72
  -1  18 -15   12.51    0.78
   1  18 -15   11.14    0.76
  -1  18  15   12.34    0.69
  -1  18  15   13.93    0.72
  -2  18 -15    4.73    0.50
   2  18  15    4.97    0.45
  -2  18  15    5.34    0.48
   2  18 -15    5.37    0.55
  -3  18 -15    9.23    0.70
   3  18  15   10.05    0.66
   3  18 -15    9.73    0.69
  -3  18  15    9.51    0.66
   4  18  15    2.55    0.41
  -4  18  15    2.62    0.41
   5  18  15    0.16    0.35
  -5  18  15    0.38    0.37
   0  18  16   51.57    2.14
   0  18  16   52.79    2.17
   0  18 -16   54.50    2.33
  -1  18 -16    0.69    0.33
   1  18  16    0.52    0.30
   1  18 -16    0.20    0.36
  -1  18  16    0.25    0.26
  -1  18  16    0.12    0.32
   2  18  16   24.10    1.15
  -2  18 -16   25.45    1.32
  -2  18  16   24.39    1.16
   2  18 -16   25.24    1.31
   3  18  16   10.24    0.64
  -3  18  16    9.60    0.63
   4  18  16    5.89    0.50
  -4  18  16    5.38    0.53
   0  18  17    0.61    0.35
   0  18  17    0.11    0.28
   1  18  17   24.94    1.18
   1  18  17   25.27    1.15
  -1  18  17   25.04    1.17
  -1  18  17   24.16    1.13
   2  18  17    2.09    0.38
  -2  18  17    2.42    0.40
   3  18  17    9.51    0.68
  -3  18  17    9.73    0.69
   0  18  18   34.06    1.50
   0  18  18   34.91    1.52
   1  18  18    3.45    0.42
   1  18  18    4.10    0.49
  -1  18  18    3.44    0.44
  -1  18  18    3.66    0.41
   0  19   0    0.21    0.21
   1  19   0    0.69    0.24
  -1  19   0    0.58    0.22
  -2  19   0    7.52    0.46
   2  19   0    7.19    0.50
  -3  19   0    0.47    0.22
   3  19   0    0.14    0.24
  -4  19   0   66.03    2.57
   4  19   0   65.76    2.63
   5  19   0    1.57    0.36
  -5  19   0    2.11    0.28
   6  19   0    7.82    0.56
   7  19   0    0.12    0.32
   8  19   0   39.93    1.76
   0  19   1   13.43    0.68
   0  19  -1   13.69    0.68
   0  19  -1   14.64    0.70
  -1  19  -1    8.32    0.51
   1  19   1    8.71    0.52
  -1  19  -1    8.42    0.50
  -1  19   1    8.43    0.48
   1  19  -1    8.26    0.50
   1  19  -1    8.07    0.52
  -2  19  -1    0.47    0.22
   2  19   1    0.18    0.20
   2  19  -1    0.44    0.22
   2  19  -1    0.54    0.21
   2 -19   1    0.47    0.22
  -2  19   1    0.26    0.19
  -3  19  -1    4.01    0.33
   3  19   1    3.89    0.36
  -3  19   1    4.04    0.34
   3 -19   1    4.05    0.37
   3  19  -1    4.06    0.36
   3  19  -1    3.56    0.39
   4  19   1    0.34    0.28
  -4  19  -1    0.76    0.21
   4  19  -1    0.39    0.28
   4 -19   1    0.72    0.25
   4  19  -1    0.87    0.25
  -4  19   1    0.80    0.23
   5  19   1   65.42    2.65
  -5  19   1   67.23    2.59
   5 -19   1   65.49    2.74
   5  19  -1   64.43    2.73
   5  19  -1   67.06    2.65
   6  19   1    2.18    0.38
   6  19  -1    2.43    0.39
   6 -19   1    1.88    0.34
  -6  19   1    1.92    0.31
   6  19  -1    2.00    0.35
   7  19   1    6.36    0.54
   7  19  -1    5.45    0.52
   7 -19   1    6.72    0.60
   8  19   1    0.56    0.36
   8  19  -1    0.52    0.36
   0  19   2    0.08    0.17
   0  19  -2    0.31    0.20
   0  19  -2    0.16    0.20
   1  19   2   14.50    0.73
  -1  19  -2   14.32    0.74
  -1  19  -2   15.44    0.72
   1  19  -2   15.69    0.75
   1  19  -2   14.89    0.73
  -1  19   2   14.44    0.70
   2  19   2    0.43    0.24
  -2  19  -2    0.11    0.20
   2  19  -2    0.64    0.26
   2 -19   2    0.30    0.21
   2  19  -2    0.47    0.22
  -2  19   2    0.13    0.20
   3  19   2    2.65    0.33
  -3  19  -2    2.50    0.27
   3  19  -2    2.24    0.34
  -3  19   2    2.65    0.31
   3  19  -2    2.47    0.32
   3 -19   2    2.59    0.31
   4  19   2   79.60    3.08
  -4  19   2   76.52    3.02
   4  19  -2   80.32    3.20
   4 -19   2   75.78    3.19
   4  19  -2   78.00    3.08
   5  19   2    8.78    0.59
   5  19  -2    8.19    0.63
   5 -19   2    9.28    0.60
  -5  19   2    9.67    0.56
   5  19  -2    9.16    0.60
   6  19   2    4.80    0.47
   6  19  -2    4.45    0.48
   6  19  -2    4.68    0.47
  -6  19   2    4.64    0.42
   6 -19   2    4.32    0.46
   7  19   2    0.10    0.33
   7 -19   2    0.30    0.32
   7  19  -2    0.11    0.32
  -7  19   2    0.75    0.30
   7  19  -2   -0.17    0.29
   8  19   2   20.24    1.08
   8 -19   2   21.86    1.16
   8  19  -2   21.93    1.10
   8  19  -2   21.21    1.12
   0  19   3    8.04    0.49
   0  19  -3    8.39    0.51
  -1  19  -3   10.36    0.60
   1  19   3   10.06    0.59
  -1  19   3   12.07    0.58
   1  19  -3   10.53    0.60
   2  19   3   20.84    0.96
   2 -19   3   20.54    0.98
   2  19  -3   20.75    0.98
   2  19  -3   19.78    0.97
  -2  19   3   20.48    0.93
  -2  19   3   22.34    0.91
   3  19   3    1.58    0.30
   3  19  -3    1.31    0.27
   3  19  -3    0.87    0.30
   3 -19   3    1.21    0.26
  -3  19   3    0.80    0.26
   4  19   3    0.63    0.28
   4  19  -3    1.04    0.27
  -4  19   3    0.94    0.25
   4  19  -3    0.18    0.31
   4 -19   3    0.75    0.26
   5  19   3   41.38    1.79
   5 -19   3   41.17    1.85
  -5  19   3   44.75    1.75
   5  19  -3   42.66    1.85
   5  19  -3   42.58    1.81
   6  19   3    2.92    0.41
   6  19  -3    2.32    0.38
  -6  19   3    2.85    0.36
   6 -19   3    2.67    0.39
   6  19  -3    3.08    0.42
   7  19   3   12.16    0.76
   7 -19   3   12.44    0.79
   7  19  -3   11.66    0.76
  -7  19   3   12.05    0.71
   7  19  -3   11.19    0.76
   8  19   3    4.12    0.49
   8  19  -3    4.24    0.49
   8 -19   3    4.46    0.55
  -8  19   3    5.22    0.51
   8  19  -3    4.14    0.51
   0  19  -4    0.13    0.21
   0  19   4   -0.08    0.20
   1  19   4   59.69    2.43
  -1  19  -4   64.09    2.55
   1  19  -4   62.17    2.54
  -1  19   4   60.70    2.41
   2  19   4    0.89    0.26
   2  19  -4    0.64    0.25
   2 -19   4    0.88    0.25
  -2  19   4    0.72    0.22
  -2  19   4    0.55    0.25
   3  19   4    2.74    0.34
   3 -19   4    3.08    0.35
  -3  19   4    3.00    0.33
   3  19  -4    2.99    0.39
   3  19  -4    3.52    0.37
   4  19   4   22.29    1.02
   4 -19   4   21.04    1.06
   4  19  -4   21.31    1.06
  -4  19   4   22.76    1.00
   4  19  -4   22.32    1.07
   5  19   4   19.04    0.97
   5  19  -4   19.76    0.97
   5 -19   4   19.84    0.99
  -5  19   4   19.21    0.90
   5  19  -4   19.74    1.00
   6  19   4   11.94    0.69
  -6  19   4   12.80    0.69
   6 -19   4   11.93    0.74
   6  19  -4   10.63    0.72
   6  19  -4   10.89    0.74
   7  19   4    2.33    0.40
  -7  19   4    3.19    0.41
   7  19  -4    2.01    0.41
   7 -19   4    2.46    0.42
   7  19  -4    2.54    0.41
   8  19   4   23.75    1.17
   8  19  -4   23.77    1.17
  -8  19   4   22.85    1.14
   0  19   5   11.23    0.60
   0  19  -5   11.59    0.62
   1  19   5    0.32    0.23
  -1  19  -5    0.32    0.23
  -1  19   5   -0.06    0.20
   1  19  -5    0.27    0.23
  -2  19  -5   55.40    2.28
   2  19   5   57.79    2.19
   2  19  -5   53.48    2.28
  -2  19   5   52.86    2.17
   2 -19   5   54.43    2.28
  -2  19   5   53.82    2.14
   3  19   5   14.31    0.76
  -3  19   5   15.65    0.73
   3  19  -5   15.53    0.79
   3 -19   5   14.32    0.79
   4  19   5    0.28    0.24
   4  19  -5    0.61    0.28
   4  19  -5    0.16    0.33
   4 -19   5    0.52    0.26
  -4  19   5    0.81    0.26
   5  19   5    1.01    0.34
  -5  19   5    1.57    0.31
   5  19  -5    1.34    0.37
   5  19  -5    1.59    0.34
   5 -19   5    1.74    0.33
   6  19   5    6.99    0.60
   6 -19   5    7.95    0.61
   6  19  -5    7.25    0.59
  -6  19   5    7.04    0.55
   6  19  -5    6.87    0.60
   7  19   5   23.63    1.17
   7  19  -5   24.54    1.22
  -7  19   5   23.86    1.15
   7 -19   5   25.03    1.25
   7  19  -5   24.26    1.21
   0  19  -6   -0.01    0.23
   0  19   6    0.02    0.21
   1  19   6   52.72    2.18
  -1  19  -6   55.56    2.30
   1  19  -6   58.45    2.31
  -1  19   6   53.43    2.17
  -2  19  -6    0.87    0.29
   2  19   6    0.95    0.24
   2 -19   6    0.99    0.25
  -2  19   6    1.09    0.25
   2  19  -6    1.22    0.29
  -2  19   6    0.87    0.22
   3  19   6    4.93    0.41
  -3  19   6    4.52    0.40
   3  19  -6    5.12    0.43
   3 -19   6    3.86    0.39
   4  19   6    1.16    0.31
   4  19  -6    1.16    0.28
   4 -19   6    1.05    0.30
  -4  19   6    0.91    0.28
   5  19   6   18.89    0.93
  -5  19   6   17.00    0.85
   5  19  -6   18.20    0.96
   5 -19   6   18.15    0.95
   5  19  -6   16.69    0.94
   6  19   6    3.00    0.38
   6  19  -6    3.42    0.46
   6  19  -6    2.61    0.41
  -6  19   6    3.16    0.39
   6 -19   6    2.97    0.42
   7  19   6    0.40    0.35
   7 -19   6    0.40    0.30
  -7  19   6    0.32    0.34
   7  19  -6    0.17    0.36
   7  19  -6    0.21    0.37
   0  19   7    2.34    0.29
   0  19  -7    2.03    0.32
  -1  19  -7    4.95    0.42
   1  19   7    4.78    0.39
  -1  19   7    4.65    0.37
   1  19  -7    5.17    0.42
  -2  19  -7   53.91    2.33
   2  19   7   57.54    2.23
  -2  19   7   53.67    2.17
   2  19  -7   55.72    2.34
  -2  19   7   55.86    2.22
   2 -19   7   55.93    2.33
   3  19   7    9.83    0.61
   3  19  -7    9.69    0.64
  -3  19   7    9.43    0.56
   3 -19   7    9.46    0.62
   4  19   7    7.09    0.54
   4 -19   7    6.37    0.54
  -4  19   7    6.06    0.50
   4  19  -7    6.29    0.55
   5  19   7    0.60    0.28
   5 -19   7    0.47    0.26
   5  19  -7   -0.23    0.30
  -5  19   7    0.27    0.29
   6  19   7    1.19    0.36
  -6  19   7    1.06    0.33
   6  19  -7    0.87    0.36
   6 -19   7    1.10    0.31
   6  19  -7    0.52    0.36
   7  19   7    1.61    0.39
  -7  19   7    2.25    0.40
   7 -19   7    1.81    0.43
   7  19  -7    2.02    0.44
   7  19  -7    2.02    0.42
   0  19  -8    0.07    0.22
   0  19   8    0.10    0.22
  -1  19  -8   50.26    2.15
   1  19   8   50.70    2.03
   1  19  -8   51.20    2.16
  -1  19   8   50.17    2.00
  -2  19  -8    6.00    0.52
   2  19   8    5.67    0.47
   2  19  -8    6.09    0.51
  -2  19   8    5.79    0.48
   3  19   8   37.78    1.59
   3 -19   8   37.97    1.68
   3  19  -8   37.03    1.68
  -3  19   8   37.97    1.58
   4  19   8    3.25    0.40
   4 -19   8    3.74    0.42
  -4  19   8    3.46    0.39
   4  19  -8    3.76    0.44
   5  19   8   12.79    0.76
   5 -19   8   13.02    0.77
  -5  19   8   13.32    0.71
   5  19  -8   12.76    0.80
   6  19   8    0.46    0.28
   6  19  -8    0.28    0.33
  -6  19   8    0.59    0.32
   6 -19   8    0.68    0.34
   7  19   8    1.42    0.38
   7  19  -8    0.91    0.40
  -7  19   8    1.67    0.40
   0  19   9   18.82    0.88
   0  19  -9   19.85    0.98
  -1  19  -9    3.94    0.42
   1  19   9    3.83    0.37
  -1  19   9    3.47    0.33
   1  19  -9    3.61    0.41
   2  19   9   94.89    3.62
  -2  19  -9   92.09    3.81
   2  19  -9   95.40    3.83
  -2  19   9   91.72    3.62
   3  19   9    6.00    0.46
   3  19  -9    6.67    0.56
  -3  19   9    6.19    0.47
   3 -19   9    6.73    0.51
   4  19   9   12.99    0.73
  -4  19   9   12.79    0.72
   4 -19   9   12.01    0.76
   4  19  -9   12.40    0.78
   5  19   9    1.68    0.36
  -5  19   9    2.17    0.37
   5 -19   9    1.80    0.39
   5  19  -9    2.46    0.41
   6  19   9    5.20    0.50
  -6  19   9    6.02    0.53
   6  19  -9    5.77    0.57
   6 -19   9    5.52    0.56
   7  19   9    0.96    0.36
  -7  19   9    0.19    0.36
   7  19  -9    0.22    0.39
   0  19 -10    0.33    0.29
   0  19  10    0.16    0.23
   1  19  10   50.04    1.98
  -1  19 -10   48.77    2.10
   1  19 -10   49.39    2.11
  -1  19  10   48.04    1.95
  -2  19 -10    1.33    0.35
   2  19  10    0.69    0.25
   2  19 -10    0.91    0.29
  -2  19  10    0.96    0.31
   3  19  10   49.32    1.96
   3 -19  10   45.78    2.07
  -3  19  10   47.29    1.96
   3  19 -10   49.63    2.09
   4  19  10   12.57    0.70
   4  19 -10   13.57    0.82
  -4  19  10   12.32    0.73
   4 -19  10   13.02    0.79
   5  19  10    5.26    0.47
   5 -19  10    6.39    0.55
  -5  19  10    5.97    0.51
   5  19 -10    7.12    0.57
   6  19  10    0.78    0.35
  -6  19  10    1.21    0.38
   0  19 -11   42.03    1.81
   0  19  11   40.12    1.68
   1  19  11    7.44    0.52
  -1  19 -11    7.97    0.60
  -1  19  11    7.50    0.49
   1  19 -11    6.89    0.59
  -1  19  11    7.58    0.56
  -2  19 -11   38.02    1.70
   2  19  11   37.41    1.58
   2  19 -11   38.49    1.69
  -2  19  11   36.94    1.59
   3  19  11    1.35    0.29
  -3  19  11    1.59    0.33
   3 -19  11    1.43    0.32
   3  19 -11    2.09    0.39
   4  19  11   15.95    0.85
   4 -19  11   16.38    0.88
  -4  19  11   16.52    0.85
   4  19 -11   14.72    0.88
   5  19  11    7.23    0.60
  -5  19  11    6.94    0.59
   5 -19  11    7.59    0.64
   5  19 -11    6.85    0.62
   6  19  11    1.86    0.36
  -6  19  11    2.31    0.37
   0  19 -12    0.31    0.32
   0  19  12    0.01    0.24
  -1  19 -12   28.53    1.34
   1  19  12   28.24    1.22
  -1  19  12   27.96    1.20
  -1  19  12   26.88    1.24
   1  19 -12   26.84    1.31
  -2  19 -12    0.16    0.29
   2  19  12    0.13    0.28
  -2  19  12    0.20    0.30
   2  19 -12    0.64    0.34
   3  19  12   46.84    1.85
  -3  19 -12   42.78    1.96
   3  19 -12   44.58    1.98
   3 -19  12   42.47    1.94
  -3  19  12   43.82    1.84
   4  19  12    5.31    0.49
   4 -19  12    5.20    0.54
   4  19 -12    5.36    0.52
  -4  19  12    5.29    0.48
   5  19  12    0.89    0.35
  -5  19  12    0.79    0.31
   6  19  12    0.63    0.36
  -6  19  12    0.68    0.33
   0  19  13   37.14    1.57
   0  19 -13   38.75    1.73
  -1  19 -13    0.64    0.36
   1  19  13    0.87    0.28
  -1  19  13    1.04    0.35
  -1  19  13    1.01    0.27
   1  19 -13    0.61    0.31
  -2  19 -13    9.34    0.68
   2  19  13   11.26    0.66
   2  19 -13    9.95    0.69
  -2  19  13   11.24    0.68
   3  19  13    0.94    0.32
  -3  19 -13    1.09    0.41
  -3  19  13    1.39    0.35
   3  19 -13    1.36    0.36
   4  19  13   23.66    1.11
   4  19 -13   24.39    1.25
   4 -19  13   22.87    1.19
  -4  19  13   24.12    1.14
   5  19  13    9.30    0.68
  -5  19  13    8.94    0.67
   0  19  14    0.17    0.28
   0  19 -14    0.11    0.29
   1  19  14    7.41    0.55
  -1  19 -14    7.69    0.61
  -1  19  14    7.75    0.52
  -1  19  14    8.21    0.56
   1  19 -14    7.66    0.60
   2  19  14    6.52    0.50
  -2  19 -14    6.64    0.58
  -2  19  14    7.02    0.57
   2  19 -14    7.04    0.61
   3  19  14    9.32    0.65
  -3  19 -14    9.25    0.69
   3  19 -14   10.08    0.75
  -3  19  14    9.63    0.65
   4  19  14   13.64    0.79
  -4  19  14   12.62    0.79
   5  19  14    0.17    0.35
  -5  19  14    0.43    0.32
   0  19  15    5.93    0.52
   0  19  15    5.40    0.45
   0  19 -15    5.46    0.57
   1  19  15    7.31    0.55
  -1  19 -15    7.02    0.60
  -1  19  15    7.09    0.51
   1  19 -15    6.70    0.61
  -1  19  15    6.74    0.53
   2  19  15    2.28    0.37
  -2  19 -15    2.32    0.47
   2  19 -15    1.58    0.44
  -2  19  15    2.41    0.39
   3  19  15   15.84    0.85
  -3  19  15   14.76    0.81
   4  19  15    9.66    0.68
  -4  19  15    9.22    0.68
   0  19  16   -0.10    0.27
   0  19  16    0.22    0.36
   1  19  16    1.82    0.35
  -1  19  16    2.01    0.33
  -1  19  16    2.08    0.39
   2  19  16    7.62    0.55
  -2  19  16    7.34    0.60
   3  19  16    8.84    0.65
  -3  19  16    8.30    0.65
   0  19  17    3.01    0.45
   0  19  17    2.40    0.38
   1  19  17    0.62    0.32
   1  19  17   -0.46    0.37
  -1  19  17    0.10    0.35
   2  19  17    1.30    0.36
  -2  19  17    1.30    0.37
   0  20   0    0.59    0.23
  -1  20   0   -0.01    0.20
   1  20   0    0.24    0.24
   2  20   0   86.38    3.44
  -2  20   0   90.60    3.41
  -3  20   0    0.28    0.22
   3  20   0    0.34    0.27
   4  20   0    5.35    0.48
  -4  20   0    6.24    0.45
  -5  20   0    0.54    0.24
   5  20   0    0.47    0.32
   6  20   0   11.82    0.71
   7  20   0    0.68    0.34
   0  20   1    0.34    0.22
   0  20  -1    0.31    0.23
   1  20   1   59.68    2.35
  -1  20  -1   58.85    2.33
  -1  20   1   60.28    2.33
   1  20  -1   57.77    2.35
  -2  20  -1    2.73    0.31
   2  20   1    2.10    0.32
  -2  20   1    2.60    0.28
   2  20  -1    2.73    0.35
   3  20   1   30.80    1.32
  -3  20  -1   30.28    1.26
   3  20  -1   28.87    1.32
  -3  20   1   30.32    1.27
  -4  20  -1    3.24    0.32
   4  20   1    2.90    0.35
  -4  20   1    3.42    0.33
   4  20  -1    3.37    0.40
   5  20   1   38.42    1.71
   5  20  -1   40.25    1.72
  -5  20   1   40.78    1.65
   6  20   1    0.56    0.33
   6  20  -1    0.28    0.32
  -6  20   1    0.45    0.27
   7  20   1    9.13    0.68
   7  20  -1    9.45    0.69
   0  20  -2    4.45    0.38
   0  20   2    5.27    0.41
   0  20  -2    5.57    0.41
  -1  20  -2    6.00    0.45
   1  20   2    6.98    0.47
  -1  20  -2    6.47    0.45
   1  20  -2    5.66    0.47
  -1  20   2    5.87    0.43
   1  20  -2    6.45    0.47
  -2  20  -2   33.53    1.37
  -2  20  -2   32.58    1.43
   2  20   2   32.33    1.40
  -2  20   2   32.55    1.37
   2  20  -2   31.21    1.42
   2  20  -2   33.83    1.45
  -2  20   2   34.44    1.36
   3  20   2    0.26    0.26
   3 -20   2    0.02    0.22
   3  20  -2    0.21    0.23
  -3  20   2    0.34    0.24
   3  20  -2    0.45    0.28
   4  20   2    3.98    0.41
   4  20  -2    3.97    0.40
   4 -20   2    3.39    0.38
  -4  20   2    3.61    0.35
   4  20  -2    3.70    0.38
   5  20   2   11.59    0.73
  -5  20   2   11.74    0.66
   5  20  -2   11.92    0.74
   5  20  -2   12.10    0.71
   5 -20   2   12.07    0.71
   6  20   2    3.15    0.43
   6 -20   2    3.23    0.41
   6  20  -2    2.51    0.41
   6  20  -2    2.61    0.40
  -6  20   2    3.20    0.38
   7  20   2    2.08    0.36
   7  20  -2    1.65    0.41
  -7  20   2    2.27    0.37
   0  20  -3   -0.03    0.21
   0  20   3    0.18    0.22
  -1  20  -3   84.34    3.37
   1  20   3   85.37    3.23
   1  20  -3   89.45    3.38
   1  20  -3   76.14    3.23
  -1  20   3   80.14    3.20
  -2  20  -3    9.77    0.58
   2  20   3    9.24    0.58
   2  20  -3    9.73    0.58
   2  20  -3    8.77    0.60
  -2  20   3    9.58    0.53
  -2  20   3    9.04    0.51
   3  20   3    7.02    0.52
   3  20  -3    6.36    0.50
  -3  20   3    6.90    0.48
   3  20  -3    6.94    0.55
   3 -20   3    7.20    0.51
   4  20   3    7.36    0.57
   4  20  -3    7.48    0.59
   4  20  -3    7.82    0.55
  -4  20   3    8.04    0.52
   4 -20   3    8.00    0.56
   5  20   3   19.86    0.99
   5 -20   3   19.69    0.99
  -5  20   3   19.86    0.93
   5  20  -3   19.77    1.00
   5  20  -3   18.34    0.97
   6  20   3    2.83    0.42
   6  20  -3    2.17    0.37
   6  20  -3    3.31    0.42
  -6  20   3    3.32    0.38
   6 -20   3    3.31    0.42
   7  20   3    1.26    0.38
  -7  20   3    1.01    0.34
   7  20  -3    0.61    0.34
   7  20  -3    0.81    0.37
   7 -20   3    1.17    0.38
   0  20   4   53.38    2.10
   0  20  -4   51.98    2.21
   1  20   4   11.29    0.64
  -1  20  -4   11.95    0.66
   1  20  -4   11.54    0.66
  -1  20   4   12.33    0.63
   2  20   4   35.71    1.46
  -2  20  -4   33.75    1.50
   2  20  -4   34.57    1.52
  -2  20   4   32.83    1.40
  -2  20   4   34.94    1.43
   3  20   4    0.98    0.26
   3  20  -4    1.49    0.30
  -3  20   4    0.97    0.27
   3  20  -4    0.98    0.29
   3 -20   4    1.93    0.30
   4  20   4    5.11    0.46
   4  20  -4    5.45    0.51
  -4  20   4    4.90    0.42
   4  20  -4    5.44    0.47
   4 -20   4    5.52    0.47
   5  20   4   10.75    0.66
   5  20  -4   10.78    0.69
   5  20  -4    9.68    0.71
   5 -20   4   10.60    0.68
  -5  20   4   10.88    0.64
   6  20   4    0.51    0.34
   6  20  -4    0.58    0.31
   6 -20   4    0.54    0.31
  -6  20   4    0.49    0.30
   6  20  -4    0.64    0.35
   7  20   4   39.51    1.64
   7 -20   4   36.58    1.70
   7  20  -4   35.61    1.68
   7  20  -4   33.58    1.61
  -7  20   4   36.73    1.59
   0  20  -5   -0.01    0.24
   0  20   5    0.16    0.22
  -1  20  -5   53.86    2.24
   1  20   5   55.88    2.14
   1  20  -5   52.52    2.24
  -1  20   5   51.35    2.11
   2  20   5    6.20    0.47
  -2  20  -5    5.02    0.43
   2  20  -5    4.82    0.45
  -2  20   5    5.84    0.42
  -2  20   5    5.61    0.39
   3  20   5    4.26    0.39
   3  20  -5    4.33    0.42
  -3  20   5    4.03    0.37
   3 -20   5    4.29    0.42
   4  20   5   33.90    1.42
   4 -20   5   31.79    1.46
   4  20  -5   31.83    1.47
  -4  20   5   32.61    1.38
   4  20  -5   30.49    1.43
   5  20   5    9.49    0.65
   5 -20   5    9.53    0.64
  -5  20   5    8.35    0.59
   5  20  -5    8.91    0.68
   5  20  -5    8.81    0.61
   6  20   5    6.95    0.57
   6  20  -5    5.63    0.56
  -6  20   5    7.00    0.55
   6  20  -5    6.23    0.56
   6 -20   5    6.28    0.54
   7  20   5    2.29    0.43
   7  20  -5    2.52    0.45
   7 -20   5    2.58    0.45
  -7  20   5    2.85    0.42
   7  20  -5    2.98    0.45
   0  20  -6   17.09    0.87
   0  20   6   16.58    0.80
  -1  20  -6   51.15    2.16
   1  20   6   51.29    2.06
  -1  20   6   51.58    2.03
   1  20  -6   50.20    2.16
   2  20   6    1.22    0.29
  -2  20  -6    1.39    0.31
   2  20  -6    0.90    0.26
  -2  20   6    1.46    0.31
   3  20   6    6.91    0.52
   3 -20   6    7.00    0.53
  -3  20   6    6.48    0.46
   3  20  -6    6.14    0.49
   4  20   6    1.13    0.33
   4 -20   6    0.84    0.29
  -4  20   6    0.91    0.29
   4  20  -6    0.36    0.30
   5  20   6    9.32    0.67
   5  20  -6    9.17    0.65
   5  20  -6    9.65    0.68
   5 -20   6   10.58    0.65
  -5  20   6    9.47    0.62
   6  20   6    0.60    0.30
   6 -20   6    0.55    0.28
   6  20  -6    0.47    0.37
   6  20  -6    0.32    0.33
  -6  20   6    0.47    0.31
   7  20   6   12.05    0.77
   7  20  -6   11.96    0.79
  -7  20   6   10.28    0.73
   0  20  -7   -0.02    0.26
   0  20   7    0.34    0.23
   1  20   7    0.82    0.24
  -1  20  -7    0.85    0.26
  -1  20   7    0.94    0.24
   1  20  -7    0.56    0.24
   2  20   7    8.63    0.56
  -2  20  -7    7.24    0.57
  -2  20   7    8.09    0.52
   2  20  -7    7.96    0.58
   3  20   7    1.75    0.33
   3  20  -7    1.09    0.33
  -3  20   7    1.16    0.27
   3 -20   7    1.50    0.33
   4  20   7   39.99    1.67
   4  20  -7   41.59    1.76
   4 -20   7   37.76    1.74
  -4  20   7   37.06    1.62
   5  20   7    0.49    0.29
  -5  20   7    0.51    0.30
   5 -20   7    0.71    0.29
   5  20  -7    0.67    0.34
   6  20   7    2.29    0.41
  -6  20   7    2.14    0.38
   6  20  -7    1.68    0.43
   6  20  -7    1.67    0.40
   6 -20   7    1.72    0.35
   7  20   7    2.80    0.44
   7  20  -7    2.70    0.47
  -7  20   7    3.12    0.41
   0  20   8   16.65    0.79
   0  20  -8   15.50    0.86
  -1  20  -8   31.01    1.43
   1  20   8   30.75    1.34
   1  20  -8   31.40    1.43
  -1  20   8   31.88    1.31
  -2  20  -8   13.89    0.81
   2  20   8   14.91    0.75
  -2  20   8   15.10    0.78
   2  20  -8   14.72    0.80
   3  20   8    3.99    0.41
   3  20  -8    5.13    0.48
   3 -20   8    3.99    0.44
  -3  20   8    4.45    0.42
   4  20   8    4.63    0.44
   4  20  -8    5.41    0.52
  -4  20   8    6.06    0.46
   4 -20   8    5.56    0.51
   5  20   8   14.85    0.84
  -5  20   8   14.25    0.81
   5  20  -8   15.80    0.86
   5 -20   8   14.98    0.85
   6  20   8    0.53    0.35
   6  20  -8    0.01    0.29
   6  20  -8    0.28    0.39
   6 -20   8    0.14    0.33
  -6  20   8    0.52    0.34
   0  20  -9    0.17    0.29
   0  20   9    0.04    0.23
   1  20   9    0.22    0.26
  -1  20  -9    0.83    0.32
  -1  20   9    0.00    0.24
   1  20  -9    0.64    0.31
   2  20   9    1.64    0.32
  -2  20  -9    1.86    0.32
  -2  20   9    1.87    0.34
   2  20  -9    2.02    0.37
   3  20   9    6.72    0.53
   3  20  -9    6.94    0.58
   3 -20   9    5.56    0.53
  -3  20   9    6.66    0.53
   4  20   9   16.95    0.89
   4 -20   9   15.93    0.90
  -4  20   9   17.27    0.85
   4  20  -9   17.85    0.96
   5  20   9    1.43    0.32
  -5  20   9    1.87    0.33
   5  20  -9    1.68    0.40
   5 -20   9    1.22    0.36
   6  20   9   13.83    0.80
  -6  20   9   14.38    0.83
   0  20 -10    4.60    0.47
   0  20  10    4.59    0.38
   1  20  10    0.85    0.28
  -1  20 -10    0.50    0.31
   1  20 -10    0.43    0.31
  -1  20  10    0.32    0.23
   2  20  10   13.38    0.75
  -2  20 -10   15.24    0.84
  -2  20  10   13.38    0.76
   2  20 -10   14.49    0.83
   3  20  10    1.42    0.33
   3  20 -10    1.27    0.32
   3 -20  10    1.30    0.31
  -3  20  10    1.91    0.35
   4  20  10    0.45    0.32
   4  20 -10    0.39    0.35
  -4  20  10    0.54    0.32
   4 -20  10    0.74    0.33
   5  20  10   16.05    0.90
  -5  20  10   16.98    0.87
   5 -20  10   16.64    0.96
   5  20 -10   17.71    0.99
   6  20  10    0.62    0.35
  -6  20  10    0.14    0.35
   0  20  11    0.13    0.25
   0  20 -11    0.35    0.32
   1  20  11   10.42    0.62
  -1  20 -11   10.16    0.70
   1  20 -11   10.63    0.67
  -1  20  11    9.91    0.59
  -1  20  11   10.23    0.66
   2  20  11    0.89    0.30
  -2  20 -11    0.50    0.30
  -2  20  11    0.82    0.32
   2  20 -11    0.38    0.34
  -3  20 -11    2.91    0.45
   3  20  11    1.91    0.36
   3 -20  11    2.81    0.39
   3  20 -11    2.85    0.43
  -3  20  11    3.19    0.39
   4  20  11    2.18    0.37
   4 -20  11    2.19    0.42
   4  20 -11    2.26    0.43
  -4  20  11    1.80    0.37
   5  20  11    5.83    0.53
  -5  20  11    5.59    0.52
   0  20  12   22.47    1.04
   0  20 -12   23.23    1.17
   1  20  12    0.06    0.23
  -1  20 -12    0.09    0.28
  -1  20  12    0.04    0.26
  -1  20  12   -0.06    0.31
   1  20 -12   -0.12    0.31
  -2  20 -12   26.04    1.28
   2  20  12   26.69    1.18
   2  20 -12   25.88    1.28
  -2  20  12   24.18    1.15
  -3  20 -12    2.07    0.43
   3  20  12    1.74    0.36
  -3  20  12    2.61    0.39
   3  20 -12    2.34    0.44
   4  20  12    0.73    0.34
  -4  20  12    0.82    0.35
   4  20 -12    1.05    0.42
   4 -20  12    1.11    0.38
   5  20  12    8.72    0.68
  -5  20  12    9.20    0.67
   0  20  13    0.16    0.25
   0  20 -13   -0.13    0.34
  -1  20 -13   30.05    1.49
   1  20  13   31.49    1.35
  -1  20  13   30.68    1.40
   1  20 -13   32.09    1.50
  -1  20  13   32.23    1.34
  -2  20 -13    5.21    0.55
   2  20  13    4.73    0.45
  -2  20  13    4.53    0.47
   2  20 -13    4.61    0.49
   3  20  13    3.31    0.41
  -3  20 -13    3.05    0.49
   3  20 -13    3.43    0.48
  -3  20  13    2.56    0.41
   4  20  13    0.18    0.32
  -4  20  13    0.27    0.29
   0  20  14   15.85    0.80
   0  20  14   15.77    0.87
   0  20 -14   14.89    0.93
   1  20  14    2.26    0.35
  -1  20 -14    2.69    0.45
  -1  20  14    1.90    0.40
  -1  20  14    2.04    0.32
   1  20 -14    2.05    0.43
   2  20  14   13.43    0.73
  -2  20 -14   13.41    0.89
   2  20 -14   14.25    0.90
  -2  20  14   12.06    0.77
   3  20  14    4.67    0.48
  -3  20  14    4.76    0.49
   4  20  14    7.87    0.63
  -4  20  14    7.20    0.58
   0  20  15    0.44    0.37
   0  20  15    0.01    0.28
   1  20  15   15.56    0.84
  -1  20  15   16.89    0.89
  -1  20  15   15.82    0.83
   2  20  15    3.71    0.43
  -2  20  15    3.76    0.46
   3  20  15    5.95    0.53
  -3  20  15    4.84    0.51
   0  20  16    9.66    0.64
   0  20  16   10.64    0.73
   1  20  16    4.27    0.41
  -1  20  16    4.41    0.49
   2  20  16    4.85    0.48
  -2  20  16    5.70    0.52
   0  21   0    0.15    0.22
   1  21   0    0.41    0.25
  -1  21   0    0.03    0.21
  -2  21   0    0.65    0.24
   2  21   0    0.39    0.27
  -2  21   0    0.78    0.26
  -3  21   0   -0.18    0.22
   3  21   0    0.18    0.26
  -4  21   0   33.45    1.39
   4  21   0   32.14    1.45
   5  21   0    1.53    0.33
   6  21   0    0.79    0.36
   7  21   0    0.32    0.35
   0  21   1    0.80    0.25
   1  21   1   15.30    0.78
  -1  21  -1   15.75    0.79
   1  21  -1   15.60    0.81
  -1  21   1   18.35    0.79
  -2  21  -1    1.38    0.27
  -2  21  -1    1.07    0.25
   2  21   1    1.09    0.29
  -2  21   1    1.33    0.28
  -2  21   1    0.85    0.24
   2  21  -1    1.29    0.31
   3  21   1    3.47    0.37
  -3  21  -1    3.88    0.37
   3  21  -1    3.57    0.41
  -3  21   1    5.00    0.39
   4  21   1    0.53    0.31
  -4  21   1    1.33    0.28
   4  21  -1    0.69    0.32
   5  21   1   42.21    1.78
  -5  21   1   42.24    1.71
   5  21  -1   39.38    1.75
   6  21   1    0.75    0.35
   6  21  -1    0.37    0.35
   7  21   1    2.34    0.44
   7  21  -1    2.79    0.45
   0  21   2   -0.02    0.23
   0  21  -2    0.23    0.24
   0  21  -2    0.26    0.21
  -1  21  -2    0.14    0.24
   1  21   2    0.24    0.24
  -1  21  -2    0.41    0.22
   1  21  -2    0.29    0.26
  -1  21   2    0.20    0.22
  -2  21  -2    0.11    0.23
  -2  21  -2    0.26    0.24
  -2  21  -2    0.37    0.23
   2  21   2    0.40    0.26
  -2  21   2    0.55    0.26
   2  21  -2   -0.12    0.26
  -2  21   2   -0.27    0.21
   3  21   2    0.84    0.30
   3  21  -2    0.87    0.28
  -3  21   2    1.26    0.28
   4  21   2   36.22    1.59
  -4  21   2   39.42    1.55
   4  21  -2   35.37    1.59
   5  21   2    9.32    0.66
   5  21  -2    8.88    0.62
  -5  21   2    8.50    0.57
   6  21   2    1.57    0.39
   6  21  -2    1.06    0.38
  -6  21   2    1.99    0.34
   7  21   2    0.48    0.37
   7  21  -2    0.27    0.36
   0  21   3   17.86    0.84
   0  21  -3   17.12    0.85
   0  21  -3   17.56    0.87
   1  21   3    2.98    0.33
  -1  21  -3    4.06    0.38
  -1  21  -3    4.50    0.39
  -1  21   3    3.89    0.34
   1  21  -3    4.16    0.41
   1  21  -3    3.64    0.37
   2  21   3   13.84    0.73
  -2  21  -3   13.14    0.72
  -2  21  -3   12.08    0.69
  -2  21   3   12.56    0.70
   2  21  -3   14.11    0.74
  -2  21   3   13.94    0.68
   2  21  -3   13.72    0.75
   3  21   3    0.13    0.27
  -3  21   3    0.13    0.24
   3  21  -3    0.01    0.30
   3 -21   3    0.03    0.25
   3  21  -3    0.53    0.28
   4  21   3    0.94    0.33
   4 -21   3    0.88    0.28
   4  21  -3    0.90    0.29
  -4  21   3    1.11    0.28
   4  21  -3    1.28    0.32
   5  21   3   13.94    0.79
   5 -21   3   12.63    0.77
   5  21  -3   13.30    0.76
   5  21  -3   12.59    0.76
  -5  21   3   12.58    0.72
   6  21   3    0.54    0.35
   6 -21   3    1.15    0.35
  -6  21   3    0.80    0.31
   6  21  -3    0.92    0.37
   6  21  -3    0.63    0.34
   7  21   3    0.95    0.39
   7  21  -3    0.72    0.38
  -7  21   3    1.08    0.36
   0  21  -4    0.32    0.24
   0  21   4    0.61    0.24
  -1  21  -4   15.11    0.77
   1  21   4   14.52    0.75
  -1  21   4   13.83    0.73
   1  21  -4   14.66    0.77
  -2  21  -4    1.14    0.29
   2  21   4    1.42    0.30
  -2  21   4    1.75    0.31
   2  21  -4    1.39    0.29
   2  21  -4    1.39    0.30
   3  21   4    0.37    0.28
  -3  21   4    0.52    0.27
   3 -21   4    0.18    0.25
   3  21  -4    0.08    0.31
   3  21  -4    0.42    0.27
   4  21   4   10.03    0.66
  -4  21   4   10.98    0.61
   4  21  -4    9.58    0.64
   4  21  -4    8.80    0.63
   4 -21   4   10.02    0.64
   5  21   4    4.45    0.48
   5  21  -4    4.35    0.46
   5 -21   4    3.86    0.45
  -5  21   4    3.96    0.41
   5  21  -4    4.91    0.51
   6  21   4   -0.20    0.33
  -6  21   4    0.23    0.32
   6  21  -4    0.22    0.32
   6 -21   4    0.35    0.31
   6  21  -4   -0.04    0.35
   7  21   4    4.41    0.51
   7  21  -4    3.78    0.49
   7  21  -4    3.78    0.49
   7 -21   4    3.88    0.50
  -7  21   4    4.44    0.48
   0  21   5    0.39    0.23
   0  21  -5    0.47    0.26
   1  21   5    2.06    0.31
  -1  21  -5    1.67    0.31
  -1  21   5    1.34    0.26
   1  21  -5    1.75    0.31
  -2  21  -5   43.50    1.87
   2  21   5   44.02    1.80
   2  21  -5   43.54    1.87
  -2  21   5   42.72    1.79
   3  21   5    1.06    0.30
  -3  21   5    0.83    0.29
   3  21  -5    0.73    0.34
   3 -21   5    0.59    0.29
   3  21  -5    0.61    0.29
   4  21   5    0.27    0.26
   4  21  -5    0.43    0.30
   4  21  -5    0.13    0.35
   4 -21   5    0.34    0.28
  -4  21   5    0.19    0.27
   5  21   5    0.22    0.28
  -5  21   5   -0.04    0.28
   5  21  -5    0.11    0.35
   5 -21   5    0.64    0.31
   5  21  -5    0.48    0.31
   6  21   5    0.68    0.35
   6  21  -5    0.53    0.34
   6  21  -5    0.16    0.36
  -6  21   5    0.72    0.33
   6 -21   5    0.58    0.34
   7  21   5    4.37    0.51
   7  21  -5    3.01    0.48
  -7  21   5    3.85    0.47
   0  21  -6    0.18    0.25
   0  21   6    0.35    0.23
  -1  21  -6   21.20    1.05
   1  21   6   22.33    1.00
  -1  21   6   20.69    0.97
   1  21  -6   22.06    1.06
   2  21   6    8.61    0.56
  -2  21  -6    6.70    0.56
  -2  21   6    7.70    0.55
   2  21  -6    7.89    0.57
   3  21   6    2.14    0.35
   3 -21   6    2.11    0.35
  -3  21   6    2.05    0.34
   3  21  -6    2.15    0.36
   4  21   6    1.31    0.35
   4  21  -6    1.65    0.35
  -4  21   6    1.69    0.33
   4  21  -6    1.27    0.35
   4 -21   6    1.45    0.33
   5  21   6    5.81    0.52
   5 -21   6    6.21    0.54
   5  21  -6    6.08    0.52
   5  21  -6    5.70    0.56
  -5  21   6    4.64    0.44
   6  21   6    1.74    0.40
  -6  21   6    1.76    0.37
   6  21  -6    1.31    0.38
   6 -21   6    1.45    0.39
   6  21  -6    1.37    0.41
   0  21   7    1.76    0.30
   0  21  -7    2.48    0.36
  -1  21  -7    4.89    0.44
   1  21   7    5.68    0.47
   1  21  -7    4.97    0.44
  -1  21   7    5.42    0.42
  -2  21  -7   57.17    2.46
   2  21   7   58.67    2.35
  -2  21   7   58.92    2.35
   2  21  -7   59.17    2.48
   3  21   7    6.56    0.53
   3  21  -7    5.21    0.50
  -3  21   7    5.37    0.47
   3 -21   7    5.51    0.48
   4  21   7    7.73    0.58
  -4  21   7    6.25    0.53
   4 -21   7    7.05    0.58
   4  21  -7    7.00    0.60
   5  21   7    3.37    0.40
  -5  21   7    3.16    0.41
   5  21  -7    2.83    0.43
   5 -21   7    3.18    0.40
   5  21  -7    3.87    0.50
   6  21   7    0.70    0.37
   6  21  -7    0.86    0.41
   6  21  -7    0.77    0.33
   6 -21   7    0.92    0.37
  -6  21   7    1.26    0.36
   0  21   8    0.06    0.24
   0  21  -8    0.08    0.28
  -1  21  -8   24.81    1.21
   1  21   8   25.30    1.13
   1  21  -8   25.42    1.21
  -1  21   8   25.07    1.10
  -2  21  -8    4.52    0.45
   2  21   8    5.11    0.44
   2  21  -8    5.26    0.49
  -2  21   8    5.29    0.46
   3  21   8    6.10    0.50
   3 -21   8    6.60    0.56
  -3  21   8    5.92    0.50
   3  21  -8    6.79    0.57
   4  21   8    9.58    0.61
  -4  21   8    8.01    0.61
   4  21  -8    9.82    0.69
   4 -21   8    9.42    0.63
   5  21   8    1.65    0.39
  -5  21   8    2.06    0.37
   5 -21   8    2.17    0.36
   5  21  -8    2.45    0.43
   6  21   8    0.58    0.37
  -6  21   8    0.05    0.34
   6  21  -8   -0.30    0.38
   0  21   9    1.88    0.30
   0  21  -9    2.17    0.34
  -1  21  -9    8.10    0.60
   1  21   9    6.76    0.49
   1  21  -9    7.11    0.59
  -1  21   9    8.02    0.50
  -2  21  -9   17.44    0.95
   2  21   9   20.11    0.93
  -2  21   9   18.31    0.91
   2  21  -9   18.98    0.97
   3  21   9    0.03    0.29
  -3  21  -9    0.58    0.30
   3 -21   9    0.20    0.30
  -3  21   9   -0.13    0.25
   3  21  -9    0.23    0.32
   4  21   9    0.02    0.31
   4  21  -9    0.22    0.29
  -4  21   9    0.29    0.30
   4 -21   9    0.12    0.32
   5  21   9    5.17    0.51
   5 -21   9    5.16    0.51
   5  21  -9    4.94    0.51
  -5  21   9    5.30    0.50
   6  21   9    1.56    0.40
   6  21  -9    1.22    0.45
  -6  21   9    1.07    0.39
   0  21 -10    0.11    0.31
   0  21  10    0.21    0.25
   1  21  10    6.00    0.49
  -1  21 -10    5.40    0.50
  -1  21  10    5.85    0.46
   1  21 -10    6.39    0.55
  -1  21  10    6.82    0.54
  -2  21 -10    1.72    0.37
   2  21  10    1.45    0.33
  -2  21  10    1.28    0.31
   2  21 -10    1.35    0.35
  -3  21 -10    6.24    0.58
   3  21  10    6.87    0.56
  -3  21  10    6.77    0.56
   3  21 -10    6.81    0.56
   4  21  10   11.03    0.73
  -4  21  10   12.43    0.72
   4  21 -10   10.77    0.78
   4 -21  10   11.78    0.78
   5  21  10    0.83    0.36
  -5  21  10    0.75    0.36
   0  21 -11    9.97    0.69
   0  21  11    8.42    0.57
   1  21  11    6.31    0.51
  -1  21 -11    6.25    0.56
   1  21 -11    5.68    0.52
  -1  21  11    6.15    0.47
  -1  21  11    6.33    0.51
   2  21  11    9.45    0.62
  -2  21 -11    9.43    0.66
   2  21 -11    9.80    0.67
  -2  21  11    9.25    0.60
   3  21  11    0.47    0.27
  -3  21 -11    0.39    0.36
   3  21 -11    0.11    0.34
  -3  21  11    0.29    0.32
   4  21  11    0.72    0.34
  -4  21  11    1.18    0.36
   4  21 -11    1.06    0.41
   4 -21  11    0.21    0.36
   5  21  11    3.27    0.45
  -5  21  11    3.37    0.45
   0  21  12   -0.38    0.25
   0  21 -12    0.07    0.34
  -1  21 -12    0.40    0.35
   1  21  12    0.14    0.29
   1  21 -12    0.45    0.35
  -1  21  12    0.50    0.35
  -1  21  12   -0.11    0.24
   2  21  12    2.85    0.36
  -2  21 -12    2.95    0.45
  -2  21  12    3.06    0.41
   2  21 -12    3.53    0.44
   3  21  12    9.07    0.66
  -3  21 -12    9.51    0.73
   3  21 -12   10.04    0.74
  -3  21  12    8.40    0.64
   4  21  12    3.57    0.45
  -4  21  12    3.32    0.41
   0  21 -13    1.61    0.41
   0  21  13    1.35    0.31
  -1  21 -13    1.60    0.36
   1  21  13    1.52    0.33
  -1  21  13    1.34    0.34
  -1  21  13    1.47    0.31
   1  21 -13    1.31    0.40
   2  21  13    0.73    0.32
  -2  21  13    1.16    0.37
   3  21  13    0.09    0.32
  -3  21  13    0.15    0.33
   4  21  13    5.93    0.54
  -4  21  13    5.87    0.54
   0  21  14   -0.12    0.37
   0  21  14   -0.06    0.29
   1  21  14    1.99    0.36
  -1  21  14    3.27    0.45
   2  21  14    0.62    0.33
  -2  21  14    0.30    0.30
   3  21  14    4.86    0.50
  -3  21  14    4.96    0.50
   0  21  15    9.60    0.67
   0  21  15    9.72    0.64
   1  21  15   -0.14    0.29
  -1  21  15    0.23    0.35
   2  21  15    0.31    0.33
  -2  21  15    0.01    0.35
   0  22   0    3.85    0.37
  -1  22   0    0.10    0.22
   1  22   0    0.25    0.25
  -2  22   0    8.47    0.53
  -2  22   0    8.40    0.51
   2  22   0    7.84    0.57
  -3  22   0    0.32    0.25
   3  22   0   -0.17    0.23
  -4  22   0    7.27    0.53
   4  22   0    6.34    0.55
   5  22   0    0.45    0.34
   6  22   0    0.77    0.37
   0  22  -1    0.33    0.24
   0  22   1    0.05    0.23
   1  22   1    0.35    0.25
  -1  22  -1    0.15    0.23
   1  22  -1    0.19    0.26
  -1  22   1    0.46    0.24
   2  22   1    3.75    0.40
  -2  22  -1    4.28    0.37
  -2  22  -1    3.93    0.36
   2  22  -1    3.56    0.40
  -2  22   1    3.36    0.34
  -2  22   1    3.74    0.38
   3  22   1    6.42    0.53
   3  22  -1    5.60    0.49
  -3  22   1    6.21    0.47
   4  22   1    3.29    0.42
  -4  22   1    2.96    0.34
   4  22  -1    2.90    0.41
   5  22   1    0.17    0.34
  -5  22   1    0.40    0.27
   5  22  -1   -0.01    0.33
   6  22   1    0.35    0.36
   6  22  -1    0.29    0.35
   0  22  -2    1.61    0.30
   0  22   2    1.49    0.26
   1  22   2    4.81    0.41
  -1  22  -2    5.92    0.45
  -1  22   2    4.82    0.40
   1  22  -2    4.83    0.42
   2  22   2    8.25    0.57
  -2  22  -2    7.69    0.54
  -2  22   2    8.57    0.54
   2  22  -2    7.64    0.58
   3  22   2   -0.12    0.27
   3  22  -2    0.31    0.31
  -3  22   2    0.36    0.26
   4  22   2    1.82    0.33
   4  22  -2    2.05    0.37
  -4  22   2    1.67    0.31
   5  22   2    8.41    0.67
   5  22  -2    9.67    0.69
  -5  22   2    9.56    0.60
   6  22   2    0.08    0.35
   6  22  -2    0.04    0.30
  -6  22   2    0.56    0.30
   0  22  -3    0.46    0.25
   0  22   3    0.30    0.24
   0  22  -3    0.10    0.23
  -1  22  -3    0.91    0.29
  -1  22  -3    0.55    0.27
   1  22   3    1.03    0.29
   1  22  -3    0.91    0.28
  -1  22   3    1.03    0.25
   1  22  -3    0.63    0.30
  -2  22  -3    3.67    0.36
   2  22   3    2.55    0.36
  -2  22  -3    3.11    0.37
   2  22  -3    2.76    0.36
  -2  22   3    3.27    0.37
   3  22   3    3.22    0.37
  -3  22   3    3.95    0.39
   3  22  -3    3.51    0.43
   4  22   3    4.67    0.47
  -4  22   3    5.43    0.45
   4  22  -3    5.13    0.51
   5  22   3    5.12    0.47
   5  22  -3    5.04    0.48
  -5  22   3    3.99    0.44
   6  22   3    5.78    0.55
   6  22  -3    4.98    0.55
  -6  22   3    5.41    0.49
   0  22  -4    1.53    0.33
   0  22  -4    1.10    0.28
   0  22   4    1.54    0.29
   1  22   4   15.11    0.76
  -1  22  -4   13.73    0.77
   1  22  -4   14.36    0.78
  -1  22   4   14.32    0.72
   1  22  -4   14.14    0.78
  -2  22  -4    0.33    0.26
  -2  22  -4    0.13    0.25
   2  22   4    0.48    0.28
   2  22  -4   -0.01    0.30
  -2  22   4    0.43    0.28
   2  22  -4    0.45    0.27
   3  22   4    0.82    0.31
   3 -22   4    0.81    0.29
  -3  22   4    0.97    0.29
   3  22  -4    0.72    0.34
   3  22  -4    0.96    0.30
   4  22   4    0.51    0.28
   4 -22   4    0.83    0.30
   4  22  -4    0.44    0.35
  -4  22   4    0.73    0.29
   4  22  -4    0.61    0.32
   5  22   4    0.93    0.37
   5  22  -4    0.60    0.32
   5 -22   4    0.65    0.31
   5  22  -4    0.26    0.36
  -5  22   4    0.58    0.31
   6  22   4    0.26    0.37
   6  22  -4    0.07    0.35
   6  22  -4    0.37    0.37
   6 -22   4    0.05    0.32
  -6  22   4    0.65    0.32
   0  22  -5    0.60    0.27
   0  22   5    0.42    0.25
  -1  22  -5    0.11    0.25
   1  22   5    0.15    0.22
   1  22  -5    0.25    0.26
  -1  22   5    0.18    0.24
  -2  22  -5    0.22    0.27
   2  22   5    0.32    0.28
   2  22  -5    0.37    0.28
  -2  22   5    0.62    0.30
   2  22  -5    0.60    0.28
   3  22   5   -0.09    0.29
  -3  22  -5   -0.01    0.29
  -3  22   5    0.04    0.27
   3 -22   5    0.14    0.28
   3  22  -5    0.09    0.27
   3  22  -5   -0.18    0.32
   4  22   5    1.90    0.38
  -4  22   5    2.27    0.35
   4  22  -5    2.89    0.41
   4 -22   5    2.59    0.38
   4  22  -5    2.04    0.38
   5  22   5    2.24    0.42
   5  22  -5    2.66    0.41
  -5  22   5    2.84    0.39
   5  22  -5    2.78    0.45
   5 -22   5    2.69    0.40
   6  22   5    6.69    0.58
  -6  22   5    6.26    0.53
   6  22  -5    4.57    0.54
   6  22  -5    5.29    0.54
   6 -22   5    6.09    0.56
   0  22   6    3.01    0.35
   0  22  -6    2.92    0.38
   1  22   6   14.60    0.75
  -1  22  -6   14.09    0.79
  -1  22   6   13.45    0.71
   1  22  -6   13.74    0.79
   2  22   6    0.63    0.30
  -2  22  -6    0.29    0.28
   2  22  -6    0.84    0.30
  -2  22   6    0.43    0.26
   3  22   6    0.89    0.33
  -3  22  -6    0.55    0.31
   3 -22   6    0.33    0.29
   3  22  -6    0.47    0.30
  -3  22   6    0.15    0.29
   4  22   6    0.11    0.32
   4  22  -6    0.17    0.31
  -4  22   6    0.31    0.29
   4 -22   6    0.81    0.31
   4  22  -6    0.04    0.35
   5  22   6    1.41    0.34
   5  22  -6    1.16    0.36
   5 -22   6    1.15    0.35
   5  22  -6    0.51    0.34
  -5  22   6    0.78    0.33
   6  22   6    0.13    0.36
   6  22  -6    0.00    0.37
  -6  22   6   -0.08    0.30
   0  22  -7    0.30    0.29
   0  22   7    0.20    0.26
   1  22   7    0.52    0.28
  -1  22  -7    0.65    0.26
   1  22  -7    0.36    0.25
  -1  22   7    0.67    0.26
  -2  22  -7    3.51    0.42
   2  22   7    3.77    0.41
   2  22  -7    3.60    0.43
  -2  22   7    3.89    0.42
   3  22   7    6.94    0.53
  -3  22  -7    6.08    0.55
  -3  22   7    7.05    0.55
   3 -22   7    7.09    0.58
   3  22  -7    7.01    0.55
   4  22   7    1.34    0.36
  -4  22   7    1.06    0.29
   4 -22   7    1.65    0.37
   4  22  -7    1.43    0.37
   5  22   7    0.37    0.35
   5  22  -7    0.54    0.35
  -5  22   7    0.03    0.31
   5  22  -7    0.55    0.35
   5 -22   7    0.45    0.33
   6  22   7    1.07    0.40
   6  22  -7    0.99    0.41
  -6  22   7    0.95    0.36
   0  22  -8    7.29    0.59
   0  22   8    7.46    0.52
  -1  22  -8    3.51    0.42
   1  22   8    3.00    0.37
  -1  22   8    3.88    0.36
   1  22  -8    3.01    0.41
   2  22   8    5.96    0.49
  -2  22  -8    6.32    0.55
  -2  22   8    5.78    0.49
   2  22  -8    6.35    0.55
  -3  22  -8    2.18    0.36
   3  22   8    2.00    0.36
  -3  22   8    1.68    0.35
   3  22  -8    1.86    0.38
   4  22   8    0.36    0.34
   4  22  -8    0.52    0.34
   4 -22   8   -0.11    0.31
  -4  22   8    0.53    0.32
   5  22   8    4.82    0.51
  -5  22   8    4.89    0.49
   5  22  -8    4.42    0.53
   5  22  -8    4.74    0.57
   5 -22   8    4.59    0.51
   0  22   9   -0.26    0.25
   0  22  -9    0.32    0.31
   1  22   9    1.22    0.30
  -1  22  -9    1.26    0.31
   1  22  -9    1.22    0.35
  -1  22   9    1.29    0.28
   2  22   9    0.57    0.31
  -2  22  -9    0.52    0.33
   2  22  -9    0.46    0.33
  -2  22   9    0.44    0.32
  -3  22  -9   -0.15    0.33
   3  22   9    0.26    0.31
   3  22  -9    0.59    0.30
  -3  22   9    0.29    0.32
   4  22   9    0.10    0.33
   4  22  -9    0.44    0.31
  -4  22   9    0.52    0.33
   4 -22   9    0.71    0.35
   5  22   9    8.35    0.66
  -5  22   9    7.18    0.60
   0  22  10    0.01    0.26
   0  22 -10    0.01    0.27
  -1  22 -10   -0.13    0.31
   1  22  10    0.35    0.28
   1  22 -10   -0.32    0.31
  -1  22  10    0.40    0.35
  -1  22  10    0.40    0.27
   2  22  10   20.47    1.03
  -2  22 -10   21.77    1.12
  -2  22  10   21.72    1.05
   2  22 -10   21.88    1.13
   3  22  10    0.33    0.32
  -3  22 -10    0.06    0.33
  -3  22  10    0.24    0.32
   3  22 -10    0.28    0.35
   4  22  10    0.31    0.34
  -4  22  10    0.43    0.30
   0  22  11   -0.14    0.26
   0  22 -11    0.13    0.33
  -1  22 -11    0.19    0.33
   1  22  11   -0.09    0.28
  -1  22  11    0.00    0.34
  -1  22  11    0.08    0.26
   1  22 -11    0.11    0.32
   2  22  11    1.05    0.31
  -2  22 -11    1.06    0.37
  -2  22  11    1.00    0.36
   2  22 -11    0.89    0.38
  -3  22 -11    0.09    0.38
   3  22  11    0.48    0.33
  -3  22  11    0.40    0.33
   3  22 -11    0.62    0.33
   4  22  11    0.41    0.35
  -4  22  11    0.46    0.35
   0  22 -12    0.78    0.38
   0  22  12    0.80    0.30
  -1  22 -12    2.60    0.41
   1  22  12    2.18    0.37
  -1  22  12    1.89    0.41
   1  22 -12    2.38    0.44
   2  22  12    0.50    0.32
  -2  22  12    0.58    0.35
   3  22  12   -0.15    0.33
  -3  22  12   -0.08    0.33
   0  22  13   -0.11    0.28
   1  22  13    0.54    0.31
  -1  22  13    0.25    0.37
   2  22  13    3.50    0.43
  -2  22  13    3.68    0.45
   3  22  13    0.65    0.35
  -3  22  13    0.39    0.36
   0  22  14    2.05    0.36
   0  22  14    2.18    0.46
   1  22  14    0.51    0.32
  -1  22  14    0.25    0.38
   0  23   0    0.29    0.26
   1  23   0   -0.09    0.22
  -1  23   0    0.17    0.24
   2  23   0    9.99    0.65
  -2  23   0    9.99    0.60
   3  23   0    0.17    0.26
  -3  23   0    0.01    0.25
   4  23   0    0.11    0.32
   5  23   0    0.16    0.34
   6  23   0   25.65    1.28
   0  23  -1    0.74    0.28
   0  23   1    1.33    0.30
   1  23   1    2.45    0.35
  -1  23  -1    3.08    0.34
   1  23  -1    2.39    0.35
  -1  23   1    2.62    0.33
   2  23   1    0.41    0.25
  -2  23  -1    0.37    0.27
  -2  23   1    0.02    0.28
   2  23  -1   -0.02    0.24
   3  23   1    5.34    0.49
  -3  23   1    6.11    0.48
   3  23  -1    5.66    0.51
   4  23   1    4.14    0.47
  -4  23   1    4.42    0.41
   4  23  -1    4.17    0.47
   5  23   1    0.34    0.32
   5  23  -1    0.53    0.37
   6  23   1    0.99    0.41
   6  23  -1    0.48    0.39
   0  23  -2    0.62    0.28
   0  23   2    0.15    0.25
   1  23   2    2.07    0.33
  -1  23  -2    2.16    0.33
  -1  23   2    2.17    0.31
   1  23  -2    1.64    0.34
  -2  23  -2    3.87    0.40
   2  23   2    4.76    0.44
  -2  23   2    4.71    0.43
   2  23  -2    3.77    0.43
   3  23   2    6.95    0.59
  -3  23   2    7.86    0.54
   3  23  -2    7.71    0.60
   4  23   2    0.48    0.34
  -4  23   2    1.06    0.31
   4  23  -2    1.45    0.38
   5  23   2    0.22    0.30
  -5  23   2    0.10    0.29
   5  23  -2   -0.05    0.35
   6  23   2    9.72    0.75
   6  23  -2    9.90    0.76
   0  23  -3   12.77    0.73
   0  23   3   13.61    0.71
  -1  23  -3    2.75    0.36
   1  23   3    3.05    0.36
  -1  23   3    2.52    0.32
   1  23  -3    2.47    0.38
  -2  23  -3    0.94    0.30
   2  23   3    1.39    0.33
   2  23  -3    0.99    0.33
  -2  23   3    1.14    0.30
   3  23   3    2.44    0.39
  -3  23   3    2.73    0.36
   3  23  -3    2.50    0.40
   4  23   3    8.61    0.66
  -4  23   3    9.37    0.59
   4  23  -3    8.31    0.67
   5  23   3    0.07    0.29
   5  23  -3    0.19    0.31
  -5  23   3    0.01    0.31
   6  23   3    0.07    0.37
   6  23  -3    0.56    0.40
  -6  23   3    0.55    0.34
   0  23   4    0.27    0.26
   0  23  -4    0.22    0.29
   0  23  -4    0.34    0.30
  -1  23  -4    8.35    0.60
   1  23   4   10.11    0.62
  -1  23  -4   10.30    0.65
   1  23  -4   10.56    0.68
  -1  23   4    9.87    0.59
   1  23  -4   10.12    0.66
  -2  23  -4    0.53    0.29
  -2  23  -4    0.63    0.30
   2  23   4    0.31    0.29
  -2  23   4    0.35    0.30
   2  23  -4    0.25    0.33
   3  23   4    8.75    0.62
  -3  23   4    8.02    0.57
   3  23  -4    7.26    0.58
   4  23   4   -0.15    0.27
   4  23  -4    0.19    0.30
  -4  23   4    0.46    0.29
   5  23   4    1.85    0.41
  -5  23   4    2.74    0.39
   5  23  -4    2.57    0.45
   0  23  -5   40.87    1.76
   0  23   5   39.04    1.66
   1  23   5    1.25    0.28
  -1  23  -5    1.48    0.32
   1  23  -5    1.36    0.33
  -1  23   5    1.52    0.30
   1  23  -5    1.04    0.36
   2  23   5    0.56    0.31
  -2  23  -5    0.57    0.29
   2  23  -5    1.07    0.31
   2  23  -5    0.59    0.30
  -2  23   5    0.87    0.32
  -3  23  -5    1.14    0.32
   3  23   5    0.66    0.34
   3  23  -5    0.56    0.31
   3  23  -5    0.41    0.36
  -3  23   5    0.73    0.32
   4  23   5    5.90    0.55
   4  23  -5    5.51    0.57
  -4  23   5    6.25    0.49
   4  23  -5    7.07    0.58
   4 -23   5    6.23    0.54
   5  23   5    2.12    0.43
   5 -23   5    2.30    0.40
   5  23  -5    2.21    0.46
  -5  23   5    2.11    0.38
   5  23  -5    2.05    0.41
   0  23  -6   -0.13    0.27
   0  23   6   -0.02    0.27
   1  23   6    1.55    0.32
  -1  23  -6    1.40    0.32
  -1  23   6    1.56    0.31
   1  23  -6    1.38    0.33
   2  23   6    0.26    0.26
  -2  23  -6   -0.06    0.28
   2  23  -6    0.60    0.30
  -2  23   6    0.11    0.26
  -3  23  -6   18.49    0.99
   3  23   6   18.35    0.95
   3  23  -6   18.50    1.01
  -3  23   6   18.48    0.94
   3  23  -6   20.77    1.02
   4  23   6    6.23    0.54
   4  23  -6    5.63    0.58
  -4  23   6    5.77    0.50
   4  23  -6    5.21    0.54
   4 -23   6    6.07    0.54
   5  23   6   -0.07    0.35
  -5  23   6   -0.10    0.32
   5 -23   6    0.28    0.33
   5  23  -6    0.54    0.35
   5  23  -6   -0.12    0.38
   0  23   7   18.49    0.89
   0  23  -7   17.34    0.95
  -1  23  -7    5.50    0.49
   1  23   7    6.15    0.49
  -1  23   7    6.30    0.48
   1  23  -7    6.19    0.53
   2  23   7    1.05    0.29
  -2  23  -7    0.26    0.31
  -2  23   7    0.11    0.31
   2  23  -7    0.45    0.30
   3  23   7    0.17    0.33
  -3  23  -7    0.46    0.33
   3  23  -7    0.48    0.33
  -3  23   7    0.16    0.30
   4  23   7   14.64    0.85
   4  23  -7   14.67    0.87
   4 -23   7   13.49    0.85
  -4  23   7   13.39    0.79
   4  23  -7   14.20    0.89
   5  23   7    1.26    0.40
   5  23  -7    1.82    0.47
  -5  23   7    2.10    0.39
   0  23   8    0.08    0.29
   0  23  -8    0.45    0.31
   1  23   8    2.15    0.36
  -1  23  -8    2.95    0.41
  -1  23   8    2.80    0.35
   1  23  -8    2.58    0.40
   2  23   8    0.20    0.30
  -2  23  -8    0.60    0.33
  -2  23   8    0.53    0.33
   2  23  -8    1.07    0.31
  -3  23  -8   12.04    0.78
   3  23   8   11.70    0.75
   3  23  -8   12.58    0.80
  -3  23   8   12.00    0.74
   4  23   8    3.36    0.45
  -4  23   8    2.70    0.38
   4 -23   8    3.11    0.45
   4  23  -8    2.86    0.46
   0  23  -9   12.09    0.75
   0  23   9   12.56    0.70
   1  23   9    4.07    0.43
  -1  23  -9    3.93    0.46
   1  23  -9    4.18    0.48
  -1  23   9    3.82    0.38
  -1  23   9    4.65    0.49
  -2  23  -9    2.23    0.41
   2  23   9    1.91    0.36
  -2  23   9    2.69    0.41
   2  23  -9    1.79    0.40
  -3  23  -9    2.74    0.44
   3  23   9    2.86    0.42
  -3  23   9    2.38    0.40
   3  23  -9    2.23    0.43
   4  23   9    0.31    0.35
  -4  23   9    1.09    0.32
   0  23 -10    0.22    0.34
   0  23  10   -0.31    0.27
   1  23  10    5.09    0.46
  -1  23 -10    4.25    0.51
   1  23 -10    4.91    0.53
  -1  23  10    6.13    0.54
  -2  23 -10    2.16    0.43
   2  23  10    2.29    0.38
   2  23 -10    2.57    0.44
  -2  23  10    2.36    0.40
   3  23  10    0.41    0.34
  -3  23  10    0.87    0.35
   4  23  10    1.03    0.38
  -4  23  10    0.95    0.37
   0  23 -11    2.41    0.43
   0  23  11    2.95    0.38
  -1  23 -11    1.69    0.43
   1  23  11    1.57    0.35
  -1  23  11    1.93    0.42
   1  23 -11    2.18    0.42
   2  23  11    2.11    0.37
  -2  23  11    2.52    0.41
   3  23  11    6.86    0.56
  -3  23  11    5.93    0.54
   0  23  12    0.25    0.30
   1  23  12    1.39    0.34
  -1  23  12    1.48    0.37
   2  23  12    0.02    0.33
  -2  23  12    0.07    0.35
   0  23  13    1.11    0.33
   0  23  13    1.06    0.39
   1  23  13    8.82    0.63
  -1  23  13    9.03    0.70
   0  24   0   74.73    2.96
   1  24   0   -0.22    0.27
  -1  24   0    0.42    0.26
   2  24   0   29.70    1.30
  -2  24   0   27.18    1.24
   3  24   0   -0.30    0.31
   4  24   0   19.75    1.01
   5  24   0    0.39    0.36
   0  24   1    0.27    0.28
   0  24  -1    0.20    0.27
   1  24   1   13.72    0.78
  -1  24  -1   14.49    0.76
  -1  24   1   14.00    0.75
   1  24  -1   15.37    0.80
   2  24   1    3.01    0.37
  -2  24   1    3.03    0.38
   2  24  -1    2.67    0.40
   3  24   1   19.76    0.98
   3  24  -1   19.82    1.02
  -3  24   1   19.31    0.96
   4  24   1    7.41    0.61
   4  24  -1    7.41    0.59
   5  24   1    0.24    0.36
   5  24  -1    0.30    0.32
   0  24   2   69.14    2.73
   0  24  -2   68.24    2.74
  -1  24  -2    0.58    0.28
   1  24   2    0.53    0.30
  -1  24   2    0.11    0.28
   1  24  -2    0.55    0.30
   2  24   2   10.70    0.67
   2  24  -2    8.24    0.64
  -2  24   2    9.50    0.62
   3  24   2   22.44    1.09
  -3  24   2   22.57    1.05
   3  24  -2   20.30    1.05
   4  24   2   25.20    1.22
   4  24  -2   26.11    1.24
  -4  24   2   24.71    1.15
   5  24   2    1.62    0.41
   5  24  -2    1.76    0.42
   0  24   3    0.50    0.28
   0  24  -3   -0.11    0.28
   1  24   3   12.07    0.71
  -1  24  -3   11.51    0.69
   1  24  -3   12.56    0.74
  -1  24   3   12.89    0.69
   2  24   3    2.76    0.37
  -2  24   3    3.55    0.41
   2  24  -3    3.44    0.44
   3  24   3   18.91    0.98
   3  24  -3   18.38    1.00
  -3  24   3   19.08    0.94
   4  24   3    0.92    0.33
  -4  24   3    0.57    0.30
   4  24  -3    0.88    0.37
   5  24   3    0.90    0.39
   5  24  -3    1.50    0.42
  -5  24   3    1.63    0.36
   0  24   4   27.65    1.21
   0  24  -4   26.22    1.23
  -1  24  -4    8.91    0.62
   1  24   4    9.60    0.63
  -1  24   4   10.25    0.63
   1  24  -4    9.49    0.66
   2  24   4   15.29    0.81
  -2  24  -4   13.07    0.80
  -2  24   4   14.05    0.75
   2  24  -4   13.58    0.82
   3  24   4    8.32    0.61
   3  24  -4    9.17    0.69
  -3  24   4    9.25    0.61
   4  24   4   11.90    0.78
  -4  24   4   11.88    0.71
   4  24  -4   11.91    0.81
   5  24   4    0.60    0.38
   5  24  -4   -0.05    0.31
  -5  24   4    0.13    0.31
   0  24   5    0.68    0.29
   0  24  -5    0.40    0.32
   0  24  -5    0.36    0.32
  -1  24  -5    6.50    0.53
   1  24   5    7.87    0.57
   1  24  -5    6.21    0.55
  -1  24   5    7.25    0.52
  -2  24  -5    3.10    0.38
   2  24   5    2.91    0.40
  -2  24   5    2.37    0.39
   2  24  -5    2.72    0.40
   3  24   5    2.15    0.41
  -3  24   5    2.68    0.38
   3  24  -5    1.48    0.41
   4  24   5   -0.07    0.34
   4  24  -5    0.26    0.38
  -4  24   5    0.25    0.31
   5  24   5    2.24    0.44
   5  24  -5    1.65    0.44
   0  24  -6    5.18    0.50
   0  24   6    5.45    0.47
   1  24   6   -0.28    0.29
  -1  24  -6   -0.03    0.29
  -1  24   6    0.09    0.26
   1  24  -6   -0.23    0.29
   2  24   6    0.80    0.30
  -2  24  -6    1.09    0.33
   2  24  -6    1.25    0.34
   2  24  -6    0.69    0.37
  -2  24   6    1.14    0.30
  -3  24  -6   13.97    0.84
   3  24   6   15.49    0.85
  -3  24   6   14.36    0.80
   3  24  -6   12.63    0.86
   3  24  -6   14.69    0.86
   4  24   6    3.64    0.48
   4  24  -6    3.12    0.46
   4  24  -6    3.93    0.52
   4 -24   6    3.90    0.46
  -4  24   6    3.35    0.42
   0  24   7    0.17    0.29
   0  24  -7    0.45    0.31
   1  24   7    0.18    0.26
  -1  24  -7    0.95    0.33
   1  24  -7    0.53    0.32
  -1  24   7    0.56    0.28
   2  24   7   14.93    0.82
  -2  24  -7   13.91    0.84
   2  24  -7   13.54    0.85
  -2  24   7   14.82    0.82
  -3  24  -7    2.16    0.40
   3  24   7    2.55    0.42
   3  24  -7    2.36    0.41
   3  24  -7    2.13    0.46
  -3  24   7    2.48    0.39
   4  24   7    0.21    0.35
  -4  24  -7    0.28    0.38
   4  24  -7    0.67    0.35
  -4  24   7   -0.02    0.32
   4  24  -7    0.13    0.40
   4 -24   7    0.49    0.30
   0  24  -8    1.92    0.39
   0  24   8    1.41    0.33
  -1  24  -8    0.02    0.32
   1  24   8    0.08    0.30
   1  24  -8    0.28    0.28
  -2  24  -8    3.21    0.44
   2  24   8    2.36    0.40
   2  24  -8    3.07    0.44
  -2  24   8    2.30    0.42
  -3  24  -8    9.00    0.69
   3  24   8    8.79    0.68
  -3  24   8    9.42    0.62
   3  24  -8    9.65    0.72
   4  24   8    2.07    0.39
  -4  24   8    1.89    0.40
   4  24  -8    1.94    0.48
   0  24   9    0.27    0.30
   0  24  -9    0.25    0.34
  -1  24  -9    0.74    0.36
   1  24   9    0.34    0.32
  -1  24   9    0.29    0.38
   1  24  -9    0.51    0.35
   2  24   9    0.72    0.33
  -2  24  -9    1.29    0.38
  -2  24   9    1.51    0.39
   2  24  -9    1.35    0.40
   3  24   9    6.19    0.55
  -3  24   9    5.99    0.55
   0  24  10    5.82    0.48
   0  24 -10    5.97    0.59
   1  24  10    0.50    0.32
  -1  24  10    0.19    0.37
   2  24  10    0.15    0.33
  -2  24  10    0.32    0.30
   0  24  11   -0.13    0.29
   1  24  11    0.41    0.32
  -1  24  11    0.44    0.38
   0  25   0    0.89    0.31
  -1  25   0    0.19    0.29
   1  25   0   -0.02    0.30
   2  25   0    2.87    0.42
  -2  25   0    3.07    0.39
   3  25   0    0.29    0.34
   4  25   0    1.90    0.42
   0  25  -1    6.79    0.55
   0  25   1    7.22    0.55
  -1  25  -1    1.49    0.31
   1  25   1    1.61    0.34
   1  25  -1    1.12    0.34
  -1  25   1    1.51    0.33
   2  25   1    2.93    0.38
  -2  25   1    2.27    0.37
   2  25  -1    2.28    0.39
   3  25   1   14.70    0.86
   3  25  -1   13.95    0.82
  -3  25   1   15.04    0.79
   4  25   1    1.03    0.40
   4  25  -1    1.20    0.40
   0  25  -2    0.69    0.31
   0  25   2    0.60    0.30
   1  25   2    0.18    0.31
  -1  25  -2    0.30    0.28
   1  25  -2    0.14    0.30
  -1  25   2   -0.03    0.29
   2  25   2    1.96    0.38
   2  25  -2    1.94    0.37
  -2  25   2    1.88    0.36
   3  25   2    3.28    0.44
   3  25  -2    3.86    0.47
  -3  25   2    3.65    0.44
   4  25   2    9.50    0.71
   4  25  -2    7.57    0.66
  -4  25   2    9.40    0.65
   0  25   3   31.00    1.38
   0  25  -3   31.95    1.41
   1  25   3    0.34    0.30
  -1  25  -3    0.30    0.30
  -1  25   3    0.32    0.28
   1  25  -3    0.45    0.32
   2  25   3    1.75    0.36
  -2  25   3    0.85    0.33
   2  25  -3    1.19    0.33
   3  25   3   19.52    1.00
   3  25  -3   19.23    1.04
  -3  25   3   20.54    0.99
   4  25   3    5.31    0.55
   4  25  -3    4.61    0.54
  -4  25   3    5.86    0.50
   0  25   4    0.19    0.29
   0  25  -4    0.35    0.32
   1  25   4   11.35    0.73
  -1  25  -4   12.67    0.74
   1  25  -4   12.93    0.77
  -1  25   4   12.90    0.71
   2  25   4    1.27    0.32
   2  25  -4    1.28    0.38
  -2  25   4    1.31    0.35
   3  25   4   10.83    0.74
   3  25  -4   10.67    0.77
  -3  25   4   10.88    0.69
   4  25   4    6.05    0.57
  -4  25   4    6.21    0.52
   4  25  -4    5.54    0.55
   0  25   5   75.69    2.83
   0  25  -5   65.76    2.84
  -1  25  -5    1.10    0.35
   1  25   5    1.37    0.35
  -1  25   5    1.61    0.33
   1  25  -5    1.36    0.37
   2  25   5    5.54    0.51
  -2  25   5    5.46    0.50
   2  25  -5    4.77    0.53
   3  25   5    9.44    0.71
   3  25  -5    9.30    0.73
  -3  25   5   10.23    0.67
   4  25   5   18.81    1.03
  -4  25   5   18.85    0.97
   4  25  -5   19.68    1.07
   0  25   6    0.00    0.30
   0  25  -6   -0.25    0.32
  -1  25  -6   17.99    0.96
   1  25   6   19.79    0.97
   1  25  -6   18.07    0.99
   2  25   6    0.65    0.30
  -2  25   6    0.93    0.36
   2  25  -6   -0.20    0.31
   3  25   6   31.10    1.38
   3  25  -6   27.71    1.36
  -3  25   6   28.47    1.33
   0  25   7   30.59    1.36
   0  25  -7   30.87    1.46
  -1  25  -7    5.20    0.52
   1  25   7    4.31    0.46
   1  25  -7    4.14    0.48
   2  25   7   16.01    0.87
  -2  25  -7   14.65    0.88
  -2  25   7   15.55    0.86
   2  25  -7   14.31    0.87
   2  25  -7   15.20    0.90
  -3  25  -7    0.83    0.36
   3  25   7    1.43    0.39
   3  25  -7    1.85    0.41
  -3  25   7    1.75    0.39
   3  25  -7    1.56    0.45
   0  25  -8    0.22    0.33
   0  25   8   -0.18    0.29
  -1  25  -8   23.23    1.21
   1  25   8   24.95    1.14
  -1  25   8   22.67    1.16
   1  25  -8   23.72    1.22
  -2  25  -8    2.47    0.44
   2  25   8    2.78    0.39
  -2  25   8    3.10    0.45
   2  25  -8    3.21    0.48
   0  25   9   19.47    0.97
   1  25   9    2.82    0.41
  -1  25   9    3.22    0.44
   0  26   0   40.72    1.74
   1  26   0    0.15    0.32
  -1  26   0    0.21    0.29
   2  26   0    7.37    0.57
   3  26   0   -0.04    0.30
   0  26  -1    0.24    0.30
   0  26   1    0.11    0.30
  -1  26  -1   18.87    0.93
   1  26   1   15.99    0.92
   1  26  -1   15.60    0.92
  -1  26   1   20.24    0.92
   2  26   1    0.10    0.29
  -2  26   1   -0.02    0.30
   2  26  -1    0.46    0.34
   3  26   1   21.34    1.11
   3  26  -1   21.84    1.12
   0  26   2   42.66    1.74
   0  26  -2   38.72    1.73
   1  26   2    6.11    0.52
  -1  26  -2    5.27    0.47
   1  26  -2    4.24    0.48
  -1  26   2    5.78    0.49
   2  26   2    1.63    0.35
  -2  26   2    2.60    0.40
   2  26  -2    1.41    0.39
   3  26   2    1.08    0.38
   3  26  -2    0.87    0.38
  -3  26   2    0.94    0.33
   0  26   3    0.23    0.31
   0  26  -3    0.25    0.32
   1  26   3   12.49    0.76
  -1  26  -3   13.38    0.75
   1  26  -3   11.74    0.76
   2  26   3    8.79    0.66
  -2  26   3    8.58    0.62
   2  26  -3    8.10    0.66
   3  26   3   16.28    0.90
   3  26  -3   13.79    0.89
  -3  26   3   15.17    0.83
   0  26  -4   16.76    0.92
   0  26   4   17.04    0.91
  -1  26  -4    3.89    0.45
   1  26   4    4.56    0.47
   1  26  -4    3.59    0.47
   2  26   4   13.79    0.80
  -2  26   4   12.80    0.77
   2  26  -4   11.51    0.81
   3  26   4   12.79    0.80
   3  26  -4   11.05    0.76
   0  26  -5    0.89    0.35
   0  26   5    0.57    0.32
   1  26   5   12.50    0.75
  -1  26  -5   11.79    0.73
   1  26  -5   10.83    0.76
   2  26   5    8.37    0.65
   2  26  -5    8.40    0.69
  -2  26   5    7.58    0.63
   0  26  -6   13.95    0.86
   0  26   6   15.94    0.84
   1  26   6    1.79    0.38
  -1  26  -6    1.81    0.38
   1  26  -6    1.02    0.39
   2  26   6    2.74    0.43
   2  26  -6    1.98    0.40
  -2  26   6    2.23    0.42
   0  26  -7    0.08    0.36
   0  26   7    0.05    0.31
   1  26   7    1.03    0.34
   1  26  -7    0.18    0.36
  -1  26   7    0.94    0.40
   0  27   0    0.63    0.32
  -1  27   0    0.51    0.34
   1  27   0    0.16    0.32
   0  27   1   18.59    0.99
   0  27  -1   20.24    1.02
   1  27   1    4.92    0.51
  -1  27  -1    5.20    0.48
   1  27  -1    4.96    0.50
   0  27  -2    0.76    0.33
   0  27   2    0.48    0.33
  -1  27  -2    5.44    0.49
   1  27   2    5.35    0.51
   1  27  -2    5.65    0.53
   0  27   3   15.36    0.86
   0  27  -3   15.93    0.87
   1  27   3    1.33    0.38
  -1  27  -3    1.29    0.35
   1  27  -3    1.03    0.34
   0   0   0    0.00    0.00
;
_shelx_hkl_checksum              29089
_shelx_shelxl_version_number     2014/7
_olex2_submission_special_instructions 'No special instructions were received'
loop_
_space_group_symop_operation_xyz
'x, y, z'
'-x+1/2, -y, z+1/2'
'-x, y+1/2, -z'
'x+1/2, -y+1/2, -z+1/2'
'-x, -y, -z'
'x-1/2, y, -z-1/2'
'x, -y-1/2, z'
'-x-1/2, y-1/2, z-1/2'
loop_
_atom_site_label
_atom_site_type_symbol
_atom_site_fract_x
_atom_site_fract_y
_atom_site_fract_z
_atom_site_U_iso_or_equiv
_atom_site_adp_type
_atom_site_occupancy
_atom_site_site_symmetry_order
_atom_site_calc_flag
_atom_site_refinement_flags_posn
_atom_site_refinement_flags_adp
_atom_site_refinement_flags_occupancy
_atom_site_disorder_assembly
_atom_site_disorder_group
Zn1 Zn 0.46879(18) 0.32910(4) 0.52787(6) 0.0128(3) Uani 0.928(6) 1 d . U . A 1
Zn2 Zn 0.21529(10) 0.7500 0.45032(4) 0.0183(2) Uani 1 2 d S T P . .
O1 O 0.5507(5) 0.2500 0.5796(2) 0.0127(9) Uani 1 2 d DS T P . .
O2 O 0.3087(4) 0.67472(17) 0.52108(18) 0.0189(8) Uani 1 1 d . . . . .
O3 O 0.1070(4) 0.65706(19) 0.5943(2) 0.0244(8) Uani 1 1 d . . . . .
O4 O 0.1465(4) 0.80501(15) 0.93974(17) 0.0146(7) Uani 1 1 d . . . . .
O8 O 0.0067(6) 0.7500 0.5043(3) 0.0235(11) Uani 1 2 d S T P . .
H8 H 0.0035 0.7184 0.5369 0.035 Uiso 1 1 d R . . . .
O5 O 0.4634(5) 0.42065(18) 0.55503(19) 0.0278(9) Uani 1 1 d . U . . .
O9 O 0.1591(5) 0.67623(19) 0.3769(2) 0.0290(9) Uani 1 1 d . . . . .
H9A H 0.2051 0.6873 0.3363 0.044 Uiso 1 1 d R . . . .
H9B H 0.1891 0.6386 0.3851 0.044 Uiso 1 1 d R . . . .
O6 O 0.5876(6) 0.39753(19) 0.6580(2) 0.0345(10) Uani 1 1 d . . . . .
C10 C 0.2807(5) 0.6908(2) 0.8025(2) 0.0093(9) Uani 1 1 d . . . . .
H10 H 0.2636 0.6514 0.8267 0.011 Uiso 1 1 calc R . . . .
C2 C 0.3435(5) 0.6074(2) 0.6276(2) 0.0107(9) Uani 1 1 d . . . . .
C9 C 0.3638(7) 0.7500 0.6962(3) 0.0082(12) Uani 1 2 d S T P . .
H9 H 0.3972 0.7500 0.6479 0.010 Uiso 1 2 calc RS T P . .
C6 C 0.4733(5) 0.5837(2) 0.7406(2) 0.0124(9) Uani 1 1 d . . . . .
H6 H 0.5046 0.5968 0.7870 0.015 Uiso 1 1 calc R . . . .
C3 C 0.3876(6) 0.5459(2) 0.6017(2) 0.0141(10) Uani 1 1 d . . . . .
H3 H 0.3610 0.5336 0.5545 0.017 Uiso 1 1 calc R . . . .
C8 C 0.3392(5) 0.6905(2) 0.7318(2) 0.0092(9) Uani 1 1 d . . . . .
C5 C 0.5168(6) 0.5227(2) 0.7152(3) 0.0157(10) Uani 1 1 d . . . . .
H5 H 0.5764 0.4952 0.7444 0.019 Uiso 1 1 calc R . . . .
C7 C 0.3833(5) 0.6264(2) 0.6985(2) 0.0088(8) Uani 1 1 d . . . . .
C1 C 0.2434(5) 0.6497(2) 0.5789(2) 0.0108(9) Uani 1 1 d . . . . .
C13 C 0.5110(7) 0.4358(2) 0.6183(3) 0.0238(12) Uani 1 1 d . . . . .
C11 C 0.2473(7) 0.7500 0.8374(3) 0.0084(12) Uani 1 2 d S T P . .
C4 C 0.4709(6) 0.5026(2) 0.6454(2) 0.0151(10) Uani 1 1 d . . . . .
C12 C 0.1773(7) 0.7500 0.9118(3) 0.0074(12) Uani 1 2 d S T P . .
O7 O 0.230(3) 0.3010(15) 0.5871(10) 0.032(5) Uani 0.36(6) 1 d . U . A 1
H7A H 0.1522 0.3230 0.5668 0.048 Uiso 1 1 d R . . . .
H7B H 0.2387 0.3152 0.6330 0.048 Uiso 1 1 d R . . . .
O12 O 0.0482(9) 0.4128(4) 0.5728(5) 0.0264(16) Uani 0.5 1 d . U . B -1
C14 C 0.0486(19) 0.4542(9) 0.5215(9) 0.020(3) Uani 0.5 1 d . U . B -1
N2 N -0.0425(10) 0.5064(5) 0.5185(5) 0.0212(18) Uani 0.5 1 d . U . B -1
C15 C 0.1484(15) 0.4514(6) 0.4546(7) 0.020(2) Uani 0.5 1 d . U . B -1
H15A H 0.2571 0.4550 0.4673 0.024 Uiso 0.5 1 calc R . . B -1
H15B H 0.1320 0.4108 0.4280 0.024 Uiso 0.5 1 calc R . . B -1
C16 C 0.099(3) 0.5073(10) 0.4118(9) 0.092(9) Uani 0.5 1 d . U . B -1
H16A H 0.0533 0.4923 0.3663 0.111 Uiso 0.5 1 calc R . . B -1
H16B H 0.1874 0.5346 0.4001 0.111 Uiso 0.5 1 calc R . . B -1
C17 C -0.018(2) 0.5466(8) 0.4536(8) 0.022(3) Uani 0.5 1 d . . . B -1
H17A H 0.0228 0.5895 0.4663 0.026 Uiso 0.5 1 calc R . . B -1
H17B H -0.1128 0.5520 0.4260 0.026 Uiso 0.5 1 calc R . . B -1
C18 C -0.1506(15) 0.5263(8) 0.5742(8) 0.026(3) Uani 0.5 1 d . . . B -1
H18A H -0.2537 0.5256 0.5547 0.038 Uiso 0.5 1 calc GR . . B -1
H18B H -0.1259 0.5698 0.5904 0.038 Uiso 0.5 1 calc GR . . B -1
H18C H -0.1442 0.4965 0.6148 0.038 Uiso 0.5 1 calc GR . . B -1
Zn1A Zn 0.411(2) 0.3212(5) 0.5443(7) 0.010(3) Uani 0.072(6) 1 d . U . A 2
O7A O 0.264(2) 0.3239(12) 0.5929(9) 0.044(5) Uani 0.64(6) 1 d . U . A 2
O13 O 0.0922(18) 0.3380(10) 0.7116(7) 0.109(7) Uani 0.5 1 d . . . C -1
H13A H 0.0868 0.3432 0.7581 0.164 Uiso 0.5 1 d R . . C -1
H13B H 0.0503 0.3683 0.6899 0.164 Uiso 0.5 1 d R . . C -1
O14 O -0.027(3) 0.2159(8) 0.7680(7) 0.147(10) Uani 0.5 1 d . . . D -1
H14A H -0.0266 0.1761 0.7823 0.220 Uiso 0.5 1 d R . . D -1
H14B H -0.0077 0.2342 0.7273 0.220 Uiso 0.5 1 d R . . D -1
H1 H 0.51(3) 0.2500 0.620(6) 0.220 Uiso 1 2 d DRS T P . .
loop_
_atom_site_aniso_label
_atom_site_aniso_U_11
_atom_site_aniso_U_22
_atom_site_aniso_U_33
_atom_site_aniso_U_23
_atom_site_aniso_U_13
_atom_site_aniso_U_12
Zn1 0.0191(6) 0.0080(3) 0.0112(4) -0.0028(2) -0.0045(4) 0.0027(3)
Zn2 0.0183(4) 0.0197(4) 0.0170(4) 0.000 -0.0016(3) 0.000
O1 0.017(2) 0.009(2) 0.013(2) 0.000 -0.0012(18) 0.000
O2 0.0212(18) 0.0208(18) 0.0148(17) 0.0070(14) 0.0014(14) 0.0030(15)
O3 0.024(2) 0.026(2) 0.0232(19) 0.0077(16) 0.0055(15) 0.0017(16)
O4 0.0232(18) 0.0091(16) 0.0114(15) -0.0016(12) 0.0065(13) 0.0019(14)
O8 0.017(2) 0.034(3) 0.019(2) 0.000 0.002(2) 0.000
O5 0.056(2) 0.0127(17) 0.0144(16) -0.0050(14) -0.0034(16) 0.0110(17)
O9 0.033(2) 0.0227(19) 0.031(2) -0.0043(17) -0.0062(18) -0.0020(17)
O6 0.065(3) 0.0166(19) 0.0220(19) -0.0025(16) -0.003(2) 0.020(2)
C10 0.013(2) 0.004(2) 0.011(2) 0.0019(16) -0.0037(17) -0.0001(16)
C2 0.017(2) 0.006(2) 0.009(2) 0.0032(17) 0.0044(17) -0.0023(18)
C9 0.004(3) 0.014(3) 0.007(3) 0.000 0.002(2) 0.000
C6 0.019(2) 0.010(2) 0.007(2) -0.0022(17) -0.0013(17) 0.0020(19)
C3 0.025(3) 0.009(2) 0.008(2) -0.0028(17) 0.0008(18) -0.0006(19)
C8 0.010(2) 0.007(2) 0.011(2) -0.0006(16) -0.0018(17) -0.0006(17)
C5 0.024(2) 0.010(2) 0.013(2) 0.0036(18) 0.0003(19) 0.005(2)
C7 0.010(2) 0.006(2) 0.010(2) -0.0005(16) 0.0051(16) -0.0025(16)
C1 0.012(2) 0.008(2) 0.012(2) -0.0023(17) -0.0012(17) -0.0025(17)
C13 0.049(4) 0.009(2) 0.014(2) -0.0013(19) 0.004(2) 0.003(2)
C11 0.009(3) 0.011(3) 0.005(3) 0.000 -0.001(2) 0.000
C4 0.029(3) 0.006(2) 0.010(2) -0.0015(17) 0.0006(19) 0.0026(19)
C12 0.005(3) 0.011(3) 0.007(3) 0.000 -0.002(2) 0.000
O7 0.032(5) 0.032(6) 0.031(6) 0.001(2) -0.001(2) 0.001(2)
O12 0.022(4) 0.025(4) 0.033(4) 0.007(3) -0.001(3) 0.002(3)
C14 0.018(6) 0.020(5) 0.022(6) -0.003(4) -0.003(4) -0.003(4)
N2 0.022(4) 0.021(4) 0.021(5) -0.003(4) -0.004(3) -0.001(3)
C15 0.024(5) 0.013(6) 0.023(5) -0.004(4) -0.002(4) -0.002(4)
C16 0.155(19) 0.075(11) 0.047(8) 0.036(9) 0.067(10) 0.088(13)
C17 0.030(8) 0.017(7) 0.019(8) -0.002(6) -0.003(6) -0.001(6)
C18 0.020(6) 0.025(8) 0.032(8) 0.000(6) 0.003(6) 0.006(6)
Zn1A 0.010(3) 0.009(3) 0.010(3) -0.0005(10) -0.0007(10) 0.0003(10)
O7A 0.039(6) 0.038(9) 0.056(6) 0.019(6) 0.034(4) 0.010(5)
O13 0.087(10) 0.197(19) 0.045(7) -0.064(10) -0.011(7) 0.042(11)
O14 0.30(3) 0.102(12) 0.033(7) 0.014(7) -0.060(12) -0.006(15)
loop_
_atom_type_symbol
_atom_type_description
_atom_type_scat_dispersion_real
_atom_type_scat_dispersion_imag
_atom_type_scat_source
C C 0.0033 0.0016 'International Tables Vol C Tables 4.2.6.8 and 6.1.1.4'
H H 0.0000 0.0000 'International Tables Vol C Tables 4.2.6.8 and 6.1.1.4'
N N 0.0061 0.0033 'International Tables Vol C Tables 4.2.6.8 and 6.1.1.4'
O O 0.0106 0.0060 'International Tables Vol C Tables 4.2.6.8 and 6.1.1.4'
Zn Zn 0.2839 1.4301 'International Tables Vol C Tables 4.2.6.8 and 6.1.1.4'
loop_
_geom_angle_atom_site_label_1
_geom_angle_atom_site_label_2
_geom_angle_atom_site_label_3
_geom_angle
_geom_angle_site_symmetry_1
_geom_angle_site_symmetry_3
O1 Zn1 O2 81.37(17) . 5_666
O1 Zn1 O7 84.1(6) . .
O2 Zn1 O7 163.8(7) 5_666 .
O4 Zn1 O1 111.56(14) 8_655 .
O4 Zn1 O2 95.94(15) 8_655 5_666
O4 Zn1 O7 82.8(4) 8_655 .
O5 Zn1 O1 131.76(15) . .
O5 Zn1 O2 99.56(18) . 5_666
O5 Zn1 O4 116.23(15) . 8_655
O5 Zn1 O7 95.4(6) . .
O1 Zn2 O2 78.29(13) 5_666 7_575
O1 Zn2 O2 78.29(13) 5_666 .
O2 Zn2 O2 90.35(19) 7_575 .
O8 Zn2 O1 166.4(2) . 5_666
O8 Zn2 O2 92.22(14) . 7_575
O8 Zn2 O2 92.22(14) . .
O8 Zn2 O9 96.11(16) . 7_575
O8 Zn2 O9 96.11(16) . .
O9 Zn2 O1 93.23(15) 7_575 5_666
O9 Zn2 O1 93.23(15) . 5_666
O9 Zn2 O2 171.52(16) . 7_575
O9 Zn2 O2 171.52(16) 7_575 .
O9 Zn2 O2 87.73(15) . .
O9 Zn2 O2 87.74(15) 7_575 7_575
O9 Zn2 O9 93.0(2) 7_575 .
Zn1 O1 Zn1 107.5(2) . 7_565
Zn1 O1 Zn2 102.57(16) 7_565 5_666
Zn1 O1 Zn2 102.57(16) . 5_666
Zn1 O1 H1 106(10) 7_565 .
Zn1 O1 H1 106(10) . .
Zn2 O1 H1 131(10) 5_666 .
Zn1A O1 Zn2 120.0(6) 7_565 5_666
Zn1A O1 Zn2 120.0(6) . 5_666
Zn1A O1 Zn1A 93.2(8) 7_565 .
Zn1A O1 H1 92(10) 7_565 .
Zn1A O1 H1 92(10) . .
Zn1 O2 Zn2 96.36(14) 5_666 .
C1 O2 Zn1 136.1(3) . 5_666
C1 O2 Zn2 127.0(3) . .
C12 O4 Zn1 131.6(3) . 8_666
C12 O4 Zn1A 125.8(5) . 8_666
Zn2 O8 H8 110.7 . .
C13 O5 Zn1 117.5(3) . .
C13 O5 Zn1A 113.2(4) . .
Zn2 O9 H9A 105.0 . .
Zn2 O9 H9B 119.0 . .
H9A O9 H9B 104.6 . .
C8 C10 H10 119.8 . .
C8 C10 C11 120.4(4) . .
C11 C10 H10 119.8 . .
C3 C2 C7 119.9(4) . .
C3 C2 C1 118.1(4) . .
C7 C2 C1 121.9(4) . .
C8 C9 H9 119.5 7_575 .
C8 C9 H9 119.5 . .
C8 C9 C8 121.0(5) . 7_575
C5 C6 H6 119.1 . .
C5 C6 C7 121.7(4) . .
C7 C6 H6 119.1 . .
C2 C3 H3 119.4 . .
C2 C3 C4 121.2(4) . .
C4 C3 H3 119.4 . .
C10 C8 C9 119.2(4) . .
C10 C8 C7 118.6(4) . .
C9 C8 C7 122.1(4) . .
C6 C5 H5 120.1 . .
C6 C5 C4 119.7(4) . .
C4 C5 H5 120.1 . .
C2 C7 C6 118.4(4) . .
C2 C7 C8 124.1(4) . .
C6 C7 C8 117.5(4) . .
O2 C1 C2 117.0(4) . .
O3 C1 O2 123.9(4) . .
O3 C1 C2 119.0(4) . .
O5 C13 C4 116.8(5) . .
O6 C13 O5 123.3(5) . .
O6 C13 C4 119.8(4) . .
C10 C11 C10 119.7(5) . 7_575
C10 C11 C12 120.1(3) . .
C10 C11 C12 120.1(3) 7_575 .
C3 C4 C5 118.9(4) . .
C3 C4 C13 120.6(4) . .
C5 C4 C13 120.5(4) . .
O4 C12 O4 125.6(5) 7_575 .
O4 C12 C11 117.1(3) . .
O4 C12 C11 117.1(3) 7_575 .
Zn1 O7 H7A 109.9 . .
Zn1 O7 H7B 106.0 . .
H7A O7 H7B 106.9 . .
O12 C14 N2 124.5(14) . .
O12 C14 C15 125.7(15) . .
N2 C14 C15 109.8(14) . .
C14 N2 C17 113.4(9) . .
C14 N2 C18 125.5(12) . .
C18 N2 C17 120.9(11) . .
C14 C15 H15A 111.0 . .
C14 C15 H15B 111.0 . .
H15A C15 H15B 109.0 . .
C16 C15 C14 104.0(12) . .
C16 C15 H15A 111.0 . .
C16 C15 H15B 111.0 . .
C15 C16 H16A 109.6 . .
C15 C16 H16B 109.6 . .
C15 C16 C17 110.1(12) . .
H16A C16 H16B 108.1 . .
C17 C16 H16A 109.6 . .
C17 C16 H16B 109.6 . .
N2 C17 C16 102.3(12) . .
N2 C17 H17A 111.3 . .
N2 C17 H17B 111.3 . .
C16 C17 H17A 111.3 . .
C16 C17 H17B 111.3 . .
H17A C17 H17B 109.2 . .
N2 C18 H18A 109.5 . .
N2 C18 H18B 109.5 . .
N2 C18 H18C 109.5 . .
H18A C18 H18B 109.5 . .
H18A C18 H18C 109.5 . .
H18B C18 H18C 109.5 . .
O1 Zn1A O4 109.8(5) . 8_655
O1 Zn1A O5 122.9(7) . .
O1 Zn1A Zn1A 43.4(4) . 7_565
O4 Zn1A O5 107.7(6) 8_655 .
O4 Zn1A Zn1A 80.5(3) 8_655 7_565
O5 Zn1A Zn1A 166.2(3) . 7_565
O7A Zn1A O1 109.6(9) . .
O7A Zn1A O4 110.7(12) . 8_655
O7A Zn1A O5 95.2(11) . .
O7A Zn1A Zn1A 92.0(10) . 7_565
H7A O7A H7B 99.5 . .
Zn1A O7A H7A 118.6 . .
Zn1A O7A H7B 138.9 . .
H13A O13 H13B 111.2 . .
H14A O14 H14B 133.3 . .
loop_
_geom_bond_atom_site_label_1
_geom_bond_atom_site_label_2
_geom_bond_distance
_geom_bond_site_symmetry_2
Zn1 O1 2.000(3) .
Zn1 O2 2.122(4) 5_666
Zn1 O4 1.959(3) 8_655
Zn1 O5 1.933(4) .
Zn1 O7 2.40(3) .
Zn2 O1 2.094(5) 5_666
Zn2 O2 2.165(3) 7_575
Zn2 O2 2.165(3) .
Zn2 O8 2.055(5) .
Zn2 O9 2.075(4) 7_575
Zn2 O9 2.075(4) .
O1 Zn1 2.000(3) 7_565
O1 Zn2 2.094(5) 5_666
O1 Zn1A 1.998(10) .
O1 Zn1A 1.998(10) 7_565
O1 H1 0.81(2) .
O2 Zn1 2.122(4) 5_666
O2 C1 1.302(6) .
O3 C1 1.220(6) .
O4 Zn1 1.959(3) 8_666
O4 C12 1.261(4) .
O4 Zn1A 2.003(10) 8_666
O8 H8 0.8790 .
O5 C13 1.267(6) .
O5 Zn1A 2.089(12) .
O9 H9A 0.8730 .
O9 H9B 0.8232 .
O6 C13 1.254(7) .
C10 H10 0.9300 .
C10 C8 1.389(6) .
C10 C11 1.396(5) .
C2 C3 1.393(6) .
C2 C7 1.398(6) .
C2 C1 1.513(6) .
C9 H9 0.9300 .
C9 C8 1.394(5) .
C9 C8 1.394(5) 7_575
C6 H6 0.9300 .
C6 C5 1.380(6) .
C6 C7 1.399(6) .
C3 H3 0.9300 .
C3 C4 1.393(7) .
C8 C7 1.492(6) .
C5 H5 0.9300 .
C5 C4 1.399(7) .
C13 C4 1.491(6) .
C11 C10 1.396(5) 7_575
C11 C12 1.490(8) .
C12 O4 1.261(4) 7_575
O7 H7A 0.8902 .
O7 H7B 0.8913 .
O12 C14 1.265(19) .
C14 N2 1.32(2) .
C14 C15 1.50(2) .
N2 C17 1.460(17) .
N2 C18 1.440(15) .
C15 H15A 0.9700 .
C15 H15B 0.9700 .
C15 C16 1.448(19) .
C16 H16A 0.9700 .
C16 H16B 0.9700 .
C16 C17 1.50(2) .
C17 H17A 0.9700 .
C17 H17B 0.9700 .
C18 H18A 0.9600 .
C18 H18B 0.9600 .
C18 H18C 0.9600 .
Zn1A O4 2.003(10) 8_655
Zn1A Zn1A 2.90(2) 7_565
Zn1A O7A 1.55(2) .
O7A H7A 1.0748 .
O7A H7B 0.7852 .
O13 H13A 0.8579 .
O13 H13B 0.8191 .
O14 H14A 0.8525 .
O14 H14B 0.8508 .
loop_
_geom_hbond_atom_site_label_D
_geom_hbond_atom_site_label_H
_geom_hbond_atom_site_label_A
_geom_hbond_distance_DH
_geom_hbond_distance_HA
_geom_hbond_distance_DA
_geom_hbond_angle_DHA
_geom_hbond_site_symmetry_A
O8 H8 O3 0.88 1.86 2.656(5) 149.4 .
O9 H9A O14 0.87 2.52 2.998(13) 115.3 3_556
O9 H9B O6 0.82 2.21 2.731(6) 121.4 5_666
O7 H7A O8 0.89 2.41 2.84(2) 110.1 5_566
O7A H7A O8 1.07 2.41 3.30(3) 139.5 5_566
O13 H13A O6 0.86 1.89 2.679(12) 151.2 6_557
O14 H14A O6 0.85 2.10 2.858(16) 147.4 4_456
O14 H14B O9 0.85 2.60 2.998(13) 110.1 3_546
O1 H1 O14 0.81(2) 2.19(7) 2.953(13) 155(16) 6_657
O1 H1 O14 0.81(2) 2.19(7) 2.953(13) 155(16) 4_556
loop_
_geom_torsion_atom_site_label_1
_geom_torsion_atom_site_label_2
_geom_torsion_atom_site_label_3
_geom_torsion_atom_site_label_4
_geom_torsion
_geom_torsion_site_symmetry_1
_geom_torsion_site_symmetry_4
Zn1 O2 C1 O3 -176.5(4) 5_666 .
Zn1 O2 C1 C2 1.3(6) 5_666 .
Zn1 O4 C12 O4 -5.4(10) 8_666 7_575
Zn1 O4 C12 C11 170.5(4) 8_666 .
Zn1 O5 C13 O6 14.2(8) . .
Zn1 O5 C13 C4 -165.3(4) . .
Zn2 O2 C1 O3 13.7(7) . .
Zn2 O2 C1 C2 -168.5(3) . .
O5 C13 C4 C3 -1.3(8) . .
O5 C13 C4 C5 178.9(5) . .
O6 C13 C4 C3 179.2(5) . .
O6 C13 C4 C5 -0.6(8) . .
C10 C8 C7 C2 134.4(5) . .
C10 C8 C7 C6 -47.2(6) . .
C10 C11 C12 O4 -2.1(8) . 7_575
C10 C11 C12 O4 178.4(5) 7_575 7_575
C10 C11 C12 O4 2.1(8) 7_575 .
C10 C11 C12 O4 -178.4(5) . .
C2 C3 C4 C5 -3.0(7) . .
C2 C3 C4 C13 177.1(5) . .
C9 C8 C7 C2 -49.7(7) . .
C9 C8 C7 C6 128.7(5) . .
C6 C5 C4 C3 2.8(7) . .
C6 C5 C4 C13 -177.3(5) . .
C3 C2 C7 C6 2.8(6) . .
C3 C2 C7 C8 -178.8(4) . .
C3 C2 C1 O2 -71.0(6) . .
C3 C2 C1 O3 106.9(5) . .
C8 C10 C11 C10 -3.4(9) . 7_575
C8 C10 C11 C12 177.0(5) . .
C8 C9 C8 C10 3.8(9) 7_575 .
C8 C9 C8 C7 -172.1(3) 7_575 .
C5 C6 C7 C2 -3.0(7) . .
C5 C6 C7 C8 178.4(4) . .
C7 C2 C3 C4 0.2(7) . .
C7 C2 C1 O2 113.2(5) . .
C7 C2 C1 O3 -68.9(6) . .
C7 C6 C5 C4 0.2(7) . .
C1 C2 C3 C4 -175.7(4) . .
C1 C2 C7 C6 178.5(4) . .
C1 C2 C7 C8 -3.1(7) . .
C11 C10 C8 C9 -0.1(7) . .
C11 C10 C8 C7 175.9(5) . .
O12 C14 N2 C17 179.5(10) . .
O12 C14 N2 C18 3(2) . .
O12 C14 C15 C16 176.8(18) . .
C14 N2 C17 C16 4(2) . .
C14 C15 C16 C17 5(2) . .
N2 C14 C15 C16 -2(2) . .
C15 C14 N2 C17 -2(2) . .
C15 C14 N2 C18 -178.0(12) . .
C15 C16 C17 N2 -6(2) . .
C18 N2 C17 C16 -179.1(15) . .
Zn1A O4 C12 O4 16.0(11) 8_666 7_575
Zn1A O4 C12 C11 -168.1(7) 8_666 .
Zn1A O5 C13 O6 32.2(9) . .
Zn1A O5 C13 C4 -147.3(7) . .
