#------------------------------------------------------------------------------
#$Date: 2019-11-17 10:57:06 +0200 (Sun, 17 Nov 2019) $
#$Revision: 229459 $
#$URL: file:///home/coder/svn-repositories/cod/cif/7/04/51/7045154.cif $
#------------------------------------------------------------------------------
#
# This file is available in the Crystallography Open Database (COD),
# http://www.crystallography.net/
#
# All data on this site have been placed in the public domain by the
# contributors.
#
data_7045154
loop_
_publ_author_name
'Liu, Fu-Ling'
'Li, Dong'
'Su, Li-Jie'
'Tao, Jun'
_publ_section_title
;
 Reversible three equal-step spin crossover in an iron(ii) Hofmann-type
 metal-organic framework.
;
_journal_issue                   5
_journal_name_full
'Dalton transactions (Cambridge, England : 2003)'
_journal_page_first              1407
_journal_page_last               1411
_journal_paper_doi               10.1039/c7dt04205a
_journal_volume                  47
_journal_year                    2018
_chemical_formula_sum            'C22.5 H15.5 Fe N11.5 O2.5 Pt'
_chemical_formula_weight         737.90
_space_group_crystal_system      orthorhombic
_space_group_IT_number           55
_space_group_name_Hall           '-P 2 2ab'
_space_group_name_H-M_alt        'P b a m'
_symmetry_space_group_name_Hall  '-P 2 2ab'
_symmetry_space_group_name_H-M   'P b a m'
_atom_sites_solution_hydrogens   mixed
_audit_creation_method           SHELXL-2014/7
_audit_update_record
;
2017-10-21 deposited with the CCDC.
2017-12-22 downloaded from the CCDC.
;
_cell_angle_alpha                90
_cell_angle_beta                 90
_cell_angle_gamma                90
_cell_formula_units_Z            8
_cell_length_a                   27.5743(7)
_cell_length_b                   28.9781(9)
_cell_length_c                   7.3466(2)
_cell_measurement_reflns_used    6294
_cell_measurement_temperature    220(2)
_cell_measurement_theta_max      65.8030
_cell_measurement_theta_min      4.4040
_cell_volume                     5870.3(3)
_computing_structure_refinement  'SHELXL-2014/7 (Sheldrick, 2014)'
_diffrn_ambient_temperature      220(2)
_diffrn_measured_fraction_theta_full 0.974
_diffrn_measured_fraction_theta_max 0.974
_diffrn_measurement_device_type  'SuperNova, Dual, Cu at zero, Atlas'
_diffrn_radiation_type           CuK\a
_diffrn_radiation_wavelength     1.54184
_diffrn_reflns_av_R_equivalents  0.1110
_diffrn_reflns_av_unetI/netI     0.0922
_diffrn_reflns_Laue_measured_fraction_full 0.974
_diffrn_reflns_Laue_measured_fraction_max 0.974
_diffrn_reflns_limit_h_max       28
_diffrn_reflns_limit_h_min       -32
_diffrn_reflns_limit_k_max       33
_diffrn_reflns_limit_k_min       -28
_diffrn_reflns_limit_l_max       8
_diffrn_reflns_limit_l_min       -8
_diffrn_reflns_number            19254
_diffrn_reflns_point_group_measured_fraction_full 0.974
_diffrn_reflns_point_group_measured_fraction_max 0.974
_diffrn_reflns_theta_full        65.627
_diffrn_reflns_theta_max         65.627
_diffrn_reflns_theta_min         3.446
_exptl_absorpt_coefficient_mu    13.108
_exptl_absorpt_correction_T_max  1.00000
_exptl_absorpt_correction_T_min  0.09927
_exptl_absorpt_correction_type   multi-scan
_exptl_crystal_colour            orange
_exptl_crystal_density_diffrn    1.670
_exptl_crystal_description       rodlike
_exptl_crystal_F_000             2840
_exptl_crystal_size_max          0.100
_exptl_crystal_size_mid          0.050
_exptl_crystal_size_min          0.050
_refine_diff_density_max         4.859
_refine_diff_density_min         -2.735
_refine_diff_density_rms         0.399
_refine_ls_extinction_method     none
_refine_ls_goodness_of_fit_ref   1.113
_refine_ls_hydrogen_treatment    constr
_refine_ls_matrix_type           full
_refine_ls_number_parameters     447
_refine_ls_number_reflns         5366
_refine_ls_number_restraints     396
_refine_ls_restrained_S_all      1.079
_refine_ls_R_factor_all          0.1594
_refine_ls_R_factor_gt           0.1120
_refine_ls_shift/su_max          0.014
_refine_ls_shift/su_mean         0.002
_refine_ls_structure_factor_coef Fsqd
_refine_ls_weighting_details
'w=1/[\s^2^(Fo^2^)+(0.1694P)^2^+139.4323P] where P=(Fo^2^+2Fc^2^)/3'
_refine_ls_weighting_scheme      calc
_refine_ls_wR_factor_gt          0.2763
_refine_ls_wR_factor_ref         0.3043
_reflns_Friedel_coverage         0.000
_reflns_number_gt                3918
_reflns_number_total             5366
_reflns_threshold_expression     'I > 2\s(I)'
_cod_data_source_file            c7dt04205a2.cif
_cod_data_source_block           p-220K
_cod_depositor_comments
'Adding full bibliography for 7045151--7045154.cif.'
_cod_original_formula_sum        'C22.50 H15.50 Fe N11.50 O2.50 Pt'
_cod_database_code               7045154
_shelx_shelxl_version_number     2014/7
_shelx_space_group_comment
;
The symmetry employed for this shelxl refinement is uniquely defined
by the following loop, which should always be used as a source of
symmetry information in preference to the above space-group names.
They are only intended as comments.
;
_shelx_estimated_absorpt_t_min   0.354
_shelx_estimated_absorpt_t_max   0.560
_shelx_res_file
;

    P.res created by SHELXL-2014/7


TITL exp_4318_a.res in Pbam
REM Old TITL exp_4318_a.res in Pbam
REM SHELXT solution in Pbam
REM R1 0.110, Rweak 0.001, Alpha 0.032, Orientation as input
REM Formula found by SHELXT: C50 Fe2 N13 O13 Pt2
CELL 1.54184 27.574328 28.978141 7.346603 90 90 90
ZERR 8 0.0007 0.0009 0.0002 0 0 0
LATT 1
SYMM -X,-Y,+Z
SYMM 0.5-X,0.5+Y,-Z
SYMM 0.5+X,0.5-Y,-Z
SFAC C H Fe N O Pt
UNIT 180 124 8 92 20 8
SIMU 0.004 0.08 1.7 $c $n
ISOR 0.01 0.2 C1 C2 C3 C4 C5

L.S. 5 0   56
PLAN  20
SIZE 0.1 0.05 0.05
temp -53
bond $h
list 4
fmap 2
acta
OMIT 1 29 2
OMIT 1 5 8
OMIT 2 5 8
OMIT 2 13 8
OMIT 1 25 2
OMIT 2 4 8
OMIT 0 0 1
OMIT 3 29 2
OMIT 1 27 3
OMIT 1 28 3
OMIT 1 26 3
OMIT 0 22 0
OMIT 1 27 4
OMIT 4 23 0
OMIT 2 26 2
OMIT 2 25 2
OMIT 8 29 4
OMIT 1 25 3
OMIT 0 26 3
OMIT 0 24 2
OMIT 4 21 0
OMIT 1 28 1
OMIT 10 28 4
OMIT 12 27 4
OMIT 3 30 4
OMIT 1 27 2
OMIT 1 28 2
OMIT 1 23 1
OMIT 0 28 1
OMIT 1 27 0
OMIT 0 26 2
OMIT 2 26 3
OMIT 2 25 3
OMIT 11 28 4
OMIT 3 27 5
OMIT 5 26 2
OMIT 1 29 3
OMIT 1 26 2
OMIT 3 25 2
OMIT 4 22 0
OMIT 4 26 2
OMIT 0 28 3
OMIT 6 26 2
OMIT 1 23 0
OMIT 5 28 2
OMIT 1 3 1
OMIT 2 27 3
OMIT 0 24 0
OMIT 1 29 1
OMIT 8 1 8
OMIT 3 27 0
OMIT 3 1 8
OMIT 1 30 2
OMIT 6 26 3
OMIT 5 23 0
OMIT 2 1 8
OMIT 2 29 2
OMIT 6 24 0
OMIT 2 28 3
OMIT 1 1 8
OMIT 3 3 0
OMIT 6 27 2
OMIT 3 1 0
OMIT 3 1 2
OMIT 4 1 0
OMIT 13 27 4
OMIT 0 30 1
OMIT 3 25 3
REM <olex2.extras>
REM <HklSrc "%.\\P.hkl">
REM </olex2.extras>

ABIN
ACTA
WGHT    0.169400  139.432297
FVAR       0.07121
PT2   6    0.377691    0.466108    1.000000    10.50000    0.01139    0.01963 =
         0.00633    0.00000    0.00000   -0.00302
PT1   6    0.122745    0.467926    0.000000    10.50000    0.00924    0.01725 =
         0.00493    0.00000    0.00000    0.00291
FE1   3    0.000000    0.500000   -0.500000    10.25000    0.00776    0.00973 =
         0.00641    0.00000    0.00000    0.00180
FE3   3    0.500000    0.500000    1.500000    10.25000    0.00865    0.00981 =
         0.01137    0.00000    0.00000   -0.00492
FE2   3    0.255013    0.433955    0.500000    10.50000    0.00898    0.00922 =
         0.00684    0.00000    0.00000   -0.00095
N6    4    0.047366    0.487638   -0.310955    11.00000    0.01127    0.02033 =
         0.02048    0.00476    0.00648    0.00516
N8    4    0.309269    0.423537    0.704710    11.00000    0.01336    0.02571 =
         0.02065    0.00066   -0.00356   -0.00421
N13   4    0.225281    0.007653    0.500000    10.50000    0.01286    0.01261 =
         0.06403    0.00000    0.00000   -0.00003
N1    4    0.019273    0.567099   -0.500000    10.50000    0.01178    0.00604 =
         0.04280    0.00000    0.00000    0.00403
N5    4    0.018849    0.924504   -0.500000    10.50000    0.01224    0.01563 =
         0.05478    0.00000    0.00000    0.00287
N14   4    0.445589    0.509637    1.294343    11.00000    0.01857    0.02388 =
         0.02075    0.00687   -0.00289   -0.00398
N9    4    0.234204    0.362801    0.500000    10.50000    0.01790    0.01122 =
         0.03813    0.00000    0.00000   -0.00142
N7    4    0.200866    0.447205    0.294563    11.00000    0.01692    0.02719 =
         0.01459    0.00772   -0.00107    0.00287
N12   4    0.218263    0.185244    0.500000    10.50000    0.02087    0.01395 =
         0.06552    0.00000    0.00000    0.00081
C13   1    0.172006    0.454740    0.191455    11.00000    0.01722    0.02951 =
         0.01630    0.00621    0.00191    0.00543
C3    1    0.205366    0.270151    0.500000    10.50000    0.02179    0.01518 =
         0.04809    0.00000    0.00000   -0.00062
C24   1   -0.014919    0.890190   -0.500000    10.50000    0.01332    0.01586 =
         0.05599    0.00000    0.00000    0.00200
AFIX  43
H24   2   -0.047941    0.898247   -0.500000    10.50000   -1.20000
AFIX   0
C17   1    0.045796    0.660952   -0.500000    10.50000    0.01477    0.01046 =
         0.04699    0.00000    0.00000    0.00044
C12   1    0.165631    0.066651    0.500000    10.50000    0.01736    0.01496 =
         0.06710    0.00000    0.00000   -0.00019
AFIX  43
H12   2    0.132594    0.074652    0.500000    10.50000   -1.20000
AFIX   0
C11   1    0.179341    0.020238    0.500000    10.50000    0.01498    0.01340 =
         0.06487    0.00000    0.00000   -0.00073
AFIX  43
H11   2    0.155160   -0.002627    0.500000    10.50000   -1.20000
AFIX   0
C28   1    0.419385    0.495071    1.185390    11.00000    0.01798    0.02512 =
         0.02188    0.00735    0.00008   -0.00447
C10   1    0.259778    0.040721    0.500000    10.50000    0.01486    0.01303 =
         0.06448    0.00000    0.00000   -0.00043
AFIX  43
H10   2    0.292516    0.031676    0.500000    10.50000   -1.20000
AFIX   0
C8    1    0.200535    0.100737    0.500000    10.50000    0.01921    0.01440 =
         0.06823    0.00000    0.00000    0.00025
C26   1    0.079317    0.865127   -0.500000    10.50000    0.01460    0.01360 =
         0.05517    0.00000    0.00000    0.00235
AFIX  43
H26   2    0.112424    0.857394   -0.500000    10.50000   -1.20000
AFIX   0
C27   1    0.335028    0.437321    0.812591    11.00000    0.01281    0.02493 =
         0.02180    0.00348   -0.00075   -0.00231
C6    1    0.189741    0.222094    0.500000    10.50000    0.02198    0.01515 =
         0.06161    0.00000    0.00000    0.00044
C15   1    0.066041    0.580031   -0.500000    10.50000    0.01260    0.00792 =
         0.04342    0.00000    0.00000    0.00178
AFIX  43
H15   2    0.090183    0.557129   -0.500000    10.50000   -1.20000
AFIX   0
C19   1   -0.014831    0.600644   -0.500000    10.50000    0.01207    0.00791 =
         0.04421    0.00000    0.00000    0.00293
AFIX  43
H19   2   -0.047668    0.591932   -0.500000    10.50000   -1.20000
AFIX   0
C5    1    0.186840    0.350163    0.500000    10.50000    0.01845    0.01326 =
         0.03873    0.00000    0.00000   -0.00033
AFIX  43
H5    2    0.163217    0.373551    0.500000    10.50000   -1.20000
AFIX   0
C14   1    0.074271    0.480886   -0.197108    11.00000    0.01143    0.01851 =
         0.02203    0.00631    0.00918    0.00641
N4    4    0.029710    0.745626   -0.500000    10.50000    0.01669    0.01347 =
         0.05504    0.00000    0.00000    0.00071
C7    1    0.186600    0.148751    0.500000    10.50000    0.02200    0.01517 =
         0.07030    0.00000    0.00000    0.00111
C9    1    0.249167    0.086615    0.500000    10.50000    0.01650    0.01391 =
         0.06628    0.00000    0.00000    0.00011
AFIX  43
H9    2    0.274212    0.108621    0.500000    10.50000   -1.20000
AFIX   0
C23   1   -0.002978    0.845795   -0.500000    10.50000    0.01520    0.01569 =
         0.05640    0.00000    0.00000    0.00150
AFIX  43
H23   2   -0.028043    0.823809   -0.500000    10.50000   -1.20000
AFIX   0
C22   1    0.044118    0.830352   -0.500000    10.50000    0.01576    0.01365 =
         0.05545    0.00000    0.00000    0.00210
C16   1    0.079960    0.626133   -0.500000    10.50000    0.01378    0.01080 =
         0.04452    0.00000    0.00000   -0.00003
AFIX  43
H16   2    0.113107    0.633707   -0.500000    10.50000   -1.20000
AFIX   0
C2    1    0.254109    0.282129    0.500000    10.50000    0.02185    0.01477 =
         0.04346    0.00000    0.00000    0.00024
AFIX  43
H2    2    0.277848    0.258849    0.500000    10.50000   -1.20000
AFIX   0
C4    1    0.171834    0.306042    0.500000    10.50000    0.02059    0.01475 =
         0.04259    0.00000    0.00000    0.00053
AFIX  43
H4    2    0.138471    0.299380    0.500000    10.50000   -1.20000
AFIX   0
C25   1    0.065370    0.910391   -0.500000    10.50000    0.01273    0.01459 =
         0.05435    0.00000    0.00000    0.00200
AFIX  43
H25   2    0.089755    0.933058   -0.500000    10.50000   -1.20000
AFIX   0
C18   1   -0.003898    0.646092   -0.500000    10.50000    0.01333    0.01017 =
         0.04653    0.00000    0.00000    0.00168
AFIX  43
H18   2   -0.028941    0.668100   -0.500000    10.50000   -1.20000
AFIX   0
C21   1    0.059632    0.783197   -0.500000    10.50000    0.01694    0.01361 =
         0.05586    0.00000    0.00000    0.00105
C1    1    0.267735    0.326738    0.500000    10.50000    0.01956    0.01310 =
         0.03988    0.00000    0.00000    0.00021
AFIX  43
H1    2    0.300998    0.333840    0.500000    10.50000   -1.20000
AFIX   0
C20   1    0.058761    0.709226   -0.500000    10.50000    0.01671    0.01258 =
         0.05263    0.00000    0.00000    0.00055
N3    4    0.106063    0.771260   -0.500000    10.50000    0.01856    0.01524 =
         0.05835    0.00000    0.00000    0.00074
N2    4    0.105650    0.724218   -0.500000    10.50000    0.01940    0.01425 =
         0.05755    0.00000    0.00000    0.00109
AFIX  43
H2A   2    0.131190    0.706590   -0.500000    10.50000   -1.20000
AFIX   0
N10   4    0.143585    0.208578    0.500000    10.50000    0.02488    0.01688 =
         0.07146    0.00000    0.00000    0.00195
AFIX  43
H10A  2    0.118723    0.227063    0.500000    10.50000   -1.20000
AFIX   0
N11   4    0.140904    0.161589    0.500000    10.50000    0.02529    0.01719 =
         0.07526    0.00000    0.00000    0.00150

C34   1    0.666392    0.726218    1.000000    10.50000    0.06984    0.06892 =
         0.11614    0.00000    0.00000    0.00683
C35   1    0.592938    0.711578    1.000000    10.50000    0.07314    0.06925 =
         0.12217    0.00000    0.00000    0.00722
C36   1    0.541238    0.687121    1.000000    10.50000    0.07523    0.06945 =
         0.12645    0.00000    0.00000    0.00843
C31   1    0.721281    0.719850    1.000000    10.50000    0.06799    0.06853 =
         0.10976    0.00000    0.00000    0.00676
N18   4    0.592438    0.759399    1.000000    10.50000    0.07226    0.06946 =
         0.12146    0.00000    0.00000    0.00641
N17   4    0.642265    0.765308    1.000000    10.50000    0.07104    0.06897 =
         0.11953    0.00000    0.00000    0.00634
AFIX  43
H17   2    0.656212    0.792238    1.000000    10.50000   -1.20000
AFIX   0
N16   4    0.633032    0.688822    1.000000    10.50000    0.07124    0.06909 =
         0.11883    0.00000    0.00000    0.00714
C32   1    0.748745    0.753971    1.000000    10.50000    0.06818    0.06765 =
         0.10771    0.00000    0.00000    0.00758
AFIX  43
H32   2    0.734344    0.783373    1.000000    10.50000   -1.20000
AFIX   0
C39   1    0.499960    0.619095    1.000000    10.50000    0.07668    0.06987 =
         0.13026    0.00000    0.00000    0.00934
AFIX  43
H39   2    0.499308    0.586662    1.000000    10.50000   -1.20000
AFIX   0
C33   1    0.796256    0.751941    1.000000    10.50000    0.06745    0.06717 =
         0.10614    0.00000    0.00000    0.00701
AFIX  43
H33   2    0.813957    0.779663    1.000000    10.50000   -1.20000
AFIX   0
N15   4    0.819847    0.713067    1.000000    10.50000    0.06685    0.06822 =
         0.10528    0.00000    0.00000    0.00669
C30   1    0.739859    0.674372    1.000000    10.50000    0.06711    0.06881 =
         0.10711    0.00000    0.00000    0.00592
AFIX  43
H30   2    0.719638    0.648257    1.000000    10.50000   -1.20000
AFIX   0
C29   1    0.791412    0.670936    1.000000    10.50000    0.06679    0.06847 =
         0.10548    0.00000    0.00000    0.00691
AFIX  43
H29   2    0.806698    0.641942    1.000000    10.50000   -1.20000
AFIX   0
C37   1    0.502636    0.710121    1.000000    10.50000    0.07616    0.06973 =
         0.12871    0.00000    0.00000    0.00834
AFIX  43
H37   2    0.502848    0.742559    1.000000    10.50000   -1.20000
AFIX   0
C38   1    0.460837    0.685901    1.000000    10.50000    0.07716    0.07008 =
         0.13061    0.00000    0.00000    0.00922
AFIX  43
H38   2    0.431728    0.702783    1.000000    10.50000   -1.20000
AFIX   0
C40   1    0.540803    0.638747    1.000000    10.50000    0.07609    0.06965 =
         0.12844    0.00000    0.00000    0.00846
AFIX  43
H40   2    0.569765    0.621638    1.000000    10.50000   -1.20000
AFIX   0
N19   4    0.457525    0.641490    1.000000    10.50000    0.07761    0.07016 =
         0.13160    0.00000    0.00000    0.00928

O2    5    0.066960    0.260614    0.647298    10.50000    0.01587    0.01041 =
         0.08827    0.00285    0.00615    0.00299
AFIX   3
H2B   2    0.074800    0.285654    0.699849    10.50000   -1.20000
H2C   2    0.044200    0.245984    0.699849    10.50000   -1.20000
AFIX   0

O3    5    0.682086    0.861760    1.000000    10.50000    0.08590    0.11517 =
         0.15652    0.00000    0.00000    0.00431
O1    5    0.184373    0.677354   -0.635481    10.50000    0.01319    0.01985 =
         0.08983   -0.00600   -0.00397    0.00490
AFIX   3
H1A   2    0.205993    0.693555   -0.687671    10.50000   -1.20000
H1B   2    0.178893    0.651704   -0.687671    10.50000   -1.20000
AFIX   0

O4    5    0.766517    0.899139    1.000000    10.50000    0.08032    0.09673 =
         0.12281    0.00000    0.00000   -0.02490
C49   1    0.766571    0.950661    1.000000    10.50000    0.11447    0.10669 =
         0.03962    0.00000    0.00000   -0.01468
O5    5    0.856246    0.864266    1.000000    10.50000    0.08758    0.17532 =
         0.30608    0.00000    0.00000    0.04253
HKLF 4

REM  exp_4318_a.res in Pbam
REM R1 =  0.1120 for    3918 Fo > 4sig(Fo)  and  0.1594 for all    5366 data
REM    447 parameters refined using    396 restraints

END

WGHT      0.1713    143.6826

REM Highest difference peak  4.859,  deepest hole -2.735,  1-sigma level  0.399
Q1    1   0.1230  0.4661 -0.1292  11.00000  0.05    4.86
Q2    1   0.3782  0.4670  0.8683  11.00000  0.05    4.76
Q3    1   0.0993  0.4303  0.0000  10.50000  0.05    2.83
Q4    1   0.4025  0.4298  1.0000  10.50000  0.05    2.43
Q5    1   0.0786  0.2893  1.0000  10.50000  0.05    2.24
Q6    1   0.0968  0.5074  0.0413  11.00000  0.05    2.17
Q7    1   0.4011  0.5067  1.0394  11.00000  0.05    2.15
Q8    1   0.1429  0.5056  0.0000  10.50000  0.05    2.14
Q9    1   0.1458  0.5075  0.0425  11.00000  0.05    2.13
Q10   1   0.1437  0.4315  0.0000  10.50000  0.05    2.07
Q11   1   0.3598  0.5031  1.0000  10.50000  0.05    1.90
Q12   1   0.1706  0.4668  0.1140  11.00000  0.05    1.85
Q13   1   0.8694  0.7243  1.0000  10.50000  0.05    1.84
Q14   1   0.3507  0.4279  0.9587  11.00000  0.05    1.77
Q15   1   0.0793  0.4586 -0.1206  11.00000  0.05    1.73
Q16   1   0.6517  0.8909  1.0704  11.00000  0.05    1.71
Q17   1   0.0000  0.5000 -0.3271  10.50000  0.05    1.59
Q18   1   0.3906  0.7330  1.0000  10.50000  0.05    1.53
Q19   1   0.1883  0.4796  0.2275  11.00000  0.05    1.44
Q20   1   0.0300  0.5417 -0.5000  10.50000  0.05    1.43
;
_shelx_res_checksum              79034
_shelx_fab_file
;
    0    4    0   -279.26      0.00
    0    6    0    -29.95      0.00
    0    8    0    -60.54      0.00
    0   10    0     -1.93      0.00
    0   12    0     -9.22      0.00
    0   14    0    -17.50      0.00
    0   16    0     -9.99      0.00
    0   18    0    -20.41      0.00
    0   20    0     14.22      0.00
    0   24    0     76.16      0.00
    0   26    0    131.79      0.00
    0   28    0    -97.33      0.00
    0   30    0    -71.96      0.00
    0   32    0     20.99      0.00
    1    2    0    -46.66      0.00
    1    3    0    237.40      0.00
    1    4    0   -115.62      0.00
    1    5    0    114.74      0.00
    1    6    0    -57.88      0.00
    1    7    0      8.52      0.00
    1    8    0      1.34      0.00
    1    9    0     32.47      0.00
    1   10    0     24.00      0.00
    1   11    0    -18.32      0.00
    1   12    0     17.91      0.00
    1   13    0     27.47      0.00
    1   14    0     -6.69      0.00
    1   15    0     -3.56      0.00
    1   16    0      6.59      0.00
    1   17    0     19.68      0.00
    1   18    0      0.01      0.00
    1   19    0    -12.53      0.00
    1   20    0     13.34      0.00
    1   21    0     24.64      0.00
    1   22    0     26.24      0.00
    1   23    0     28.57      0.00
    1   24    0      2.84      0.00
    1   25    0   -142.83      0.00
    1   26    0      0.70      0.00
    1   28    0    -17.53      0.00
    1   29    0    117.76      0.00
    1   30    0    -17.42      0.00
    1   31    0     11.13      0.00
    1   32    0     17.84      0.00
    2    1    0      7.25      0.00
    2    2    0    -37.17      0.00
    2    3    0    116.04      0.00
    2    4    0   -182.46      0.00
    2    5    0    126.52      0.00
    2    6    0     33.61      0.00
    2    7    0     19.70      0.00
    2    8    0     -4.16      0.00
    2    9    0    -14.80      0.00
    2   10    0     22.67      0.00
    2   11    0    -38.79      0.00
    2   12    0     -4.44      0.00
    2   13    0     -2.32      0.00
    2   14    0     -9.31      0.00
    2   15    0     -0.93      0.00
    2   16    0     13.17      0.00
    2   17    0     -8.73      0.00
    2   18    0      0.79      0.00
    2   19    0      4.69      0.00
    2   20    0     16.46      0.00
    2   21    0    -37.91      0.00
    2   22    0    -53.49      0.00
    2   23    0    -20.84      0.00
    2   24    0     39.91      0.00
    2   25    0      2.08      0.00
    2   26    0    101.41      0.00
    2   27    0     12.08      0.00
    2   28    0    -61.82      0.00
    2   29    0     44.70      0.00
    2   30    0    -70.75      0.00
    2   31    0     -2.43      0.00
    2   32    0      3.85      0.00
    3    1    0    -53.39      0.00
    3    2    0    -12.08      0.00
    3    3    0    141.03      0.00
    3    4    0    -92.91      0.00
    3    5    0     -6.02      0.00
    3    6    0    -26.82      0.00
    3    7    0    -46.60      0.00
    3    8    0      0.57      0.00
    3    9    0    -13.62      0.00
    3   10    0     16.31      0.00
    3   11    0    -22.79      0.00
    3   12    0     22.50      0.00
    3   13    0     16.82      0.00
    3   14    0     -4.51      0.00
    3   15    0    -19.93      0.00
    3   16    0     18.14      0.00
    3   17    0    -14.57      0.00
    3   18    0    -12.56      0.00
    3   19    0    -16.48      0.00
    3   20    0      6.04      0.00
    3   21    0     12.29      0.00
    3   22    0     36.22      0.00
    3   23    0     37.18      0.00
    3   24    0     -1.10      0.00
    3   25    0    -60.77      0.00
    3   26    0     -7.90      0.00
    3   27    0    -31.92      0.00
    3   28    0    -40.89      0.00
    3   29    0     64.68      0.00
    3   30    0    -32.93      0.00
    3   31    0     38.10      0.00
    3   32    0     30.16      0.00
    3   33    0    -11.62      0.00
    4    0    0      1.09      0.00
    4    1    0    -28.16      0.00
    4    2    0    -52.43      0.00
    4    3    0     -7.28      0.00
    4    4    0    -13.87      0.00
    4    5    0    -11.07      0.00
    4    6    0     47.40      0.00
    4    7    0    -17.59      0.00
    4    8    0      2.51      0.00
    4    9    0     16.85      0.00
    4   10    0     13.45      0.00
    4   11    0    -11.59      0.00
    4   12    0     -1.91      0.00
    4   13    0     -3.77      0.00
    4   14    0      0.89      0.00
    4   15    0    -14.90      0.00
    4   16    0     25.82      0.00
    4   17    0     -5.13      0.00
    4   18    0      6.28      0.00
    4   19    0     24.19      0.00
    4   20    0      5.57      0.00
    4   22    0    -25.66      0.00
    4   24    0    -14.35      0.00
    4   25    0     11.46      0.00
    4   26    0     42.23      0.00
    4   27    0     25.58      0.00
    4   28    0      4.67      0.00
    4   29    0     40.42      0.00
    4   30    0    -51.56      0.00
    4   31    0     -4.81      0.00
    4   32    0    -15.50      0.00
    4   33    0    -22.78      0.00
    5    1    0      1.83      0.00
    5    2    0     28.91      0.00
    5    3    0    -20.13      0.00
    5    4    0     49.22      0.00
    5    5    0    -27.21      0.00
    5    6    0     45.80      0.00
    5    7    0     15.11      0.00
    5    8    0    -14.34      0.00
    5    9    0     22.10      0.00
    5   10    0    -16.90      0.00
    5   11    0     -0.51      0.00
    5   12    0      3.86      0.00
    5   13    0      4.61      0.00
    5   14    0      9.63      0.00
    5   15    0    -12.67      0.00
    5   16    0     16.85      0.00
    5   17    0     -7.40      0.00
    5   18    0    -15.26      0.00
    5   19    0      9.97      0.00
    5   20    0    -10.02      0.00
    5   21    0      1.92      0.00
    5   22    0     10.41      0.00
    5   23    0     21.96      0.00
    5   24    0     -3.66      0.00
    5   25    0      8.51      0.00
    5   26    0    -20.36      0.00
    5   27    0    -34.68      0.00
    5   28    0    -28.22      0.00
    5   29    0      5.85      0.00
    5   30    0     -3.31      0.00
    5   31    0     40.95      0.00
    5   32    0     13.56      0.00
    6    0    0     30.57      0.00
    6    1    0     14.92      0.00
    6    2    0     52.57      0.00
    6    3    0    -15.30      0.00
    6    4    0     33.45      0.00
    6    5    0    -44.30      0.00
    6    6    0    -23.84      0.00
    6    7    0      2.17      0.00
    6    8    0    -43.08      0.00
    6    9    0     20.16      0.00
    6   10    0    -18.39      0.00
    6   11    0      8.10      0.00
    6   12    0     -0.02      0.00
    6   13    0     -3.00      0.00
    6   14    0     -0.16      0.00
    6   15    0    -13.10      0.00
    6   16    0      5.80      0.00
    6   17    0     -0.91      0.00
    6   18    0    -14.54      0.00
    6   19    0      5.09      0.00
    6   20    0    -12.09      0.00
    6   21    0      1.01      0.00
    6   22    0      2.84      0.00
    6   23    0     -3.61      0.00
    6   24    0    -23.26      0.00
    6   25    0      8.52      0.00
    6   26    0      3.08      0.00
    6   27    0     24.81      0.00
    6   28    0     31.42      0.00
    6   29    0     -2.81      0.00
    6   30    0    -20.91      0.00
    6   31    0    -15.98      0.00
    6   32    0    -19.16      0.00
    7    1    0    -54.21      0.00
    7    2    0    -52.42      0.00
    7    3    0    -37.06      0.00
    7    4    0      3.95      0.00
    7    5    0     15.13      0.00
    7    6    0    -10.44      0.00
    7    7    0     33.44      0.00
    7    8    0    -13.84      0.00
    7    9    0     23.52      0.00
    7   10    0     -2.91      0.00
    7   11    0      2.04      0.00
    7   12    0    -10.88      0.00
    7   13    0     -0.85      0.00
    7   14    0      5.82      0.00
    7   15    0      0.18      0.00
    7   16    0     -0.92      0.00
    7   17    0      3.23      0.00
    7   18    0      8.46      0.00
    7   19    0     19.11      0.00
    7   20    0      6.94      0.00
    7   21    0     -1.98      0.00
    7   22    0     -4.10      0.00
    7   23    0      0.65      0.00
    7   24    0      6.98      0.00
    7   25    0     17.93      0.00
    7   26    0    -16.79      0.00
    7   27    0    -18.37      0.00
    7   28    0     -6.14      0.00
    7   29    0    -12.62      0.00
    7   30    0     25.38      0.00
    7   31    0     23.63      0.00
    7   32    0      3.14      0.00
    8    0    0     40.71      0.00
    8    1    0     53.16      0.00
    8    2    0     20.27      0.00
    8    3    0     40.39      0.00
    8    4    0    -15.57      0.00
    8    5    0     17.61      0.00
    8    6    0    -14.33      0.00
    8    7    0     23.63      0.00
    8    8    0     -5.45      0.00
    8    9    0    -14.09      0.00
    8   10    0      0.15      0.00
    8   11    0     12.43      0.00
    8   12    0      3.84      0.00
    8   13    0      7.16      0.00
    8   14    0     -1.50      0.00
    8   15    0      2.49      0.00
    8   16    0      4.11      0.00
    8   17    0      0.56      0.00
    8   18    0     -5.09      0.00
    8   19    0    -23.01      0.00
    8   20    0     -6.45      0.00
    8   21    0      5.32      0.00
    8   22    0      7.50      0.00
    8   23    0     -2.25      0.00
    8   24    0     -5.33      0.00
    8   25    0     -3.91      0.00
    8   26    0     -1.93      0.00
    8   27    0     16.69      0.00
    8   28    0     14.76      0.00
    8   29    0    -13.73      0.00
    8   30    0     -3.70      0.00
    8   31    0    -13.06      0.00
    8   32    0    -17.43      0.00
    9    1    0    -13.58      0.00
    9    2    0    -46.43      0.00
    9    3    0     26.92      0.00
    9    4    0     -9.00      0.00
    9    5    0     11.31      0.00
    9    6    0    -23.03      0.00
    9    7    0     -9.80      0.00
    9    8    0     11.85      0.00
    9    9    0     -7.64      0.00
    9   10    0      7.09      0.00
    9   11    0     -5.59      0.00
    9   12    0    -19.07      0.00
    9   13    0      1.38      0.00
    9   14    0      1.48      0.00
    9   15    0     -4.40      0.00
    9   16    0     -9.85      0.00
    9   17    0     -6.33      0.00
    9   18    0     14.96      0.00
    9   19    0      0.46      0.00
    9   20    0      7.56      0.00
    9   21    0     -2.26      0.00
    9   22    0    -11.78      0.00
    9   23    0     -3.78      0.00
    9   24    0     11.58      0.00
    9   25    0     -1.10      0.00
    9   26    0     -6.66      0.00
    9   27    0     -1.77      0.00
    9   28    0     -7.57      0.00
    9   29    0     -3.13      0.00
    9   30    0      6.69      0.00
    9   31    0      5.42      0.00
    9   32    0     -0.12      0.00
   10    0    0     15.76      0.00
   10    1    0     19.91      0.00
   10    2    0    -16.64      0.00
   10    3    0      2.47      0.00
   10    4    0    -17.29      0.00
   10    5    0     -0.51      0.00
   10    6    0     11.38      0.00
   10    7    0     -0.62      0.00
   10    8    0      5.36      0.00
   10    9    0    -18.42      0.00
   10   10    0      4.64      0.00
   10   11    0     13.23      0.00
   10   12    0     -2.70      0.00
   10   13    0      0.65      0.00
   10   14    0      1.24      0.00
   10   15    0      0.01      0.00
   10   16    0      6.50      0.00
   10   17    0      2.57      0.00
   10   18    0      2.65      0.00
   10   19    0    -10.01      0.00
   10   20    0      3.47      0.00
   10   21    0     12.03      0.00
   10   22    0      0.69      0.00
   10   23    0     -1.19      0.00
   10   24    0      6.51      0.00
   10   25    0     -6.66      0.00
   10   26    0      1.36      0.00
   10   27    0     10.20      0.00
   10   28    0     -5.60      0.00
   10   29    0      7.49      0.00
   10   30    0      3.07      0.00
   10   31    0      6.66      0.00
   11    1    0     -6.24      0.00
   11    2    0     -4.63      0.00
   11    3    0      9.89      0.00
   11    4    0     11.05      0.00
   11    5    0    -11.79      0.00
   11    6    0      3.76      0.00
   11    7    0     -0.50      0.00
   11    8    0      9.01      0.00
   11    9    0      4.49      0.00
   11   10    0     -2.37      0.00
   11   11    0      3.58      0.00
   11   12    0     -2.80      0.00
   11   13    0      3.93      0.00
   11   14    0      9.59      0.00
   11   15    0     -4.78      0.00
   11   16    0     -1.66      0.00
   11   17    0      3.38      0.00
   11   18    0      0.56      0.00
   11   19    0     -1.76      0.00
   11   20    0     -7.20      0.00
   11   21    0     -0.90      0.00
   11   22    0     -5.30      0.00
   11   23    0     -2.47      0.00
   11   24    0      6.82      0.00
   11   25    0     -6.34      0.00
   11   26    0     -1.82      0.00
   11   27    0      9.26      0.00
   11   28    0     -7.62      0.00
   11   29    0      2.94      0.00
   11   30    0    -12.39      0.00
   11   31    0     -6.27      0.00
   12    0    0      6.56      0.00
   12    1    0      3.96      0.00
   12    2    0      1.64      0.00
   12    3    0      2.16      0.00
   12    4    0     15.46      0.00
   12    5    0     -5.60      0.00
   12    6    0      7.77      0.00
   12    7    0     -2.33      0.00
   12    8    0    -10.67      0.00
   12    9    0      6.40      0.00
   12   10    0     -5.46      0.00
   12   11    0      1.12      0.00
   12   12    0     -7.12      0.00
   12   13    0     -8.28      0.00
   12   14    0      3.14      0.00
   12   15    0     -5.04      0.00
   12   16    0     -4.12      0.00
   12   17    0     -0.46      0.00
   12   18    0     -7.06      0.00
   12   19    0      7.87      0.00
   12   20    0      1.52      0.00
   12   21    0      4.93      0.00
   12   22    0     -0.91      0.00
   12   23    0     -4.51      0.00
   12   24    0      5.87      0.00
   12   25    0      0.00      0.00
   12   26    0     -5.01      0.00
   12   27    0      0.80      0.00
   12   28    0     -9.63      0.00
   12   29    0      5.06      0.00
   12   30    0      4.89      0.00
   12   31    0      8.17      0.00
   13    1    0      4.26      0.00
   13    2    0     -7.90      0.00
   13    3    0    -12.28      0.00
   13    4    0     -6.65      0.00
   13    5    0    -16.12      0.00
   13    6    0      4.73      0.00
   13    7    0      2.86      0.00
   13    8    0    -11.00      0.00
   13    9    0      5.01      0.00
   13   10    0     -6.35      0.00
   13   11    0      6.94      0.00
   13   12    0      6.81      0.00
   13   13    0      0.06      0.00
   13   14    0      0.18      0.00
   13   15    0     -1.38      0.00
   13   16    0      4.97      0.00
   13   17    0      8.91      0.00
   13   18    0     -4.08      0.00
   13   19    0      1.59      0.00
   13   20    0     -7.32      0.00
   13   21    0      1.76      0.00
   13   22    0      4.86      0.00
   13   23    0     -2.60      0.00
   13   24    0     -0.54      0.00
   13   25    0     -0.26      0.00
   13   26    0     -1.26      0.00
   13   27    0      9.48      0.00
   13   28    0      3.31      0.00
   13   29    0     -0.49      0.00
   13   30    0     -0.43      0.00
   14    0    0    -13.17      0.00
   14    1    0     -0.60      0.00
   14    2    0      0.87      0.00
   14    3    0     10.63      0.00
   14    4    0     11.94      0.00
   14    5    0     -0.38      0.00
   14    6    0      4.27      0.00
   14    7    0      1.66      0.00
   14    8    0      1.74      0.00
   14    9    0     13.23      0.00
   14   10    0     -4.33      0.00
   14   11    0     -6.04      0.00
   14   12    0     -3.34      0.00
   14   13    0      3.91      0.00
   14   14    0      3.29      0.00
   14   15    0      2.16      0.00
   14   16    0     -3.58      0.00
   14   17    0     -4.03      0.00
   14   18    0     -0.67      0.00
   14   19    0      7.85      0.00
   14   20    0     -1.54      0.00
   14   21    0     -1.63      0.00
   14   22    0     -1.73      0.00
   14   23    0     -0.95      0.00
   14   24    0      2.88      0.00
   14   25    0      3.59      0.00
   14   26    0     -4.69      0.00
   14   27    0     -1.82      0.00
   14   28    0     -0.99      0.00
   14   29    0     -5.04      0.00
   14   30    0      3.04      0.00
   15    1    0      4.34      0.00
   15    2    0      1.86      0.00
   15    3    0     -5.00      0.00
   15    4    0     -6.73      0.00
   15    5    0      1.24      0.00
   15    6    0      4.60      0.00
   15    7    0     -4.89      0.00
   15    8    0     -7.89      0.00
   15    9    0     -1.50      0.00
   15   10    0      1.25      0.00
   15   11    0      5.15      0.00
   15   12    0      2.28      0.00
   15   13    0     -1.20      0.00
   15   14    0    -11.21      0.00
   15   15    0      2.85      0.00
   15   16    0      3.25      0.00
   15   17    0     -2.04      0.00
   15   18    0     -2.52      0.00
   15   19    0     -3.21      0.00
   15   20    0     -2.52      0.00
   15   21    0      4.40      0.00
   15   22    0      0.61      0.00
   15   23    0     -0.33      0.00
   15   24    0     -3.49      0.00
   15   25    0     -0.07      0.00
   15   26    0      0.29      0.00
   15   27    0     -0.24      0.00
   15   28    0      0.49      0.00
   15   29    0     -3.62      0.00
   15   30    0      6.51      0.00
   16    0    0      2.50      0.00
   16    1    0     -7.59      0.00
   16    2    0      6.17      0.00
   16    3    0      2.94      0.00
   16    4    0     -5.47      0.00
   16    5    0      2.99      0.00
   16    6    0     -3.18      0.00
   16    7    0     -0.73      0.00
   16    8    0      6.51      0.00
   16    9    0      2.32      0.00
   16   10    0     -3.65      0.00
   16   11    0     -6.85      0.00
   16   12    0      0.06      0.00
   16   13    0      7.49      0.00
   16   14    0     -4.94      0.00
   16   15    0      3.87      0.00
   16   16    0     -2.91      0.00
   16   17    0     -1.20      0.00
   16   18    0      7.71      0.00
   16   19    0      2.96      0.00
   16   20    0     -1.00      0.00
   16   21    0     -0.12      0.00
   16   22    0     -3.36      0.00
   16   23    0      4.64      0.00
   16   24    0     -0.34      0.00
   16   25    0     -2.18      0.00
   16   26    0      2.84      0.00
   16   27    0      0.21      0.00
   16   28    0      3.08      0.00
   16   29    0      0.23      0.00
   17    1    0     -8.19      0.00
   17    2    0      4.00      0.00
   17    3    0     -0.70      0.00
   17    4    0     -8.90      0.00
   17    5    0     10.39      0.00
   17    6    0     -0.75      0.00
   17    7    0     -4.02      0.00
   17    8    0     -1.14      0.00
   17    9    0     -0.79      0.00
   17   10    0      2.31      0.00
   17   11    0     -0.13      0.00
   17   12    0      0.11      0.00
   17   13    0      1.02      0.00
   17   14    0     -5.01      0.00
   17   15    0      9.60      0.00
   17   16    0      0.80      0.00
   17   17    0     -3.87      0.00
   17   18    0     -2.34      0.00
   17   19    0     -3.91      0.00
   17   20    0      0.75      0.00
   17   21    0      2.09      0.00
   17   22    0     -4.06      0.00
   17   23    0      2.83      0.00
   17   24    0     -0.53      0.00
   17   25    0     -2.38      0.00
   17   26    0      6.22      0.00
   17   27    0     -4.99      0.00
   17   28    0     -2.96      0.00
   18    0    0      3.49      0.00
   18    1    0     -2.78      0.00
   18    2    0      4.35      0.00
   18    3    0      5.09      0.00
   18    4    0     -6.22      0.00
   18    5    0      4.82      0.00
   18    6    0     -2.34      0.00
   18    7    0     -1.41      0.00
   18    8    0      3.17      0.00
   18    9    0      2.70      0.00
   18   10    0     -0.90      0.00
   18   11    0      1.07      0.00
   18   12    0      4.99      0.00
   18   13    0      1.61      0.00
   18   14    0     -5.63      0.00
   18   15    0     -1.23      0.00
   18   16    0     -2.85      0.00
   18   17    0      1.60      0.00
   18   18    0      3.71      0.00
   18   19    0      1.17      0.00
   18   20    0      0.22      0.00
   18   21    0      0.58      0.00
   18   22    0     -0.94      0.00
   18   23    0      4.35      0.00
   18   24    0     -0.77      0.00
   18   25    0     -6.12      0.00
   18   26    0      7.62      0.00
   18   27    0     -3.79      0.00
   18   28    0     -2.60      0.00
   19    1    0      1.58      0.00
   19    2    0     -1.19      0.00
   19    3    0     -0.59      0.00
   19    4    0     -2.83      0.00
   19    5    0      2.88      0.00
   19    6    0      3.73      0.00
   19    7    0     -1.40      0.00
   19    8    0     -0.56      0.00
   19    9    0      3.01      0.00
   19   10    0     -5.25      0.00
   19   11    0     -3.32      0.00
   19   12    0     -1.71      0.00
   19   13    0     -4.11      0.00
   19   14    0      2.85      0.00
   19   15    0      1.94      0.00
   19   16    0      1.00      0.00
   19   17    0     -1.52      0.00
   19   18    0     -3.94      0.00
   19   19    0      1.43      0.00
   19   20    0     -0.72      0.00
   19   21    0     -1.23      0.00
   19   22    0     -2.81      0.00
   19   23    0      0.56      0.00
   19   24    0     -0.22      0.00
   19   25    0     -5.85      0.00
   19   26    0      6.19      0.00
   19   27    0     -3.44      0.00
   20    0    0     -6.03      0.00
   20    1    0      0.64      0.00
   20    2    0      0.35      0.00
   20    3    0      0.01      0.00
   20    4    0      2.29      0.00
   20    5    0     -5.04      0.00
   20    6    0      0.54      0.00
   20    7    0     -4.04      0.00
   20    8    0     -3.81      0.00
   20    9    0      2.86      0.00
   20   10    0     -3.62      0.00
   20   11    0      3.13      0.00
   20   12    0      5.44      0.00
   20   13    0     -2.33      0.00
   20   14    0      3.42      0.00
   20   15    0     -3.69      0.00
   20   16    0      2.31      0.00
   20   17    0      3.29      0.00
   20   18    0     -2.91      0.00
   20   19    0      4.19      0.00
   20   20    0     -1.77      0.00
   20   21    0      1.08      0.00
   20   22    0      1.71      0.00
   20   23    0      2.19      0.00
   20   24    0      2.01      0.00
   20   25    0     -1.06      0.00
   20   26    0      6.91      0.00
   21    1    0      2.39      0.00
   21    2    0      0.35      0.00
   21    3    0     -4.83      0.00
   21    4    0      4.09      0.00
   21    5    0     -3.41      0.00
   21    6    0      3.68      0.00
   21    7    0      1.77      0.00
   21    8    0      1.28      0.00
   21    9    0      5.84      0.00
   21   10    0     -0.16      0.00
   21   11    0      0.42      0.00
   21   12    0      0.32      0.00
   21   13    0     -2.90      0.00
   21   14    0      3.33      0.00
   21   15    0     -3.00      0.00
   21   16    0     -0.87      0.00
   21   17    0      0.98      0.00
   21   18    0     -5.11      0.00
   21   19    0      4.98      0.00
   21   20    0     -1.76      0.00
   21   21    0     -1.04      0.00
   21   22    0     -1.16      0.00
   21   23    0     -0.16      0.00
   21   24    0     -1.86      0.00
   21   25    0     -2.96      0.00
   21   26    0      0.11      0.00
   22    0    0     -1.11      0.00
   22    1    0     -1.03      0.00
   22    2    0      2.71      0.00
   22    3    0     -3.30      0.00
   22    4    0      5.00      0.00
   22    5    0     -0.69      0.00
   22    6    0      1.33      0.00
   22    7    0      1.00      0.00
   22    8    0     -2.57      0.00
   22    9    0     -3.27      0.00
   22   10    0     -1.69      0.00
   22   11    0     -0.46      0.00
   22   12    0     -1.52      0.00
   22   13    0      0.54      0.00
   22   14    0     -0.95      0.00
   22   15    0      0.34      0.00
   22   16    0      0.73      0.00
   22   17    0      3.90      0.00
   22   18    0     -3.77      0.00
   22   19    0      0.89      0.00
   22   20    0     -0.46      0.00
   22   21    0      0.56      0.00
   22   22    0      0.66      0.00
   22   23    0      2.68      0.00
   22   24    0     -2.65      0.00
   22   25    0      0.66      0.00
   23    1    0     -1.70      0.00
   23    2    0      4.03      0.00
   23    3    0     -2.24      0.00
   23    4    0      1.57      0.00
   23    5    0     -1.82      0.00
   23    6    0     -4.69      0.00
   23    7    0      0.55      0.00
   23    8    0      0.85      0.00
   23    9    0     -1.11      0.00
   23   10    0      2.57      0.00
   23   11    0      0.46      0.00
   23   12    0     -4.02      0.00
   23   13    0      5.60      0.00
   23   14    0     -2.89      0.00
   23   15    0      0.79      0.00
   23   16    0     -3.18      0.00
   23   17    0      0.38      0.00
   23   18    0      0.20      0.00
   23   19    0      0.28      0.00
   23   20    0      2.22      0.00
   23   21    0     -3.22      0.00
   23   22    0     -4.49      0.00
   23   23    0      3.34      0.00
   23   24    0     -1.41      0.00
   24    0    0      3.30      0.00
   24    1    0     -2.86      0.00
   24    2    0      0.57      0.00
   24    3    0     -4.05      0.00
   24    4    0     -0.97      0.00
   24    5    0      2.18      0.00
   24    6    0     -1.40      0.00
   24    7    0      2.84      0.00
   24    8    0     -0.34      0.00
   24    9    0     -2.48      0.00
   24   10    0      3.06      0.00
   24   11    0      2.69      0.00
   24   12    0     -3.92      0.00
   24   13    0      5.66      0.00
   24   14    0     -3.50      0.00
   24   15    0      3.15      0.00
   24   16    0      2.38      0.00
   24   17    0      0.56      0.00
   24   18    0      0.36      0.00
   24   19    0     -4.44      0.00
   24   20    0      4.70      0.00
   24   21    0      3.07      0.00
   24   22    0      1.66      0.00
   24   23    0      5.73      0.00
   25    1    0     -2.91      0.00
   25    2    0      2.25      0.00
   25    3    0      2.66      0.00
   25    4    0      1.39      0.00
   25    5    0      2.21      0.00
   25    6    0     -0.78      0.00
   25    7    0      3.15      0.00
   25    8    0      0.48      0.00
   25    9    0     -0.39      0.00
   25   10    0      0.60      0.00
   25   11    0     -0.68      0.00
   25   12    0     -3.27      0.00
   25   13    0      3.17      0.00
   25   14    0     -3.16      0.00
   25   15    0     -2.80      0.00
   25   16    0     -0.81      0.00
   25   17    0     -1.65      0.00
   25   18    0      2.75      0.00
   25   19    0     -2.02      0.00
   25   20    0     -0.03      0.00
   25   21    0     -5.96      0.00
   26    0    0      3.14      0.00
   26    1    0      1.06      0.00
   26    2    0     -0.97      0.00
   26    3    0      0.70      0.00
   26    4    0     -2.06      0.00
   26    5    0     -2.58      0.00
   26    6    0     -0.94      0.00
   26    7    0     -1.65      0.00
   26    8    0     -3.07      0.00
   26    9    0     -0.37      0.00
   26   10    0     -0.23      0.00
   26   11    0     -2.07      0.00
   26   12    0     -0.12      0.00
   26   13    0      0.59      0.00
   26   14    0      1.48      0.00
   26   15    0      0.62      0.00
   26   16    0      2.05      0.00
   26   17    0     -1.46      0.00
   26   18    0     -1.09      0.00
   26   19    0      0.75      0.00
   26   20    0      4.09      0.00
   27    1    0      0.48      0.00
   27    2    0     -3.54      0.00
   27    3    0      1.42      0.00
   27    4    0      1.02      0.00
   27    5    0     -2.30      0.00
   27    6    0      5.22      0.00
   27    7    0     -0.85      0.00
   27    8    0     -0.42      0.00
   27    9    0      3.02      0.00
   27   10    0      1.84      0.00
   27   11    0      0.04      0.00
   27   12    0      3.80      0.00
   27   13    0     -1.79      0.00
   27   14    0     -0.80      0.00
   27   15    0      0.53      0.00
   27   16    0      1.68      0.00
   27   17    0      2.51      0.00
   27   18    0     -1.20      0.00
   28    0    0     -3.01      0.00
   28    1    0      1.99      0.00
   28    2    0     -1.41      0.00
   28    3    0      1.31      0.00
   28    4    0      2.19      0.00
   28    5    0     -5.45      0.00
   28    6    0      5.21      0.00
   28    7    0     -2.65      0.00
   28    8    0      0.22      0.00
   28    9    0      2.10      0.00
   28   10    0     -3.06      0.00
   28   11    0     -3.26      0.00
   28   12    0      2.51      0.00
   28   13    0      0.03      0.00
   28   14    0     -1.42      0.00
   28   15    0      0.15      0.00
   28   16    0     -5.83      0.00
   29    1    0      2.79      0.00
   29    2    0     -0.01      0.00
   29    3    0     -1.52      0.00
   29    4    0      2.75      0.00
   29    5    0     -3.29      0.00
   29    6    0      4.92      0.00
   29    7    0     -4.09      0.00
   29    8    0     -0.91      0.00
   29    9    0      2.51      0.00
   29   10    0     -1.25      0.00
   29   11    0      0.29      0.00
   29   12    0     -0.40      0.00
   29   13    0     -1.86      0.00
   30    0    0     -3.07      0.00
   30    1    0     -1.31      0.00
   30    2    0      1.00      0.00
   30    3    0     -1.51      0.00
   30    4    0      1.08      0.00
   30    5    0     -2.19      0.00
   30    6    0      1.63      0.00
   30    7    0     -2.63      0.00
   30    8    0      1.33      0.00
   30    9    0      0.44      0.00
   30   10    0     -2.86      0.00
   30   11    0      2.60      0.00
   31    1    0      1.05      0.00
   31    2    0      1.70      0.00
   31    3    0     -1.47      0.00
   31    4    0     -0.88      0.00
   31    5    0      1.47      0.00
   31    6    0      0.92      0.00
   31    7    0     -2.18      0.00
   31    8    0      4.40      0.00
   31    9    0      0.21      0.00
   32    0    0     -2.43      0.00
   32    1    0     -1.26      0.00
   32    2    0      0.00      0.00
   32    3    0      0.18      0.00
   32    4    0     -0.91      0.00
   32    5    0      2.30      0.00
    0    2    1     17.41      0.00
    0    4    1   -155.59      0.00
    0    6    1     -3.02      0.00
    0    8    1    -57.74      0.00
    0   10    1     12.09      0.00
    0   12    1     -4.97      0.00
    0   14    1    -15.55      0.00
    0   16    1     -3.07      0.00
    0   18    1    -13.70      0.00
    0   20    1      8.99      0.00
    0   22    1    -51.37      0.00
    0   24    1     79.74      0.00
    0   26    1     97.64      0.00
    0   30    1    -26.41      0.00
    0   32    1     29.03      0.00
    1   33    1      6.94      0.00
    1   32    1     10.91      0.00
    1   31    1    -24.42      0.00
    1   30    1    -28.38      0.00
    1   29    1     92.96      0.00
    1   27    1     14.83      0.00
    1   26    1      7.52      0.00
    1   25    1   -125.31      0.00
    1   24    1      7.60      0.00
    1   22    1     18.37      0.00
    1   21    1     22.26      0.00
    1   20    1      4.61      0.00
    1   19    1    -10.27      0.00
    1   18    1     -1.25      0.00
    1   17    1     15.38      0.00
    1   16    1      6.79      0.00
    1   15    1     -4.23      0.00
    1   14    1     -3.06      0.00
    1   13    1     24.30      0.00
    1   12    1     13.75      0.00
    1   11    1    -23.11      0.00
    1   10    1      3.23      0.00
    1    9    1     26.86      0.00
    1    8    1     -2.81      0.00
    1    7    1     17.90      0.00
    1    6    1    -12.19      0.00
    1    5    1     47.09      0.00
    1    4    1    -61.27      0.00
    1    3    1    153.33      0.00
    1    2    1    -33.78      0.00
    1    1    1   -238.96      0.00
    2   33    1    -29.45      0.00
    2   32    1     17.86      0.00
    2   31    1      8.98      0.00
    2   30    1    -33.47      0.00
    2   29    1     53.68      0.00
    2   28    1    -80.42      0.00
    2   27    1      9.38      0.00
    2   26    1     64.13      0.00
    2   25    1     -7.97      0.00
    2   24    1     50.54      0.00
    2   23    1    -19.29      0.00
    2   22    1    -34.96      0.00
    2   21    1    -24.49      0.00
    2   20    1     13.72      0.00
    2   19    1      8.03      0.00
    2   18    1     -5.53      0.00
    2   17    1     -9.19      0.00
    2   16    1      4.40      0.00
    2   15    1     -3.02      0.00
    2   14    1     -7.58      0.00
    2   13    1     -6.08      0.00
    2   12    1     -2.86      0.00
    2   11    1    -19.95      0.00
    2   10    1     17.45      0.00
    2    9    1     11.03      0.00
    2    8    1    -21.91      0.00
    2    7    1     -6.91      0.00
    2    6    1     21.23      0.00
    2    5    1     52.15      0.00
    2    4    1   -108.26      0.00
    2    3    1     80.69      0.00
    2    2    1    -20.95      0.00
    2    1    1     12.27      0.00
    2    0    1    236.01      0.00
    3   33    1    -10.64      0.00
    3   32    1     29.35      0.00
    3   31    1      3.31      0.00
    3   30    1    -36.32      0.00
    3   29    1     61.47      0.00
    3   28    1    -42.86      0.00
    3   27    1     14.18      0.00
    3   26    1     -4.48      0.00
    3   25    1    -50.97      0.00
    3   24    1      4.27      0.00
    3   23    1     11.77      0.00
    3   22    1     30.49      0.00
    3   21    1      3.64      0.00
    3   20    1      3.54      0.00
    3   19    1     -9.90      0.00
    3   18    1     -7.19      0.00
    3   17    1      2.26      0.00
    3   16    1     16.56      0.00
    3   15    1    -11.11      0.00
    3   14    1     -2.23      0.00
    3   13    1     10.71      0.00
    3   12    1     19.31      0.00
    3   11    1    -13.59      0.00
    3   10    1     -4.23      0.00
    3    9    1     -1.23      0.00
    3    8    1     -4.45      0.00
    3    7    1    -19.41      0.00
    3    6    1      7.94      0.00
    3    5    1      0.18      0.00
    3    4    1    -66.75      0.00
    3    3    1     89.27      0.00
    3    2    1    -30.19      0.00
    3    1    1    -62.58      0.00
    4   33    1    -26.31      0.00
    4   32    1      5.33      0.00
    4   31    1    -13.96      0.00
    4   30    1    -27.81      0.00
    4   29    1     34.50      0.00
    4   28    1    -30.14      0.00
    4   27    1     28.46      0.00
    4   26    1     12.11      0.00
    4   25    1     12.53      0.00
    4   24    1      2.51      0.00
    4   23    1    -13.32      0.00
    4   22    1    -10.54      0.00
    4   21    1    -19.15      0.00
    4   20    1      7.09      0.00
    4   19    1     14.46      0.00
    4   18    1     -2.18      0.00
    4   17    1     -7.87      0.00
    4   16    1      9.80      0.00
    4   15    1     -9.78      0.00
    4   14    1      4.00      0.00
    4   13    1     -3.20      0.00
    4   12    1     -3.15      0.00
    4   11    1     -7.24      0.00
    4   10    1      4.07      0.00
    4    9    1     20.90      0.00
    4    8    1      6.11      0.00
    4    7    1    -17.94      0.00
    4    6    1     27.28      0.00
    4    5    1     -1.81      0.00
    4    4    1    -20.56      0.00
    4    3    1     25.33      0.00
    4    2    1    -24.38      0.00
    4    1    1     -5.30      0.00
    4    0    1     27.69      0.00
    5   32    1     23.37      0.00
    5   31    1     11.79      0.00
    5   30    1     12.86      0.00
    5   29    1     15.27      0.00
    5   28    1    -23.73      0.00
    5   27    1      1.39      0.00
    5   26    1    -29.23      0.00
    5   25    1      4.67      0.00
    5   24    1     -5.57      0.00
    5   23    1      8.26      0.00
    5   22    1     16.10      0.00
    5   21    1      0.37      0.00
    5   20    1     -2.06      0.00
    5   19    1      5.11      0.00
    5   18    1     -8.71      0.00
    5   17    1     -2.07      0.00
    5   16    1     12.75      0.00
    5   15    1     -9.76      0.00
    5   14    1      3.95      0.00
    5   13    1     -0.34      0.00
    5   12    1      1.63      0.00
    5   11    1      7.29      0.00
    5   10    1    -12.27      0.00
    5    9    1      5.60      0.00
    5    8    1    -10.55      0.00
    5    7    1     -8.02      0.00
    5    6    1     23.60      0.00
    5    5    1     -8.64      0.00
    5    4    1     12.36      0.00
    5    3    1     -3.89      0.00
    5    2    1      6.48      0.00
    5    1    1     -0.12      0.00
    5   33    1    -16.86      0.00
    6   32    1     -0.11      0.00
    6   31    1    -27.29      0.00
    6   30    1     -9.59      0.00
    6   29    1    -16.39      0.00
    6   28    1      4.33      0.00
    6   27    1     27.76      0.00
    6   26    1     -3.28      0.00
    6   25    1     18.94      0.00
    6   24    1     -8.99      0.00
    6   23    1     -6.09      0.00
    6   22    1      0.12      0.00
    6   21    1     -4.23      0.00
    6   20    1     -8.64      0.00
    6   19    1      4.37      0.00
    6   18    1     -5.00      0.00
    6   17    1      0.61      0.00
    6   16    1      6.16      0.00
    6   15    1     -9.58      0.00
    6   14    1      4.34      0.00
    6   13    1      0.94      0.00
    6   12    1     -3.73      0.00
    6   11    1      7.78      0.00
    6   10    1    -14.93      0.00
    6    9    1     10.06      0.00
    6    8    1     -5.07      0.00
    6    7    1      7.31      0.00
    6    6    1     -6.63      0.00
    6    5    1    -20.81      0.00
    6    4    1     12.26      0.00
    6    3    1    -16.52      0.00
    6    2    1     25.41      0.00
    6    1    1      2.58      0.00
    6    0    1      1.99      0.00
    6   33    1      3.70      0.00
    7   32    1     -0.19      0.00
    7   31    1      6.42      0.00
    7   30    1     33.41      0.00
    7   29    1     -0.40      0.00
    7   28    1      1.63      0.00
    7   27    1     -4.57      0.00
    7   26    1    -24.83      0.00
    7   25    1      4.10      0.00
    7   24    1      0.88      0.00
    7   23    1     -1.47      0.00
    7   22    1     -0.03      0.00
    7   21    1      3.73      0.00
    7   20    1      2.86      0.00
    7   19    1      9.87      0.00
    7   18    1      1.67      0.00
    7   17    1     -3.28      0.00
    7   16    1     -0.82      0.00
    7   15    1     -2.04      0.00
    7   14    1      7.25      0.00
    7   13    1     -1.06      0.00
    7   12    1    -12.38      0.00
    7   11    1      8.52      0.00
    7   10    1     -0.21      0.00
    7    9    1      9.27      0.00
    7    8    1     -8.72      0.00
    7    7    1      8.00      0.00
    7    6    1    -15.39      0.00
    7    5    1     11.49      0.00
    7    4    1     20.14      0.00
    7    3    1    -24.19      0.00
    7    2    1     -8.31      0.00
    7    1    1    -21.78      0.00
    8   32    1     -4.39      0.00
    8   31    1     -8.24      0.00
    8   30    1     -3.94      0.00
    8   29    1    -20.98      0.00
    8   28    1     -0.24      0.00
    8   27    1     13.50      0.00
    8   26    1      3.26      0.00
    8   25    1      5.19      0.00
    8   24    1      3.88      0.00
    8   23    1     -1.22      0.00
    8   22    1      1.72      0.00
    8   21    1      5.65      0.00
    8   20    1     -6.59      0.00
    8   19    1    -13.52      0.00
    8   18    1     -0.30      0.00
    8   17    1      2.94      0.00
    8   16    1      3.62      0.00
    8   15    1     -2.75      0.00
    8   14    1     -2.04      0.00
    8   13    1      3.38      0.00
    8   12    1     -0.75      0.00
    8   11    1     12.22      0.00
    8   10    1     -4.01      0.00
    8    9    1    -14.12      0.00
    8    8    1     -1.14      0.00
    8    7    1     23.86      0.00
    8    6    1    -10.20      0.00
    8    5    1      6.30      0.00
    8    4    1     -5.08      0.00
    8    3    1     -4.09      0.00
    8    2    1     18.61      0.00
    8    1    1     21.86      0.00
    8    0    1     17.64      0.00
    9   31    1      1.75      0.00
    9   30    1      5.66      0.00
    9   29    1      5.60      0.00
    9   28    1      1.21      0.00
    9   27    1      1.09      0.00
    9   26    1     -7.99      0.00
    9   25    1     -7.59      0.00
    9   24    1      4.51      0.00
    9   23    1     -2.72      0.00
    9   22    1    -10.68      0.00
    9   21    1      1.38      0.00
    9   20    1      5.14      0.00
    9   19    1      1.04      0.00
    9   18    1     12.09      0.00
    9   17    1     -3.36      0.00
    9   16    1     -6.46      0.00
    9   15    1     -0.25      0.00
    9   14    1      5.19      0.00
    9   13    1      3.74      0.00
    9   12    1    -15.98      0.00
    9   11    1     -1.78      0.00
    9   10    1      6.01      0.00
    9    9    1     -1.96      0.00
    9    8    1      7.12      0.00
    9    7    1     -1.56      0.00
    9    6    1    -23.88      0.00
    9    5    1      5.60      0.00
    9    4    1      7.98      0.00
    9    3    1      6.14      0.00
    9    2    1    -17.78      0.00
    9    1    1    -12.67      0.00
    9   32    1     -7.75      0.00
   10   31    1      9.75      0.00
   10   30    1     -0.87      0.00
   10   29    1      2.66      0.00
   10   28    1     -6.97      0.00
   10   27    1      3.13      0.00
   10   26    1      3.41      0.00
   10   25    1     -2.29      0.00
   10   24    1      4.22      0.00
   10   23    1      2.78      0.00
   10   22    1     -2.17      0.00
   10   21    1      9.87      0.00
   10   20    1      1.82      0.00
   10   19    1    -12.83      0.00
   10   18    1     -0.19      0.00
   10   17    1     -0.83      0.00
   10   16    1      2.46      0.00
   10   15    1      0.93      0.00
   10   14    1     -2.06      0.00
   10   13    1      2.08      0.00
   10   12    1     -3.12      0.00
   10   11    1     12.22      0.00
   10   10    1      3.81      0.00
   10    9    1    -14.92      0.00
   10    8    1     -0.05      0.00
   10    7    1      5.75      0.00
   10    6    1      7.15      0.00
   10    5    1      2.46      0.00
   10    4    1     -4.65      0.00
   10    3    1     -2.06      0.00
   10    2    1     -5.90      0.00
   10    1    1     15.61      0.00
   10    0    1     11.82      0.00
   10   32    1     -3.36      0.00
   11   30    1    -11.58      0.00
   11   29    1      1.93      0.00
   11   28    1     -1.63      0.00
   11   27    1      3.82      0.00
   11   26    1      1.13      0.00
   11   25    1     -3.01      0.00
   11   24    1      2.21      0.00
   11   23    1      2.64      0.00
   11   22    1     -6.99      0.00
   11   21    1     -0.84      0.00
   11   20    1     -2.15      0.00
   11   19    1     -1.34      0.00
   11   18    1      7.07      0.00
   11   17    1      3.22      0.00
   11   16    1     -3.00      0.00
   11   15    1     -3.38      0.00
   11   14    1      1.70      0.00
   11   13    1      4.67      0.00
   11   12    1     -6.26      0.00
   11   11    1      1.27      0.00
   11   10    1     -2.36      0.00
   11    9    1      1.99      0.00
   11    8    1      6.52      0.00
   11    7    1     -1.11      0.00
   11    6    1     -1.35      0.00
   11    5    1    -12.43      0.00
   11    4    1      5.79      0.00
   11    3    1      6.84      0.00
   11    2    1     -7.49      0.00
   11    1    1     -2.90      0.00
   11   31    1     -0.59      0.00
   12   30    1      2.12      0.00
   12   29    1      4.59      0.00
   12   28    1     -1.76      0.00
   12   27    1     -2.27      0.00
   12   26    1     -2.40      0.00
   12   25    1      0.00      0.00
   12   24    1     -0.70      0.00
   12   23    1     -0.93      0.00
   12   22    1     -1.56      0.00
   12   21    1      4.04      0.00
   12   20    1      3.85      0.00
   12   19    1      1.38      0.00
   12   18    1     -4.35      0.00
   12   17    1     -1.59      0.00
   12   16    1     -1.30      0.00
   12   15    1      2.66      0.00
   12   14    1      2.56      0.00
   12   13    1     -1.11      0.00
   12   12    1     -5.99      0.00
   12   11    1      2.48      0.00
   12   10    1     -2.66      0.00
   12    9    1      3.93      0.00
   12    8    1     -5.99      0.00
   12    7    1     -2.46      0.00
   12    6    1      9.34      0.00
   12    5    1     -3.20      0.00
   12    4    1      9.18      0.00
   12    3    1      2.35      0.00
   12    2    1     -3.43      0.00
   12    1    1      2.81      0.00
   12    0    1      4.59      0.00
   12   31    1      6.15      0.00
   13   30    1     -1.32      0.00
   13   29    1     -3.24      0.00
   13   28    1      1.66      0.00
   13   27    1      2.85      0.00
   13   26    1     -1.42      0.00
   13   25    1      2.34      0.00
   13   24    1     -1.71      0.00
   13   23    1      0.14      0.00
   13   22    1      3.91      0.00
   13   21    1     -2.04      0.00
   13   20    1     -3.79      0.00
   13   19    1     -1.33      0.00
   13   18    1     -1.95      0.00
   13   17    1      5.73      0.00
   13   16    1     -0.11      0.00
   13   15    1     -1.92      0.00
   13   14    1     -4.37      0.00
   13   13    1      0.56      0.00
   13   12    1      5.31      0.00
   13   11    1      5.73      0.00
   13   10    1     -3.84      0.00
   13    9    1      3.90      0.00
   13    8    1     -6.72      0.00
   13    7    1      0.19      0.00
   13    6    1      4.12      0.00
   13    5    1    -11.03      0.00
   13    4    1     -4.50      0.00
   13    3    1     -3.42      0.00
   13    2    1     -1.21      0.00
   13    1    1      0.65      0.00
   13   31    1      1.68      0.00
   14   29    1     -2.93      0.00
   14   28    1      1.85      0.00
   14   27    1      1.13      0.00
   14   26    1     -3.85      0.00
   14   25    1      5.90      0.00
   14   24    1     -0.20      0.00
   14   23    1     -1.44      0.00
   14   22    1      0.71      0.00
   14   21    1     -4.63      0.00
   14   20    1      2.03      0.00
   14   19    1      5.27      0.00
   14   18    1     -0.16      0.00
   14   17    1     -0.59      0.00
   14   16    1     -3.76      0.00
   14   15    1      4.66      0.00
   14   14    1      1.84      0.00
   14   13    1      1.61      0.00
   14   12    1     -2.46      0.00
   14   11    1     -7.59      0.00
   14   10    1     -4.27      0.00
   14    9    1      9.19      0.00
   14    8    1      1.02      0.00
   14    7    1      1.22      0.00
   14    6    1      3.32      0.00
   14    5    1      2.03      0.00
   14    4    1      4.79      0.00
   14    3    1      4.95      0.00
   14    2    1      1.17      0.00
   14    1    1     -5.59      0.00
   14    0    1     -2.62      0.00
   14   30    1      2.55      0.00
   15   29    1     -3.60      0.00
   15   28    1     -0.10      0.00
   15   27    1      0.60      0.00
   15   26    1     -3.89      0.00
   15   25    1      2.32      0.00
   15   24    1     -4.84      0.00
   15   23    1     -0.04      0.00
   15   22    1      4.67      0.00
   15   21    1      1.31      0.00
   15   20    1      0.99      0.00
   15   19    1     -2.81      0.00
   15   18    1     -3.87      0.00
   15   17    1      0.04      0.00
   15   16    1      0.36      0.00
   15   15    1      3.95      0.00
   15   14    1     -7.75      0.00
   15   13    1     -1.67      0.00
   15   12    1      4.90      0.00
   15   11    1      3.09      0.00
   15   10    1      2.01      0.00
   15    9    1     -0.60      0.00
   15    8    1     -6.50      0.00
   15    7    1     -4.52      0.00
   15    6    1      0.78      0.00
   15    5    1      1.93      0.00
   15    4    1     -7.35      0.00
   15    3    1     -2.25      0.00
   15    2    1      6.20      0.00
   15    1    1     -0.09      0.00
   15   30    1      6.00      0.00
   16   28    1      1.06      0.00
   16   27    1      0.49      0.00
   16   26    1     -0.31      0.00
   16   25    1      1.57      0.00
   16   24    1     -1.64      0.00
   16   23    1      2.18      0.00
   16   22    1     -2.32      0.00
   16   21    1     -3.82      0.00
   16   20    1     -1.29      0.00
   16   19    1      3.53      0.00
   16   18    1      4.89      0.00
   16   17    1      1.34      0.00
   16   16    1     -3.20      0.00
   16   15    1      2.47      0.00
   16   14    1     -3.25      0.00
   16   13    1      4.43      0.00
   16   12    1      2.37      0.00
   16   11    1     -5.40      0.00
   16   10    1     -2.45      0.00
   16    9    1      2.46      0.00
   16    8    1      5.44      0.00
   16    7    1      0.02      0.00
   16    6    1     -0.94      0.00
   16    5    1      4.28      0.00
   16    4    1     -3.97      0.00
   16    3    1      0.73      0.00
   16    2    1      4.05      0.00
   16    1    1     -8.34      0.00
   16    0    1      0.41      0.00
   16   29    1     -1.88      0.00
   17   28    1      0.19      0.00
   17   27    1     -1.33      0.00
   17   26    1      4.94      0.00
   17   25    1     -0.62      0.00
   17   24    1     -0.45      0.00
   17   23    1      1.88      0.00
   17   22    1     -1.00      0.00
   17   21    1      2.60      0.00
   17   20    1     -0.94      0.00
   17   19    1     -1.29      0.00
   17   18    1     -5.40      0.00
   17   17    1     -3.19      0.00
   17   16    1      0.77      0.00
   17   15    1      6.45      0.00
   17   14    1     -2.84      0.00
   17   13    1     -1.27      0.00
   17   12    1     -1.14      0.00
   17   11    1     -1.23      0.00
   17   10    1      0.49      0.00
   17    9    1      0.35      0.00
   17    8    1     -0.29      0.00
   17    7    1     -3.48      0.00
   17    6    1      0.43      0.00
   17    5    1      5.91      0.00
   17    4    1     -5.15      0.00
   17    3    1     -1.58      0.00
   17    2    1      5.97      0.00
   17    1    1     -3.03      0.00
   18   27    1     -4.90      0.00
   18   26    1      4.30      0.00
   18   25    1     -6.33      0.00
   18   24    1      0.78      0.00
   18   23    1      1.58      0.00
   18   22    1      0.12      0.00
   18   21    1      1.93      0.00
   18   20    1     -1.76      0.00
   18   19    1      5.71      0.00
   18   18    1      2.23      0.00
   18   17    1      2.75      0.00
   18   16    1     -1.14      0.00
   18   15    1     -2.44      0.00
   18   14    1     -3.75      0.00
   18   13    1      1.94      0.00
   18   12    1      4.62      0.00
   18   11    1      2.55      0.00
   18   10    1     -1.61      0.00
   18    9    1      1.39      0.00
   18    8    1      0.28      0.00
   18    7    1     -2.66      0.00
   18    6    1     -1.54      0.00
   18    5    1      1.67      0.00
   18    4    1     -1.59      0.00
   18    3    1      1.04      0.00
   18    2    1      3.81      0.00
   18    1    1     -3.14      0.00
   18    0    1     -0.39      0.00
   18   28    1     -3.77      0.00
   19   26    1      6.54      0.00
   19   25    1     -5.03      0.00
   19   24    1      2.53      0.00
   19   23    1     -2.40      0.00
   19   22    1     -1.94      0.00
   19   21    1     -1.08      0.00
   19   20    1     -4.23      0.00
   19   19    1      2.40      0.00
   19   18    1     -5.48      0.00
   19   17    1     -1.42      0.00
   19   16    1      1.38      0.00
   19   15    1      2.19      0.00
   19   14    1      2.38      0.00
   19   13    1     -1.77      0.00
   19   12    1     -2.80      0.00
   19   11    1     -2.39      0.00
   19   10    1     -3.73      0.00
   19    9    1      3.80      0.00
   19    8    1      0.77      0.00
   19    7    1      1.18      0.00
   19    6    1      2.77      0.00
   19    5    1      0.59      0.00
   19    4    1     -0.86      0.00
   19    3    1     -3.95      0.00
   19    2    1      0.25      0.00
   19    1    1      1.47      0.00
   19   27    1     -0.43      0.00
   20   26    1      3.86      0.00
   20   25    1     -2.83      0.00
   20   24    1      3.60      0.00
   20   23    1     -0.04      0.00
   20   22    1      3.32      0.00
   20   21    1      2.09      0.00
   20   20    1     -1.55      0.00
   20   19    1      4.17      0.00
   20   18    1     -2.20      0.00
   20   17    1      2.15      0.00
   20   16    1      1.39      0.00
   20   15    1     -2.44      0.00
   20   14    1      0.03      0.00
   20   13    1     -0.45      0.00
   20   12    1      2.75      0.00
   20   11    1      3.15      0.00
   20   10    1     -2.03      0.00
   20    9    1      1.39      0.00
   20    8    1     -4.25      0.00
   20    7    1     -1.76      0.00
   20    6    1     -0.51      0.00
   20    5    1     -2.47      0.00
   20    4    1      4.47      0.00
   20    3    1     -0.72      0.00
   20    2    1      1.86      0.00
   20    1    1      0.41      0.00
   20    0    1     -5.50      0.00
   21   25    1     -2.27      0.00
   21   24    1      0.11      0.00
   21   23    1     -1.85      0.00
   21   22    1     -0.99      0.00
   21   21    1     -1.51      0.00
   21   20    1     -1.15      0.00
   21   19    1      3.09      0.00
   21   18    1     -2.00      0.00
   21   17    1     -0.08      0.00
   21   16    1     -1.17      0.00
   21   15    1     -1.75      0.00
   21   14    1      0.76      0.00
   21   13    1     -0.17      0.00
   21   12    1     -1.12      0.00
   21   11    1      0.09      0.00
   21   10    1     -0.41      0.00
   21    9    1      3.62      0.00
   21    8    1      0.12      0.00
   21    7    1      2.77      0.00
   21    6    1      0.42      0.00
   21    5    1     -3.04      0.00
   21    4    1      3.36      0.00
   21    3    1     -5.10      0.00
   21    2    1      1.21      0.00
   21    1    1      2.67      0.00
   22   24    1     -1.09      0.00
   22   23    1      1.86      0.00
   22   22    1      0.93      0.00
   22   21    1      1.07      0.00
   22   20    1      0.63      0.00
   22   19    1     -1.27      0.00
   22   18    1     -1.46      0.00
   22   17    1      2.07      0.00
   22   16    1      1.96      0.00
   22   15    1      2.08      0.00
   22   14    1     -0.21      0.00
   22   13    1      1.36      0.00
   22   12    1     -2.00      0.00
   22   11    1      0.07      0.00
   22   10    1     -0.82      0.00
   22    9    1     -2.22      0.00
   22    8    1     -2.68      0.00
   22    7    1      2.13      0.00
   22    6    1     -0.02      0.00
   22    5    1     -0.37      0.00
   22    4    1      4.21      0.00
   22    3    1     -4.30      0.00
   22    2    1      1.66      0.00
   22    1    1     -1.21      0.00
   22    0    1     -2.08      0.00
   23   23    1      2.23      0.00
   23   22    1     -4.26      0.00
   23   21    1     -2.73      0.00
   23   20    1      1.43      0.00
   23   19    1     -1.45      0.00
   23   18    1      1.44      0.00
   23   17    1     -0.51      0.00
   23   16    1     -3.20      0.00
   23   15    1     -1.18      0.00
   23   14    1     -2.77      0.00
   23   13    1      3.78      0.00
   23   12    1     -2.33      0.00
   23   11    1      1.23      0.00
   23   10    1      2.57      0.00
   23    9    1     -0.26      0.00
   23    8    1      0.86      0.00
   23    7    1      1.49      0.00
   23    6    1     -3.59      0.00
   23    5    1     -1.36      0.00
   23    4    1      2.46      0.00
   23    3    1     -1.29      0.00
   23    2    1      3.66      0.00
   23    1    1     -1.18      0.00
   24   22    1      0.49      0.00
   24   21    1      3.40      0.00
   24   20    1      5.05      0.00
   24   19    1     -3.19      0.00
   24   18    1      1.11      0.00
   24   17    1      0.24      0.00
   24   16    1      1.35      0.00
   24   15    1      2.81      0.00
   24   14    1     -1.98      0.00
   24   13    1      3.52      0.00
   24   12    1     -3.84      0.00
   24   11    1      0.86      0.00
   24   10    1      1.60      0.00
   24    9    1     -3.09      0.00
   24    8    1     -0.43      0.00
   24    7    1      1.17      0.00
   24    6    1     -0.33      0.00
   24    5    1      1.01      0.00
   24    4    1     -0.59      0.00
   24    3    1     -2.94      0.00
   24    2    1     -0.11      0.00
   24    1    1     -1.41      0.00
   24    0    1      3.33      0.00
   25   21    1     -4.16      0.00
   25   20    1     -0.86      0.00
   25   19    1     -3.87      0.00
   25   18    1      2.19      0.00
   25   17    1     -0.40      0.00
   25   16    1     -0.48      0.00
   25   15    1     -0.41      0.00
   25   14    1     -2.72      0.00
   25   13    1      3.64      0.00
   25   12    1     -2.46      0.00
   25   11    1      0.32      0.00
   25   10    1      0.85      0.00
   25    9    1     -0.92      0.00
   25    8    1      1.71      0.00
   25    7    1      0.92      0.00
   25    6    1      0.83      0.00
   25    5    1      0.08      0.00
   25    4    1      1.05      0.00
   25    3    1      2.69      0.00
   25    2    1      0.51      0.00
   25    1    1     -2.36      0.00
   26   20    1      4.58      0.00
   26   19    1      0.71      0.00
   26   18    1      1.28      0.00
   26   17    1     -1.67      0.00
   26   16    1     -0.31      0.00
   26   15    1      1.09      0.00
   26   14    1     -1.40      0.00
   26   13    1      1.92      0.00
   26   12    1     -1.63      0.00
   26   11    1     -0.23      0.00
   26   10    1      0.32      0.00
   26    9    1      0.12      0.00
   26    8    1     -1.19      0.00
   26    7    1     -2.84      0.00
   26    6    1      0.77      0.00
   26    5    1     -3.37      0.00
   26    4    1     -1.15      0.00
   26    3    1      0.74      0.00
   26    2    1     -1.16      0.00
   26    1    1      1.14      0.00
   26    0    1      3.39      0.00
   27   18    1     -0.36      0.00
   27   17    1      0.63      0.00
   27   16    1      1.02      0.00
   27   15    1      2.32      0.00
   27   14    1     -2.26      0.00
   27   13    1      0.80      0.00
   27   12    1      1.45      0.00
   27   11    1      0.54      0.00
   27   10    1     -0.31      0.00
   27    9    1      1.87      0.00
   27    8    1     -0.74      0.00
   27    7    1     -0.28      0.00
   27    6    1      5.46      0.00
   27    5    1     -1.62      0.00
   27    4    1      1.68      0.00
   27    3    1      1.04      0.00
   27    2    1     -2.39      0.00
   27    1    1     -1.10      0.00
   28   16    1     -4.02      0.00
   28   15    1      1.54      0.00
   28   14    1     -2.41      0.00
   28   13    1      0.41      0.00
   28   12    1      0.68      0.00
   28   11    1     -2.46      0.00
   28   10    1     -2.50      0.00
   28    9    1      3.10      0.00
   28    8    1     -0.72      0.00
   28    7    1     -1.50      0.00
   28    6    1      2.07      0.00
   28    5    1     -4.45      0.00
   28    4    1      1.03      0.00
   28    3    1      0.75      0.00
   28    2    1      0.31      0.00
   28    1    1      1.12      0.00
   28    0    1      0.37      0.00
   29   11    1      0.94      0.00
   29   10    1     -0.63      0.00
   29    9    1      1.88      0.00
   29    8    1     -2.32      0.00
   29    7    1     -1.95      0.00
   29    6    1      2.51      0.00
   29    5    1     -0.76      0.00
   29    4    1      1.44      0.00
   29    3    1     -1.24      0.00
   29    2    1      0.13      0.00
   29    1    1      0.48      0.00
   29   12    1      1.53      0.00
   29   13    1     -0.72      0.00
   30   10    1     -2.26      0.00
   30    9    1      0.99      0.00
   30    8    1      1.87      0.00
   30    7    1     -0.40      0.00
   30    6    1      0.61      0.00
   30    5    1     -0.77      0.00
   30    4    1     -0.14      0.00
   30    3    1     -1.39      0.00
   30    2    1      0.74      0.00
   30    1    1     -1.34      0.00
   30    0    1     -2.13      0.00
   30   11    1      0.42      0.00
   31    7    1     -2.39      0.00
   31    6    1      0.40      0.00
   31    5    1      1.69      0.00
   31    4    1      0.43      0.00
   31    3    1     -0.60      0.00
   31    2    1      2.68      0.00
   31    1    1      1.20      0.00
   31    8    1      2.49      0.00
   31    9    1     -0.37      0.00
   32    3    1     -1.81      0.00
   32    2    1      0.46      0.00
   32    1    1     -1.72      0.00
   32    0    1     -1.19      0.00
   32    4    1     -0.98      0.00
    0    0    2     54.86      0.00
    0    2    2    -24.43      0.00
    0    4    2     -2.20      0.00
    0    6    2     17.49      0.00
    0    8    2    -33.73      0.00
    0   10    2     18.01      0.00
    0   12    2    -12.55      0.00
    0   14    2     -2.90      0.00
    0   16    2      1.86      0.00
    0   18    2    -14.77      0.00
    0   20    2     11.15      0.00
    0   22    2    -18.23      0.00
    0   28    2    -62.53      0.00
    0   30    2     35.33      0.00
    0   32    2     -1.77      0.00
    1   33    2     50.35      0.00
    1   32    2     -0.82      0.00
    1   31    2    -53.01      0.00
    1   30    2    -41.45      0.00
    1   26    2     -6.42      0.00
    1   24    2     18.65      0.00
    1   23    2    -10.97      0.00
    1   22    2     27.62      0.00
    1   21    2      5.90      0.00
    1   20    2      1.24      0.00
    1   19    2     -4.29      0.00
    1   18    2     -3.71      0.00
    1   17    2     17.29      0.00
    1   16    2      7.21      0.00
    1   15    2     -9.40      0.00
    1   14    2     -0.03      0.00
    1   13    2     18.04      0.00
    1   12    2     10.29      0.00
    1   11    2    -11.56      0.00
    1   10    2     -4.76      0.00
    1    9    2      8.69      0.00
    1    8    2     -3.34      0.00
    1    7    2     20.19      0.00
    1    6    2     17.76      0.00
    1    5    2    -26.05      0.00
    1    4    2     -3.80      0.00
    1    3    2     31.03      0.00
    1    2    2      1.18      0.00
    1    1    2    -31.07      0.00
    2   33    2    -14.67      0.00
    2   32    2     33.96      0.00
    2   31    2     20.37      0.00
    2   30    2     30.70      0.00
    2   29    2     68.52      0.00
    2   28    2    -89.38      0.00
    2   27    2     35.67      0.00
    2   24    2     45.04      0.00
    2   23    2    -41.26      0.00
    2   22    2    -11.05      0.00
    2   21    2    -25.60      0.00
    2   20    2      9.73      0.00
    2   19    2     12.31      0.00
    2   18    2    -12.94      0.00
    2   17    2     -7.78      0.00
    2   16    2     -6.00      0.00
    2   15    2     -3.63      0.00
    2   14    2     -2.03      0.00
    2   13    2     -4.12      0.00
    2   12    2     -5.92      0.00
    2   11    2     -9.15      0.00
    2   10    2     10.95      0.00
    2    9    2     18.66      0.00
    2    8    2    -25.35      0.00
    2    7    2    -18.63      0.00
    2    6    2      6.72      0.00
    2    5    2     -6.82      0.00
    2    4    2     -1.57      0.00
    2    3    2     18.80      0.00
    2    2    2     -1.23      0.00
    2    1    2     -4.54      0.00
    2    0    2     61.02      0.00
    3   32    2     24.99      0.00
    3   31    2    -66.17      0.00
    3   30    2    -29.59      0.00
    3   28    2    -49.23      0.00
    3   27    2     94.26      0.00
    3   26    2    -14.75      0.00
    3   25    2    -18.84      0.00
    3   24    2     20.15      0.00
    3   23    2    -13.03      0.00
    3   22    2     38.86      0.00
    3   21    2      1.58      0.00
    3   20    2     -0.82      0.00
    3   19    2     -3.77      0.00
    3   18    2     -5.70      0.00
    3   17    2     14.88      0.00
    3   16    2     12.82      0.00
    3   15    2      1.35      0.00
    3   14    2     -7.25      0.00
    3   13    2      2.54      0.00
    3   12    2      9.40      0.00
    3   11    2     -5.12      0.00
    3   10    2     -9.95      0.00
    3    9    2      4.27      0.00
    3    8    2     -5.30      0.00
    3    7    2      7.59      0.00
    3    6    2     20.00      0.00
    3    5    2     -6.00      0.00
    3    4    2    -32.20      0.00
    3    3    2      6.01      0.00
    3    2    2    -16.00      0.00
    3    1    2    -33.49      0.00
    3   33    2    -22.80      0.00
    4   32    2     61.18      0.00
    4   31    2    -31.04      0.00
    4   30    2     16.65      0.00
    4   29    2     12.56      0.00
    4   28    2   -100.55      0.00
    4   27    2     23.11      0.00
    4   26    2    -44.06      0.00
    4   25    2     10.08      0.00
    4   24    2     29.68      0.00
    4   23    2    -18.07      0.00
    4   22    2      2.23      0.00
    4   21    2    -13.79      0.00
    4   20    2      0.99      0.00
    4   19    2     10.62      0.00
    4   18    2     -1.56      0.00
    4   17    2     -9.04      0.00
    4   16    2     -7.73      0.00
    4   15    2      0.43      0.00
    4   14    2      2.97      0.00
    4   13    2      8.26      0.00
    4   12    2      2.87      0.00
    4   11    2     -0.12      0.00
    4   10    2     -1.42      0.00
    4    9    2     14.88      0.00
    4    8    2      5.98      0.00
    4    7    2    -11.80      0.00
    4    6    2      5.93      0.00
    4    5    2     13.37      0.00
    4    4    2     -2.03      0.00
    4    3    2     38.03      0.00
    4    2    2      4.40      0.00
    4    1    2      4.47      0.00
    4    0    2     11.92      0.00
    5   32    2     37.54      0.00
    5   31    2    -45.50      0.00
    5   30    2     34.60      0.00
    5   29    2     43.09      0.00
    5   28    2      1.04      0.00
    5   27    2     70.30      0.00
    5   25    2    -16.40      0.00
    5   24    2    -11.10      0.00
    5   23    2    -24.54      0.00
    5   22    2      7.14      0.00
    5   21    2      7.65      0.00
    5   20    2     -2.56      0.00
    5   19    2     -1.88      0.00
    5   18    2     -0.68      0.00
    5   17    2     -1.94      0.00
    5   16    2      6.79      0.00
    5   15    2      0.75      0.00
    5   14    2     -7.90      0.00
    5   13    2     -8.95      0.00
    5   12    2     -8.52      0.00
    5   11    2      6.69      0.00
    5   10    2     -9.81      0.00
    5    9    2     -4.71      0.00
    5    8    2     -1.94      0.00
    5    7    2    -21.08      0.00
    5    6    2      3.59      0.00
    5    5    2      0.60      0.00
    5    4    2    -19.52      0.00
    5    3    2     -1.46      0.00
    5    2    2    -10.46      0.00
    5    1    2     17.45      0.00
    6   32    2     30.73      0.00
    6   31    2    -30.10      0.00
    6   30    2      3.99      0.00
    6   29    2    -29.22      0.00
    6   28    2    -48.63      0.00
    6   27    2      9.63      0.00
    6   26    2     -4.42      0.00
    6   25    2     24.51      0.00
    6   24    2     36.73      0.00
    6   23    2      7.13      0.00
    6   22    2      1.53      0.00
    6   21    2      0.24      0.00
    6   20    2    -10.10      0.00
    6   19    2     -0.71      0.00
    6   18    2      8.96      0.00
    6   17    2     -1.36      0.00
    6   16    2      2.51      0.00
    6   15    2     -3.29      0.00
    6   14    2      6.20      0.00
    6   13    2      5.59      0.00
    6   12    2      0.71      0.00
    6   11    2     13.03      0.00
    6   10    2    -12.47      0.00
    6    9    2      3.20      0.00
    6    8    2     21.08      0.00
    6    7    2      0.67      0.00
    6    6    2      8.86      0.00
    6    5    2     -5.69      0.00
    6    4    2     -0.08      0.00
    6    3    2    -10.56      0.00
    6    2    2     -5.30      0.00
    6    1    2     -2.69      0.00
    6    0    2    -38.81      0.00
    7   32    2     -6.96      0.00
    7   31    2    -14.34      0.00
    7   30    2     19.31      0.00
    7   29    2     18.31      0.00
    7   28    2     11.10      0.00
    7   27    2     13.91      0.00
    7   26    2    -21.12      0.00
    7   25    2    -27.04      0.00
    7   24    2    -13.11      0.00
    7   23    2    -13.97      0.00
    7   22    2     -3.55      0.00
    7   21    2     12.39      0.00
    7   20    2      4.18      0.00
    7   19    2     -0.42      0.00
    7   18    2      2.08      0.00
    7   17    2     -8.32      0.00
    7   16    2     -1.24      0.00
    7   15    2     -0.56      0.00
    7   14    2     10.54      0.00
    7   13    2     -4.68      0.00
    7   12    2     -9.64      0.00
    7   11    2     12.49      0.00
    7   10    2     -5.35      0.00
    7    9    2      0.18      0.00
    7    8    2     -0.56      0.00
    7    7    2    -14.62      0.00
    7    6    2     -2.99      0.00
    7    5    2      5.18      0.00
    7    4    2     31.98      0.00
    7    3    2     -9.29      0.00
    7    2    2     17.66      0.00
    7    1    2     15.12      0.00
    8   31    2     13.21      0.00
    8   30    2     -2.01      0.00
    8   29    2    -13.16      0.00
    8   28    2    -13.15      0.00
    8   26    2      8.42      0.00
    8   25    2     14.08      0.00
    8   24    2     10.25      0.00
    8   23    2      3.32      0.00
    8   22    2     -7.19      0.00
    8   21    2      0.23      0.00
    8   20    2     -4.26      0.00
    8   19    2     -9.74      0.00
    8   18    2      4.60      0.00
    8   17    2      5.00      0.00
    8   16    2      0.11      0.00
    8   15    2     -7.13      0.00
    8   14    2     -1.68      0.00
    8   13    2     -7.98      0.00
    8   12    2     -4.35      0.00
    8   11    2     10.44      0.00
    8   10    2     -8.31      0.00
    8    9    2     -6.97      0.00
    8    8    2      7.01      0.00
    8    7    2     13.37      0.00
    8    6    2     -2.41      0.00
    8    5    2    -12.42      0.00
    8    4    2      0.93      0.00
    8    3    2    -32.81      0.00
    8    2    2     11.93      0.00
    8    1    2      0.31      0.00
    8    0    2     -1.73      0.00
    8   27    2      5.39      0.00
    8   32    2      4.77      0.00
    9   31    2      1.35      0.00
    9   30    2     -2.75      0.00
    9   29    2      6.36      0.00
    9   25    2      0.85      0.00
    9   24    2     -3.58      0.00
    9   23    2     10.63      0.00
    9   22    2     -4.34      0.00
    9   21    2      1.68      0.00
    9   20    2      5.50      0.00
    9   19    2     -2.61      0.00
    9   18    2      5.93      0.00
    9   17    2      1.79      0.00
    9   16    2     -5.78      0.00
    9   15    2      4.12      0.00
    9   14    2     10.92      0.00
    9   13    2      6.40      0.00
    9   12    2     -6.02      0.00
    9   11    2      3.31      0.00
    9   10    2      2.25      0.00
    9    9    2     -3.29      0.00
    9    8    2      0.59      0.00
    9    7    2     -2.99      0.00
    9    6    2    -16.85      0.00
    9    5    2      2.44      0.00
    9    4    2     21.44      0.00
    9    3    2     -6.06      0.00
    9    2    2      2.12      0.00
    9    1    2    -12.95      0.00
    9   26    2     -7.96      0.00
    9   27    2      2.49      0.00
    9   28    2      8.91      0.00
   10   31    2      6.61      0.00
   10   30    2     -3.61      0.00
   10   29    2     -8.19      0.00
   10   24    2    -14.64      0.00
   10   23    2      3.79      0.00
   10   22    2     -5.34      0.00
   10   21    2      5.69      0.00
   10   20    2      7.40      0.00
   10   19    2     -8.99      0.00
   10   18    2     -3.11      0.00
   10   17    2      0.78      0.00
   10   16    2     -2.81      0.00
   10   15    2      2.77      0.00
   10   14    2     -5.96      0.00
   10   13    2      1.56      0.00
   10   12    2     -6.17      0.00
   10   11    2      8.08      0.00
   10   10    2      6.04      0.00
   10    9    2     -9.50      0.00
   10    8    2      5.22      0.00
   10    7    2     12.65      0.00
   10    6    2      5.85      0.00
   10    5    2      4.36      0.00
   10    4    2     -0.08      0.00
   10    3    2     -6.66      0.00
   10    2    2      1.40      0.00
   10    1    2      9.59      0.00
   10    0    2     12.09      0.00
   10   25    2      3.91      0.00
   10   26    2     -2.68      0.00
   10   27    2     -4.25      0.00
   10   28    2     -0.35      0.00
   11   30    2      3.04      0.00
   11   29    2     -2.71      0.00
   11   25    2      7.13      0.00
   11   24    2     -2.36      0.00
   11   23    2      9.31      0.00
   11   22    2     -6.74      0.00
   11   21    2     -7.20      0.00
   11   20    2     -1.70      0.00
   11   19    2     -1.40      0.00
   11   18    2      7.32      0.00
   11   17    2      4.67      0.00
   11   16    2     -4.97      0.00
   11   15    2     -1.49      0.00
   11   14    2     -6.90      0.00
   11   13    2      7.56      0.00
   11   12    2     -9.70      0.00
   11   11    2     -0.99      0.00
   11   10    2      0.70      0.00
   11    9    2     -5.29      0.00
   11    8    2      2.92      0.00
   11    7    2     -5.74      0.00
   11    6    2    -10.07      0.00
   11    5    2     -9.71      0.00
   11    4    2      3.31      0.00
   11    3    2      8.39      0.00
   11    2    2     -3.50      0.00
   11    1    2     -0.82      0.00
   11   26    2     -0.09      0.00
   11   27    2     -4.95      0.00
   11   28    2      6.82      0.00
   11   31    2     10.59      0.00
   12   30    2     -3.06      0.00
   12   29    2      1.02      0.00
   12   28    2      8.92      0.00
   12   25    2      1.84      0.00
   12   24    2     -3.94      0.00
   12   23    2      0.78      0.00
   12   22    2      2.95      0.00
   12   21    2      4.07      0.00
   12   20    2      4.94      0.00
   12   19    2     -2.14      0.00
   12   18    2     -5.18      0.00
   12   17    2     -2.41      0.00
   12   16    2      2.23      0.00
   12   15    2      9.06      0.00
   12   14    2      0.99      0.00
   12   13    2      8.24      0.00
   12   12    2     -4.75      0.00
   12   11    2      3.14      0.00
   12   10    2      1.67      0.00
   12    9    2     -2.49      0.00
   12    8    2     -2.02      0.00
   12    7    2      1.20      0.00
   12    6    2      9.93      0.00
   12    5    2      1.45      0.00
   12    4    2      1.66      0.00
   12    3    2     -4.14      0.00
   12    2    2     -8.96      0.00
   12    1    2     -1.79      0.00
   12    0    2      3.04      0.00
   12   26    2      3.97      0.00
   12   27    2      0.69      0.00
   13   29    2     -3.89      0.00
   13   26    2     -4.06      0.00
   13   25    2     -1.67      0.00
   13   24    2      0.41      0.00
   13   23    2     -2.33      0.00
   13   22    2      3.66      0.00
   13   21    2     -3.72      0.00
   13   20    2     -0.12      0.00
   13   19    2      2.30      0.00
   13   18    2      1.62      0.00
   13   17    2      2.02      0.00
   13   16    2     -3.47      0.00
   13   15    2     -4.33      0.00
   13   14    2     -8.39      0.00
   13   13    2      0.96      0.00
   13   12    2      1.41      0.00
   13   11    2      1.64      0.00
   13   10    2      1.21      0.00
   13    9    2      4.97      0.00
   13    8    2     -0.65      0.00
   13    7    2      1.23      0.00
   13    6    2     -0.33      0.00
   13    5    2     -7.70      0.00
   13    4    2     -0.72      0.00
   13    3    2      4.63      0.00
   13    2    2      7.54      0.00
   13    1    2     -2.00      0.00
   13   27    2     -6.50      0.00
   13   28    2     -8.06      0.00
   13   30    2     -2.68      0.00
   14   29    2      9.26      0.00
   14   26    2     -0.03      0.00
   14   25    2      2.58      0.00
   14   24    2      0.89      0.00
   14   23    2     -4.34      0.00
   14   22    2      1.58      0.00
   14   21    2     -6.33      0.00
   14   20    2     -1.05      0.00
   14   19    2      0.67      0.00
   14   18    2     -1.34      0.00
   14   17    2      1.45      0.00
   14   16    2      0.22      0.00
   14   15    2      5.92      0.00
   14   14    2      1.17      0.00
   14   13    2     -0.63      0.00
   14   12    2      0.52      0.00
   14   11    2     -7.30      0.00
   14   10    2     -2.58      0.00
   14    9    2      2.78      0.00
   14    8    2     -4.37      0.00
   14    7    2      0.35      0.00
   14    6    2      2.66      0.00
   14    5    2      4.32      0.00
   14    4    2      0.72      0.00
   14    3    2      0.43      0.00
   14    2    2      0.09      0.00
   14    1    2     -7.14      0.00
   14    0    2      6.41      0.00
   14   27    2      7.02      0.00
   14   28    2      2.05      0.00
   15   28    2     -4.59      0.00
   15   26    2     -1.58      0.00
   15   25    2      3.18      0.00
   15   24    2     -1.21      0.00
   15   23    2      1.27      0.00
   15   22    2      5.77      0.00
   15   21    2      2.43      0.00
   15   20    2      2.71      0.00
   15   19    2     -0.56      0.00
   15   18    2     -3.56      0.00
   15   17    2     -1.13      0.00
   15   16    2     -2.60      0.00
   15   15    2      2.69      0.00
   15   14    2     -2.56      0.00
   15   13    2     -1.61      0.00
   15   12    2      6.65      0.00
   15   11    2     -1.21      0.00
   15   10    2      1.15      0.00
   15    9    2      0.95      0.00
   15    8    2     -3.18      0.00
   15    7    2     -2.35      0.00
   15    6    2     -0.30      0.00
   15    5    2     -0.18      0.00
   15    4    2     -7.69      0.00
   15    3    2      1.16      0.00
   15    2    2      3.48      0.00
   15    1    2     -2.87      0.00
   15   27    2      3.01      0.00
   15   29    2     -0.57      0.00
   16   28    2     -2.32      0.00
   16   27    2     -3.97      0.00
   16   26    2     -3.45      0.00
   16   25    2     -0.15      0.00
   16   24    2     -3.34      0.00
   16   23    2      1.42      0.00
   16   22    2     -3.71      0.00
   16   21    2     -2.31      0.00
   16   20    2     -1.52      0.00
   16   19    2      3.88      0.00
   16   18    2      4.38      0.00
   16   17    2      2.94      0.00
   16   16    2     -1.78      0.00
   16   15    2      0.57      0.00
   16   14    2     -2.45      0.00
   16   13    2     -0.51      0.00
   16   12    2      3.52      0.00
   16   11    2     -2.00      0.00
   16   10    2      0.10      0.00
   16    9    2      3.54      0.00
   16    8    2      4.26      0.00
   16    7    2     -2.04      0.00
   16    6    2      2.19      0.00
   16    5    2      1.91      0.00
   16    4    2     -2.67      0.00
   16    3    2      2.98      0.00
   16    2    2     -0.04      0.00
   16    1    2     -3.69      0.00
   16    0    2     -0.54      0.00
   17   26    2      6.74      0.00
   17   25    2      0.99      0.00
   17   24    2     -1.15      0.00
   17   23    2      2.48      0.00
   17   22    2     -2.06      0.00
   17   21    2      3.14      0.00
   17   20    2     -4.04      0.00
   17   19    2     -1.72      0.00
   17   18    2     -5.65      0.00
   17   17    2     -2.57      0.00
   17   16    2      1.40      0.00
   17   15    2      4.25      0.00
   17   14    2      0.75      0.00
   17   13    2     -1.75      0.00
   17   12    2     -1.69      0.00
   17   11    2     -1.33      0.00
   17   10    2     -3.14      0.00
   17    9    2     -0.18      0.00
   17    8    2      0.42      0.00
   17    7    2     -4.00      0.00
   17    6    2      4.26      0.00
   17    5    2      1.84      0.00
   17    4    2     -0.78      0.00
   17    3    2     -0.24      0.00
   17    2    2      2.13      0.00
   17    1    2      0.95      0.00
   17   27    2      1.17      0.00
   17   28    2      5.05      0.00
   18   26    2      1.02      0.00
   18   25    2     -4.58      0.00
   18   24    2      0.80      0.00
   18   23    2      0.69      0.00
   18   22    2     -0.65      0.00
   18   21    2      3.72      0.00
   18   20    2     -1.60      0.00
   18   19    2      7.08      0.00
   18   18    2      1.43      0.00
   18   17    2      1.39      0.00
   18   16    2     -1.85      0.00
   18   15    2     -3.71      0.00
   18   14    2     -1.75      0.00
   18   13    2      1.24      0.00
   18   12    2      3.10      0.00
   18   11    2      4.11      0.00
   18   10    2     -1.99      0.00
   18    9    2      1.01      0.00
   18    8    2     -0.29      0.00
   18    7    2     -3.08      0.00
   18    6    2     -0.61      0.00
   18    5    2     -2.10      0.00
   18    4    2      0.86      0.00
   18    3    2     -1.54      0.00
   18    2    2      2.98      0.00
   18    1    2     -1.48      0.00
   18    0    2     -1.59      0.00
   18   27    2     -6.42      0.00
   19   26    2      4.12      0.00
   19   25    2     -1.06      0.00
   19   24    2      3.77      0.00
   19   23    2     -2.51      0.00
   19   22    2      0.17      0.00
   19   21    2     -0.32      0.00
   19   20    2     -5.08      0.00
   19   19    2      1.57      0.00
   19   18    2     -4.16      0.00
   19   17    2      1.04      0.00
   19   16    2      1.71      0.00
   19   15    2      2.65      0.00
   19   14    2      1.44      0.00
   19   13    2     -1.54      0.00
   19   12    2     -3.60      0.00
   19   11    2     -1.17      0.00
   19   10    2     -1.94      0.00
   19    9    2      2.87      0.00
   19    8    2      1.17      0.00
   19    7    2      2.35      0.00
   19    6    2     -0.36      0.00
   19    5    2     -0.21      0.00
   19    4    2      0.83      0.00
   19    3    2     -5.60      0.00
   19    2    2      1.52      0.00
   19    1    2     -0.14      0.00
   20   25    2     -2.89      0.00
   20   24    2      1.80      0.00
   20   23    2     -3.79      0.00
   20   22    2      3.40      0.00
   20   21    2      1.23      0.00
   20   20    2     -0.07      0.00
   20   19    2      3.08      0.00
   20   18    2     -1.49      0.00
   20   17    2      1.16      0.00
   20   16    2     -1.29      0.00
   20   15    2     -0.05      0.00
   20   14    2     -0.41      0.00
   20   13    2      1.93      0.00
   20   12    2      1.87      0.00
   20   11    2      3.05      0.00
   20   10    2      0.04      0.00
   20    9    2     -0.98      0.00
   20    8    2     -3.08      0.00
   20    7    2      1.76      0.00
   20    6    2     -1.93      0.00
   20    5    2      2.05      0.00
   20    4    2      4.53      0.00
   20    3    2     -2.12      0.00
   20    2    2      2.82      0.00
   20    1    2     -0.63      0.00
   20    0    2     -3.78      0.00
   21   24    2      2.92      0.00
   21   23    2     -3.38      0.00
   21   22    2      0.65      0.00
   21   21    2     -2.72      0.00
   21   20    2     -1.55      0.00
   21   19    2     -0.42      0.00
   21   18    2     -0.20      0.00
   21   17    2      0.07      0.00
   21   16    2     -2.13      0.00
   21   15    2     -0.81      0.00
   21   14    2     -2.03      0.00
   21   13    2     -0.12      0.00
   21   12    2     -2.97      0.00
   21   11    2     -0.74      0.00
   21   10    2     -0.27      0.00
   21    9    2      0.64      0.00
   21    8    2      0.44      0.00
   21    7    2      3.38      0.00
   21    6    2     -3.52      0.00
   21    5    2     -1.17      0.00
   21    4    2      1.79      0.00
   21    3    2     -3.45      0.00
   21    2    2      3.11      0.00
   21    1    2      2.55      0.00
   22   23    2     -0.46      0.00
   22   22    2      2.84      0.00
   22   21    2      2.47      0.00
   22   20    2      2.79      0.00
   22   19    2     -0.84      0.00
   22   18    2      1.22      0.00
   22   17    2      0.51      0.00
   22   16    2      1.74      0.00
   22   15    2      2.78      0.00
   22   14    2      1.18      0.00
   22   13    2      1.56      0.00
   22   12    2     -1.89      0.00
   22   11    2      1.34      0.00
   22   10    2      0.02      0.00
   22    9    2     -1.83      0.00
   22    8    2     -2.29      0.00
   22    7    2      1.27      0.00
   22    6    2     -1.84      0.00
   22    5    2      0.24      0.00
   22    4    2      1.62      0.00
   22    3    2     -4.82      0.00
   22    2    2     -0.21      0.00
   22    1    2     -1.87      0.00
   22    0    2     -1.52      0.00
   23   22    2     -2.79      0.00
   23   21    2     -2.14      0.00
   23   20    2     -1.06      0.00
   23   19    2     -3.23      0.00
   23   18    2      2.00      0.00
   23   17    2     -0.51      0.00
   23   16    2     -1.49      0.00
   23   15    2     -2.03      0.00
   23   14    2     -0.70      0.00
   23   13    2      1.96      0.00
   23   12    2     -0.26      0.00
   23   11    2      2.51      0.00
   23   10    2      1.04      0.00
   23    9    2      0.44      0.00
   23    8    2      1.64      0.00
   23    7    2      2.16      0.00
   23    6    2     -1.00      0.00
   23    5    2     -0.16      0.00
   23    4    2      2.59      0.00
   23    3    2      0.76      0.00
   23    2    2      3.08      0.00
   23    1    2     -1.65      0.00
   24   21    2      2.26      0.00
   24   20    2      3.55      0.00
   24   19    2     -1.52      0.00
   24   18    2      1.37      0.00
   24   17    2     -1.08      0.00
   24   16    2     -0.50      0.00
   24   15    2      0.71      0.00
   24   14    2     -0.39      0.00
   24   13    2     -0.44      0.00
   24   12    2     -4.05      0.00
   24   11    2     -0.24      0.00
   24   10    2     -0.35      0.00
   24    9    2     -1.58      0.00
   24    8    2     -0.18      0.00
   24    7    2     -0.76      0.00
   24    6    2      0.75      0.00
   24    5    2     -0.05      0.00
   24    4    2     -0.68      0.00
   24    3    2     -1.41      0.00
   24    2    2     -0.40      0.00
   24    1    2     -0.44      0.00
   24    0    2      5.21      0.00
   25   20    2     -0.15      0.00
   25   19    2     -4.29      0.00
   25   18    2      1.76      0.00
   25   17    2      0.93      0.00
   25   16    2      0.12      0.00
   25   15    2      0.99      0.00
   25   14    2     -1.13      0.00
   25   13    2      3.07      0.00
   25   12    2     -0.50      0.00
   25   11    2      1.90      0.00
   25   10    2     -0.55      0.00
   25    9    2     -1.29      0.00
   25    8    2      0.93      0.00
   25    7    2     -1.46      0.00
   25    6    2      1.25      0.00
   25    5    2     -1.98      0.00
   25    4    2     -0.07      0.00
   25    3    2      2.48      0.00
   25    2    2     -0.12      0.00
   25    1    2     -2.74      0.00
   26   18    2      3.19      0.00
   26   17    2     -1.21      0.00
   26   16    2     -1.09      0.00
   26   15    2      1.93      0.00
   26   14    2     -1.73      0.00
   26   13    2      2.44      0.00
   26   12    2     -2.88      0.00
   26   11    2      1.28      0.00
   26   10    2      0.25      0.00
   26    9    2      1.67      0.00
   26    8    2      0.75      0.00
   26    7    2     -2.04      0.00
   26    6    2      2.48      0.00
   26    5    2     -1.90      0.00
   26    4    2      0.03      0.00
   26    3    2      0.30      0.00
   26    2    2     -1.28      0.00
   26    1    2     -0.14      0.00
   26    0    2      3.17      0.00
   27   17    2     -2.09      0.00
   27   16    2     -0.15      0.00
   27   15    2      0.93      0.00
   27   14    2     -3.99      0.00
   27   13    2      2.20      0.00
   27   12    2     -0.95      0.00
   27   11    2      1.82      0.00
   27   10    2     -1.72      0.00
   27    9    2      0.76      0.00
   27    8    2     -0.90      0.00
   27    7    2      0.20      0.00
   27    6    2      3.48      0.00
   27    5    2     -1.49      0.00
   27    4    2      1.00      0.00
   27    3    2      0.58      0.00
   27    2    2      0.32      0.00
   27    1    2     -1.06      0.00
   28   14    2     -1.57      0.00
   28   13    2      1.95      0.00
   28   12    2     -2.18      0.00
   28   11    2     -1.36      0.00
   28   10    2     -2.08      0.00
   28    9    2      2.11      0.00
   28    8    2     -1.62      0.00
   28    7    2     -0.80      0.00
   28    6    2     -0.53      0.00
   28    5    2     -2.05      0.00
   28    4    2      0.94      0.00
   28    3    2     -0.11      0.00
   28    2    2      0.86      0.00
   28    1    2     -0.55      0.00
   28    0    2      1.10      0.00
   29   12    2      1.69      0.00
   29   11    2      2.14      0.00
   29    8    2     -1.94      0.00
   29    7    2      0.85      0.00
   29    6    2      0.63      0.00
   29    5    2      0.40      0.00
   29    4    2      0.28      0.00
   29    3    2     -1.70      0.00
   29    2    2      0.61      0.00
   29    1    2     -0.53      0.00
   29    9    2      1.21      0.00
   29   10    2      0.58      0.00
   30   10    2     -1.01      0.00
   30    9    2      1.44      0.00
   30    8    2      0.70      0.00
   30    7    2      1.41      0.00
   30    6    2     -1.02      0.00
   30    5    2     -0.39      0.00
   30    4    2      0.25      0.00
   30    3    2     -1.29      0.00
   30    2    2      1.33      0.00
   30    1    2     -0.91      0.00
   30    0    2     -0.49      0.00
   31    6    2     -0.18      0.00
   31    5    2      1.83      0.00
   31    4    2      2.17      0.00
   31    3    2     -0.99      0.00
   31    2    2      2.19      0.00
   31    1    2     -0.70      0.00
    0    0    3     -7.42      0.00
    0    2    3     -9.67      0.00
    0    4    3     14.06      0.00
    0    6    3      0.79      0.00
    0    8    3     -9.58      0.00
    0   10    3      8.92      0.00
    0   12    3    -17.53      0.00
    0   14    3      2.63      0.00
    0   16    3     -1.12      0.00
    0   18    3    -12.21      0.00
    0   20    3     19.13      0.00
    0   22    3      2.98      0.00
    0   24    3     35.93      0.00
    0   28    3    -15.94      0.00
    0   30    3     28.13      0.00
    0   32    3    -31.73      0.00
    1   32    3      0.88      0.00
    1   31    3    -26.25      0.00
    1   30    3    -31.94      0.00
    1   29    3     -2.28      0.00
    1   24    3     14.03      0.00
    1   23    3     -5.47      0.00
    1   22    3     29.62      0.00
    1   21    3     -7.88      0.00
    1   20    3      8.22      0.00
    1   19    3     -5.73      0.00
    1   18    3      0.16      0.00
    1   17    3     14.41      0.00
    1   16    3      3.90      0.00
    1   15    3     -8.14      0.00
    1   14    3     -0.19      0.00
    1   13    3     12.33      0.00
    1   12    3     10.29      0.00
    1   11    3      2.52      0.00
    1   10    3      5.61      0.00
    1    9    3     -6.15      0.00
    1    8    3      0.64      0.00
    1    7    3      9.88      0.00
    1    6    3      0.64      0.00
    1    5    3    -14.63      0.00
    1    4    3     -8.38      0.00
    1    3    3     -2.48      0.00
    1    2    3      8.33      0.00
    1    1    3      6.93      0.00
    2   32    3     22.98      0.00
    2   31    3     13.14      0.00
    2   30    3     40.49      0.00
    2   29    3     58.47      0.00
    2   28    3    -50.63      0.00
    2   27    3     47.56      0.00
    2   24    3     12.23      0.00
    2   23    3    -40.41      0.00
    2   22    3    -11.36      0.00
    2   21    3    -29.80      0.00
    2   20    3      7.06      0.00
    2   19    3      2.46      0.00
    2   18    3     -5.79      0.00
    2   17    3     -3.79      0.00
    2   16    3     -3.20      0.00
    2   15    3      1.84      0.00
    2   14    3      0.90      0.00
    2   13    3     -1.87      0.00
    2   12    3     -9.00      0.00
    2   11    3    -14.47      0.00
    2   10    3      9.25      0.00
    2    9    3      0.44      0.00
    2    8    3      0.63      0.00
    2    7    3     -4.46      0.00
    2    6    3      3.96      0.00
    2    5    3     10.97      0.00
    2    4    3     13.16      0.00
    2    3    3      5.97      0.00
    2    2    3     -0.76      0.00
    2    1    3    -13.68      0.00
    2    0    3     -2.93      0.00
    3   31    3    -74.09      0.00
    3   30    3    -23.12      0.00
    3   29    3     22.01      0.00
    3   28    3    -40.45      0.00
    3   27    3     83.48      0.00
    3   26    3    -16.36      0.00
    3   25    3      6.04      0.00
    3   24    3     19.39      0.00
    3   23    3      2.67      0.00
    3   22    3     35.67      0.00
    3   21    3     11.97      0.00
    3   20    3      3.33      0.00
    3   19    3     -4.31      0.00
    3   18    3     -5.38      0.00
    3   17    3      3.45      0.00
    3   16    3      1.15      0.00
    3   15    3      0.22      0.00
    3   14    3    -11.65      0.00
    3   13    3      0.87      0.00
    3   12    3      5.59      0.00
    3   11    3     -1.41      0.00
    3   10    3      3.78      0.00
    3    9    3     -9.19      0.00
    3    8    3      0.82      0.00
    3    7    3     -6.72      0.00
    3    6    3      0.20      0.00
    3    5    3     -9.24      0.00
    3    4    3    -22.07      0.00
    3    3    3     -7.71      0.00
    3    2    3      5.95      0.00
    3    1    3      5.07      0.00
    4   31    3    -16.56      0.00
    4   30    3     37.13      0.00
    4   29    3      5.81      0.00
    4   28    3    -89.28      0.00
    4   27    3      2.41      0.00
    4   26    3    -51.71      0.00
    4   25    3     -1.29      0.00
    4   24    3     21.15      0.00
    4   23    3    -14.56      0.00
    4   22    3     -6.49      0.00
    4   21    3     -7.21      0.00
    4   20    3     -6.50      0.00
    4   19    3     10.55      0.00
    4   18    3      6.99      0.00
    4   17    3      1.02      0.00
    4   16    3     -2.33      0.00
    4   15    3     10.20      0.00
    4   14    3      2.33      0.00
    4   13    3     12.80      0.00
    4   12    3      3.89      0.00
    4   11    3     -0.28      0.00
    4   10    3      0.21      0.00
    4    9    3      2.38      0.00
    4    8    3     13.29      0.00
    4    7    3     -7.31      0.00
    4    6    3      9.08      0.00
    4    5    3     11.49      0.00
    4    4    3      6.54      0.00
    4    3    3     13.24      0.00
    4    2    3     -1.75      0.00
    4    1    3     -6.26      0.00
    4    0    3    -19.28      0.00
    5   31    3    -59.02      0.00
    5   30    3     15.31      0.00
    5   29    3     36.58      0.00
    5   28    3     18.62      0.00
    5   27    3     81.06      0.00
    5   26    3      6.15      0.00
    5   25    3    -16.60      0.00
    5   24    3     -6.59      0.00
    5   23    3    -31.70      0.00
    5   22    3     -2.07      0.00
    5   21    3      9.75      0.00
    5   20    3     -7.10      0.00
    5   19    3     -2.44      0.00
    5   18    3     -4.15      0.00
    5   17    3     -5.96      0.00
    5   16    3     -2.93      0.00
    5   15    3      2.19      0.00
    5   14    3    -13.79      0.00
    5   13    3     -9.77      0.00
    5   12    3    -10.79      0.00
    5   11    3      3.64      0.00
    5   10    3     -5.04      0.00
    5    9    3     -0.84      0.00
    5    8    3      5.14      0.00
    5    7    3    -15.58      0.00
    5    6    3      6.36      0.00
    5    5    3     -1.93      0.00
    5    4    3     -8.16      0.00
    5    3    3     -4.39      0.00
    5    2    3     -1.21      0.00
    5    1    3     21.63      0.00
    6   31    3     -7.21      0.00
    6   30    3     12.60      0.00
    6   29    3    -17.13      0.00
    6   28    3    -62.79      0.00
    6   27    3    -14.18      0.00
    6   26    3    -16.35      0.00
    6   25    3     10.53      0.00
    6   24    3     50.80      0.00
    6   23    3     12.73      0.00
    6   22    3     14.37      0.00
    6   21    3      4.97      0.00
    6   20    3     -8.29      0.00
    6   19    3     -0.18      0.00
    6   18    3      7.28      0.00
    6   17    3     -0.63      0.00
    6   16    3     -0.51      0.00
    6   15    3      3.14      0.00
    6   14    3      4.85      0.00
    6   13    3      8.19      0.00
    6   12    3      5.57      0.00
    6   11    3      9.91      0.00
    6   10    3    -12.41      0.00
    6    9    3     -1.93      0.00
    6    8    3      8.18      0.00
    6    7    3     -8.88      0.00
    6    6    3      4.47      0.00
    6    5    3     -8.47      0.00
    6    4    3      1.74      0.00
    6    3    3     -2.88      0.00
    6    2    3     -3.36      0.00
    6    1    3      2.49      0.00
    6    0    3    -28.37      0.00
    7   31    3    -19.58      0.00
    7   30    3     -1.70      0.00
    7   29    3     19.63      0.00
    7   28    3      8.10      0.00
    7   27    3     35.20      0.00
    7   26    3     -8.37      0.00
    7   25    3    -24.90      0.00
    7   24    3    -14.55      0.00
    7   23    3    -30.79      0.00
    7   22    3     -5.35      0.00
    7   21    3      3.81      0.00
    7   20    3      4.17      0.00
    7   19    3      1.60      0.00
    7   18    3      5.62      0.00
    7   17    3     -2.92      0.00
    7   16    3      0.40      0.00
    7   15    3      1.87      0.00
    7   14    3      4.30      0.00
    7   13    3     -7.49      0.00
    7   12    3     -5.96      0.00
    7   11    3      5.89      0.00
    7   10    3     -1.85      0.00
    7    9    3      5.55      0.00
    7    8    3      6.71      0.00
    7    7    3     -5.76      0.00
    7    6    3      6.51      0.00
    7    5    3      3.08      0.00
    7    4    3     15.50      0.00
    7    3    3     -7.57      0.00
    7    2    3     -2.60      0.00
    7    1    3     10.33      0.00
    8   30    3      6.09      0.00
    8   29    3      2.01      0.00
    8   28    3    -21.12      0.00
    8   27    3      7.52      0.00
    8   26    3     -7.79      0.00
    8   25    3     12.40      0.00
    8   24    3     13.81      0.00
    8   22    3      1.44      0.00
    8   21    3     -1.35      0.00
    8   20    3     -4.27      0.00
    8   19    3     -8.05      0.00
    8   18    3      0.49      0.00
    8   17    3     -0.69      0.00
    8   16    3     -2.30      0.00
    8   15    3     -4.71      0.00
    8   14    3     -0.54      0.00
    8   13    3     -5.97      0.00
    8   12    3      1.85      0.00
    8   11    3      4.28      0.00
    8   10    3     -3.37      0.00
    8    9    3     -7.07      0.00
    8    8    3      2.56      0.00
    8    7    3      1.24      0.00
    8    6    3     -1.67      0.00
    8    5    3     -9.42      0.00
    8    4    3      2.74      0.00
    8    3    3     -7.05      0.00
    8    2    3      6.81      0.00
    8    1    3     10.18      0.00
    8    0    3     -3.21      0.00
    8   23    3      3.38      0.00
    9   30    3     -1.27      0.00
    9   29    3      0.90      0.00
    9   28    3     -3.54      0.00
    9   27    3     10.69      0.00
    9   26    3     -8.03      0.00
    9   25    3      7.60      0.00
    9   24    3      0.00      0.00
    9   22    3     -1.48      0.00
    9   21    3      2.81      0.00
    9   20    3      0.30      0.00
    9   19    3      0.00      0.00
    9   18    3      2.57      0.00
    9   17    3      2.05      0.00
    9   16    3     -3.11      0.00
    9   15    3      3.67      0.00
    9   14    3      7.18      0.00
    9   13    3      3.27      0.00
    9   12    3     -1.07      0.00
    9   11    3     -3.56      0.00
    9   10    3      2.43      0.00
    9    9    3     -5.80      0.00
    9    8    3      2.86      0.00
    9    7    3     -1.54      0.00
    9    6    3     -5.77      0.00
    9    5    3     -0.61      0.00
    9    4    3      9.24      0.00
    9    3    3     -4.79      0.00
    9    2    3    -10.68      0.00
    9    1    3     -3.79      0.00
    9   23    3      8.29      0.00
   10   30    3     -1.53      0.00
   10   29    3     -2.32      0.00
   10   27    3      1.81      0.00
   10   26    3     -3.75      0.00
   10   25    3     -3.98      0.00
   10   24    3    -14.16      0.00
   10   22    3     -6.95      0.00
   10   21    3      8.80      0.00
   10   20    3      3.58      0.00
   10   19    3      1.09      0.00
   10   18    3     -2.14      0.00
   10   17    3      3.58      0.00
   10   16    3     -1.79      0.00
   10   15    3      2.69      0.00
   10   14    3     -6.07      0.00
   10   13    3     -1.11      0.00
   10   12    3     -2.19      0.00
   10   11    3      3.72      0.00
   10   10    3     10.75      0.00
   10    9    3     -5.35      0.00
   10    8    3      4.23      0.00
   10    7    3      5.10      0.00
   10    6    3      3.29      0.00
   10    5    3      0.20      0.00
   10    4    3      2.41      0.00
   10    3    3      1.21      0.00
   10    2    3     -1.20      0.00
   10    1    3     10.93      0.00
   10    0    3      2.92      0.00
   10   23    3     -0.95      0.00
   10   28    3      1.54      0.00
   11   29    3      0.40      0.00
   11   28    3     -2.56      0.00
   11   26    3      6.17      0.00
   11   25    3      1.11      0.00
   11   24    3      6.15      0.00
   11   23    3      7.91      0.00
   11   22    3     -8.18      0.00
   11   21    3     -4.08      0.00
   11   20    3     -7.54      0.00
   11   19    3     -0.42      0.00
   11   18    3      0.07      0.00
   11   17    3      2.79      0.00
   11   16    3     -6.06      0.00
   11   15    3      0.27      0.00
   11   14    3     -3.14      0.00
   11   13    3      7.67      0.00
   11   12    3     -3.70      0.00
   11   11    3     -4.58      0.00
   11   10    3     -0.58      0.00
   11    9    3     -6.45      0.00
   11    8    3      2.04      0.00
   11    7    3     -1.00      0.00
   11    6    3     -3.08      0.00
   11    5    3     -7.12      0.00
   11    4    3      1.95      0.00
   11    3    3      4.81      0.00
   11    2    3     -6.94      0.00
   11    1    3      1.75      0.00
   11   27    3    -10.17      0.00
   12   29    3     11.07      0.00
   12   28    3      8.59      0.00
   12   24    3      0.24      0.00
   12   23    3      1.59      0.00
   12   22    3      2.21      0.00
   12   21    3      6.98      0.00
   12   20    3      2.97      0.00
   12   19    3     -1.01      0.00
   12   18    3     -4.78      0.00
   12   17    3      0.50      0.00
   12   16    3      2.00      0.00
   12   15    3      6.01      0.00
   12   14    3     -1.40      0.00
   12   13    3      1.96      0.00
   12   12    3     -3.78      0.00
   12   11    3      1.83      0.00
   12   10    3      4.16      0.00
   12    9    3     -0.35      0.00
   12    8    3     -2.86      0.00
   12    7    3     -1.33      0.00
   12    6    3      5.41      0.00
   12    5    3     -0.40      0.00
   12    4    3      1.81      0.00
   12    3    3      1.18      0.00
   12    2    3     -6.61      0.00
   12    1    3      2.50      0.00
   12    0    3      2.32      0.00
   12   25    3     -8.75      0.00
   12   26    3     13.26      0.00
   12   27    3      0.76      0.00
   13   28    3    -13.68      0.00
   13   24    3      2.47      0.00
   13   23    3     -0.65      0.00
   13   22    3     -2.43      0.00
   13   21    3     -2.52      0.00
   13   20    3      1.91      0.00
   13   19    3      3.72      0.00
   13   18    3      3.56      0.00
   13   17    3      1.52      0.00
   13   16    3     -2.69      0.00
   13   15    3     -4.42      0.00
   13   14    3     -2.72      0.00
   13   13    3      1.78      0.00
   13   12    3      2.58      0.00
   13   11    3      0.14      0.00
   13   10    3     -0.98      0.00
   13    9    3      2.62      0.00
   13    8    3      0.23      0.00
   13    7    3      1.18      0.00
   13    6    3      1.90      0.00
   13    5    3     -5.84      0.00
   13    4    3     -2.88      0.00
   13    3    3      4.97      0.00
   13    2    3     -0.90      0.00
   13    1    3     -2.22      0.00
   13   25    3     -5.56      0.00
   13   26    3      5.21      0.00
   13   27    3    -11.65      0.00
   14   28    3      3.25      0.00
   14   24    3     -3.15      0.00
   14   23    3      1.82      0.00
   14   22    3     -0.86      0.00
   14   21    3     -2.27      0.00
   14   20    3     -1.92      0.00
   14   19    3     -3.14      0.00
   14   18    3     -2.44      0.00
   14   17    3     -0.46      0.00
   14   16    3      2.60      0.00
   14   15    3      2.34      0.00
   14   14    3      2.46      0.00
   14   13    3     -2.72      0.00
   14   12    3      0.22      0.00
   14   11    3     -3.45      0.00
   14   10    3     -0.76      0.00
   14    9    3      2.91      0.00
   14    8    3     -1.84      0.00
   14    7    3     -1.78      0.00
   14    6    3      3.58      0.00
   14    5    3      2.34      0.00
   14    4    3     -1.57      0.00
   14    3    3      4.89      0.00
   14    2    3     -1.79      0.00
   14    1    3     -1.21      0.00
   14    0    3      7.64      0.00
   14   25    3     -3.55      0.00
   14   26    3      2.14      0.00
   14   27    3      0.49      0.00
   15   25    3      6.60      0.00
   15   24    3     -2.57      0.00
   15   23    3      5.02      0.00
   15   22    3     -1.23      0.00
   15   21    3      2.54      0.00
   15   20    3      0.58      0.00
   15   19    3      0.45      0.00
   15   18    3     -0.95      0.00
   15   17    3     -1.48      0.00
   15   16    3     -0.28      0.00
   15   15    3     -0.57      0.00
   15   14    3      0.40      0.00
   15   13    3     -1.69      0.00
   15   12    3      4.37      0.00
   15   11    3     -0.99      0.00
   15   10    3     -1.06      0.00
   15    9    3     -0.51      0.00
   15    8    3     -1.78      0.00
   15    7    3     -3.51      0.00
   15    6    3      1.47      0.00
   15    5    3      0.53      0.00
   15    4    3     -6.01      0.00
   15    3    3      4.52      0.00
   15    2    3     -1.64      0.00
   15    1    3     -4.34      0.00
   15   26    3      6.00      0.00
   15   27    3      0.68      0.00
   16   25    3     -0.91      0.00
   16   24    3     -5.38      0.00
   16   23    3      4.32      0.00
   16   22    3     -3.77      0.00
   16   21    3      2.37      0.00
   16   20    3     -0.92      0.00
   16   19    3      3.93      0.00
   16   18    3      3.44      0.00
   16   17    3      0.35      0.00
   16   16    3     -0.99      0.00
   16   15    3     -1.48      0.00
   16   14    3     -1.25      0.00
   16   13    3     -1.57      0.00
   16   12    3      2.28      0.00
   16   11    3     -0.59      0.00
   16   10    3      0.53      0.00
   16    9    3      3.24      0.00
   16    8    3      4.09      0.00
   16    7    3     -1.33      0.00
   16    6    3      1.35      0.00
   16    5    3      0.81      0.00
   16    4    3     -4.92      0.00
   16    3    3      3.76      0.00
   16    2    3     -0.29      0.00
   16    1    3     -0.82      0.00
   16    0    3      4.53      0.00
   16   26    3     -4.34      0.00
   17   25    3      1.76      0.00
   17   24    3     -2.24      0.00
   17   23    3      2.09      0.00
   17   22    3     -2.58      0.00
   17   21    3      3.03      0.00
   17   20    3     -4.50      0.00
   17   19    3     -2.41      0.00
   17   18    3     -2.29      0.00
   17   17    3     -1.40      0.00
   17   16    3      2.91      0.00
   17   15    3      4.13      0.00
   17   14    3      1.93      0.00
   17   13    3     -1.26      0.00
   17   12    3     -0.19      0.00
   17   11    3     -1.03      0.00
   17   10    3     -2.54      0.00
   17    9    3     -1.12      0.00
   17    8    3     -1.17      0.00
   17    7    3     -2.75      0.00
   17    6    3      1.38      0.00
   17    5    3      3.38      0.00
   17    4    3     -1.23      0.00
   17    3    3      1.31      0.00
   17    2    3     -0.65      0.00
   17    1    3     -2.06      0.00
   17   26    3      4.76      0.00
   18   25    3     -0.71      0.00
   18   24    3      0.17      0.00
   18   23    3     -0.86      0.00
   18   22    3     -2.66      0.00
   18   21    3      1.67      0.00
   18   20    3     -1.38      0.00
   18   19    3      2.77      0.00
   18   18    3      2.21      0.00
   18   17    3     -1.64      0.00
   18   16    3     -2.81      0.00
   18   15    3     -3.10      0.00
   18   14    3     -0.80      0.00
   18   13    3     -0.64      0.00
   18   12    3      3.01      0.00
   18   11    3      2.11      0.00
   18   10    3     -0.42      0.00
   18    9    3      1.76      0.00
   18    8    3      0.95      0.00
   18    7    3      0.64      0.00
   18    6    3     -1.64      0.00
   18    5    3      0.39      0.00
   18    4    3     -1.07      0.00
   18    3    3      0.45      0.00
   18    2    3      2.28      0.00
   18    1    3      0.39      0.00
   18    0    3      0.42      0.00
   19   24    3      3.38      0.00
   19   23    3      1.21      0.00
   19   22    3      2.50      0.00
   19   21    3      2.54      0.00
   19   20    3     -1.67      0.00
   19   19    3     -0.36      0.00
   19   18    3      0.09      0.00
   19   17    3      0.84      0.00
   19   16    3      1.29      0.00
   19   15    3      1.20      0.00
   19   14    3      1.24      0.00
   19   13    3     -3.84      0.00
   19   12    3     -1.18      0.00
   19   11    3     -1.93      0.00
   19   10    3     -1.61      0.00
   19    9    3      0.20      0.00
   19    8    3     -0.73      0.00
   19    7    3      1.22      0.00
   19    6    3     -2.39      0.00
   19    5    3      1.57      0.00
   19    4    3     -0.64      0.00
   19    3    3     -2.59      0.00
   19    2    3     -0.89      0.00
   19    1    3     -0.04      0.00
   20   23    3     -4.74      0.00
   20   22    3     -0.67      0.00
   20   21    3      0.77      0.00
   20   20    3      0.20      0.00
   20   19    3      1.28      0.00
   20   18    3     -0.12      0.00
   20   17    3      0.25      0.00
   20   16    3     -1.01      0.00
   20   15    3      0.92      0.00
   20   14    3      3.27      0.00
   20   13    3      0.57      0.00
   20   12    3      3.67      0.00
   20   11    3      1.99      0.00
   20   10    3      1.23      0.00
   20    9    3     -0.56      0.00
   20    8    3     -0.66      0.00
   20    7    3      1.37      0.00
   20    6    3     -2.25      0.00
   20    5    3      2.01      0.00
   20    4    3      0.64      0.00
   20    3    3      0.30      0.00
   20    2    3      0.76      0.00
   20    1    3      1.09      0.00
   20    0    3     -1.79      0.00
   21   23    3     -0.96      0.00
   21   22    3      0.25      0.00
   21   21    3     -2.11      0.00
   21   20    3     -3.62      0.00
   21   19    3     -1.49      0.00
   21   18    3     -0.36      0.00
   21   17    3      1.22      0.00
   21   16    3     -1.60      0.00
   21   15    3     -1.74      0.00
   21   14    3     -1.37      0.00
   21   13    3     -3.19      0.00
   21   12    3     -1.96      0.00
   21   11    3     -1.54      0.00
   21   10    3     -0.31      0.00
   21    9    3     -0.61      0.00
   21    8    3      1.97      0.00
   21    7    3      2.21      0.00
   21    6    3     -1.16      0.00
   21    5    3      1.37      0.00
   21    4    3      0.09      0.00
   21    3    3      0.52      0.00
   21    2    3     -0.79      0.00
   21    1    3      0.52      0.00
   22   22    3      3.35      0.00
   22   21    3      4.04      0.00
   22   20    3      3.02      0.00
   22   19    3      1.79      0.00
   22   18    3     -0.08      0.00
   22   17    3     -0.76      0.00
   22   16    3     -0.61      0.00
   22   15    3      0.95      0.00
   22   14    3      2.07      0.00
   22   13    3      0.95      0.00
   22   12    3      0.01      0.00
   22   11    3      1.71      0.00
   22   10    3      0.65      0.00
   22    9    3     -2.11      0.00
   22    8    3     -1.49      0.00
   22    7    3     -1.76      0.00
   22    6    3     -1.91      0.00
   22    5    3     -0.19      0.00
   22    4    3     -1.65      0.00
   22    3    3     -0.44      0.00
   22    2    3     -0.94      0.00
   22    1    3      0.75      0.00
   22    0    3      2.91      0.00
   23   21    3     -1.67      0.00
   23   20    3     -2.68      0.00
   23   19    3     -1.60      0.00
   23   18    3      1.75      0.00
   23   17    3      1.61      0.00
   23   16    3      1.44      0.00
   23   15    3     -0.47      0.00
   23   14    3      0.59      0.00
   23   13    3      0.57      0.00
   23   12    3     -0.67      0.00
   23   11    3      0.81      0.00
   23   10    3     -0.50      0.00
   23    9    3      0.46      0.00
   23    8    3      2.16      0.00
   23    7    3      2.01      0.00
   23    6    3      0.70      0.00
   23    5    3      0.34      0.00
   23    4    3      0.45      0.00
   23    3    3      2.41      0.00
   23    2    3      0.03      0.00
   23    1    3     -3.55      0.00
   24   19    3     -0.83      0.00
   24   18    3     -0.09      0.00
   24   17    3     -2.38      0.00
   24   16    3     -0.89      0.00
   24   15    3     -1.29      0.00
   24   14    3      0.28      0.00
   24   13    3     -1.29      0.00
   24   12    3     -1.75      0.00
   24   11    3      0.97      0.00
   24   10    3      0.15      0.00
   24    9    3      0.86      0.00
   24    8    3     -1.54      0.00
   24    7    3     -0.44      0.00
   24    6    3      0.57      0.00
   24    5    3      0.43      0.00
   24    4    3     -0.59      0.00
   24    3    3     -0.50      0.00
   24    2    3     -0.08      0.00
   24    1    3     -0.62      0.00
   24    0    3      6.58      0.00
   25   18    3      1.16      0.00
   25   17    3      0.28      0.00
   25   16    3      0.45      0.00
   25   15    3     -1.23      0.00
   25   14    3      0.80      0.00
   25   13    3      0.66      0.00
   25   12    3      0.82      0.00
   25   11    3      0.67      0.00
   25   10    3     -2.50      0.00
   25    9    3      0.13      0.00
   25    8    3     -1.77      0.00
   25    7    3      0.50      0.00
   25    6    3     -0.65      0.00
   25    5    3     -2.06      0.00
   25    4    3     -0.65      0.00
   25    3    3      1.53      0.00
   25    2    3      1.93      0.00
   25    1    3     -3.31      0.00
   26   16    3      1.84      0.00
   26   15    3      1.21      0.00
   26   14    3      1.97      0.00
   26   13    3     -0.53      0.00
   26   12    3     -1.65      0.00
   26   11    3      0.56      0.00
   26   10    3     -0.23      0.00
   26    9    3      3.31      0.00
   26    8    3     -0.85      0.00
   26    7    3      0.88      0.00
   26    6    3      1.27      0.00
   26    5    3      1.04      0.00
   26    4    3      0.66      0.00
   26    3    3     -0.64      0.00
   26    2    3     -0.83      0.00
   26    1    3     -2.25      0.00
   26    0    3      2.61      0.00
   27   14    3     -1.72      0.00
   27   13    3      0.19      0.00
   27   12    3      0.58      0.00
   27   11    3      2.52      0.00
   27   10    3     -1.37      0.00
   27    9    3      0.67      0.00
   27    8    3     -1.50      0.00
   27    7    3      0.35      0.00
   27    6    3      0.15      0.00
   27    5    3     -1.56      0.00
   27    4    3     -1.09      0.00
   27    3    3      0.61      0.00
   27    2    3      1.70      0.00
   27    1    3      0.54      0.00
   28   12    3     -3.05      0.00
   28   11    3     -0.85      0.00
   28   10    3     -2.31      0.00
   28    9    3      0.73      0.00
   28    8    3     -0.30      0.00
   28    7    3     -0.53      0.00
   28    6    3      0.66      0.00
   28    5    3      0.12      0.00
   28    4    3      1.26      0.00
   28    3    3      0.39      0.00
   28    2    3     -1.00      0.00
   28    1    3     -0.85      0.00
   28    0    3     -1.79      0.00
   29    9    3      0.92      0.00
   29    8    3     -0.29      0.00
   29    7    3     -0.29      0.00
   29    6    3      0.89      0.00
   29    5    3     -1.28      0.00
   29    4    3      0.23      0.00
   29    3    3     -1.21      0.00
   29    2    3      0.20      0.00
   29    1    3      1.58      0.00
   29   10    3      0.71      0.00
   30    6    3     -0.08      0.00
   30    5    3     -1.54      0.00
   30    4    3      1.65      0.00
   30    3    3     -1.10      0.00
   30    2    3      1.12      0.00
   30    1    3      0.03      0.00
   30    0    3     -0.67      0.00
    0    0    4     43.16      0.00
    0    2    4      1.71      0.00
    0    4    4    -18.32      0.00
    0    6    4     -3.48      0.00
    0    8    4     -1.18      0.00
    0   10    4      8.43      0.00
    0   12    4     -2.77      0.00
    0   14    4     -3.72      0.00
    0   16    4      0.78      0.00
    0   18    4      0.39      0.00
    0   20    4     15.38      0.00
    0   22    4      3.08      0.00
    0   24    4    -14.30      0.00
    0   26    4     -6.16      0.00
    0   28    4     -7.33      0.00
    0   30    4     -6.37      0.00
    1   30    4      0.85      0.00
    1   29    4      5.12      0.00
    1   28    4     -8.59      0.00
    1   26    4     -6.27      0.00
    1   25    4      7.36      0.00
    1   24    4     -2.33      0.00
    1   23    4      9.53      0.00
    1   22    4     -0.66      0.00
    1   21    4     -9.31      0.00
    1   20    4     -1.12      0.00
    1   19    4     -5.88      0.00
    1   18    4      2.18      0.00
    1   17    4      1.14      0.00
    1   16    4      1.03      0.00
    1   15    4     -0.90      0.00
    1   14    4     -0.59      0.00
    1   13    4      5.43      0.00
    1   12    4      3.01      0.00
    1   11    4     -3.80      0.00
    1   10    4     -1.50      0.00
    1    9    4     -3.67      0.00
    1    8    4      1.06      0.00
    1    7    4      0.69      0.00
    1    6    4      3.54      0.00
    1    5    4      8.13      0.00
    1    4    4     -9.53      0.00
    1    3    4     17.76      0.00
    1    2    4     -7.33      0.00
    1    1    4    -28.32      0.00
    2   30    4      3.15      0.00
    2   29    4     15.97      0.00
    2   28    4      2.69      0.00
    2   27    4     12.27      0.00
    2   26    4      4.05      0.00
    2   25    4      3.29      0.00
    2   24    4     -7.25      0.00
    2   23    4     -2.33      0.00
    2   22    4     -7.22      0.00
    2   21    4     -2.13      0.00
    2   20    4      1.99      0.00
    2   19    4     -1.31      0.00
    2   18    4      0.07      0.00
    2   17    4     -1.96      0.00
    2   16    4      3.02      0.00
    2   15    4      3.00      0.00
    2   14    4     -0.34      0.00
    2   13    4     -2.10      0.00
    2   12    4     -1.63      0.00
    2   11    4     -3.09      0.00
    2   10    4      3.36      0.00
    2    9    4      3.49      0.00
    2    8    4      4.13      0.00
    2    7    4     -7.77      0.00
    2    6    4      4.37      0.00
    2    5    4      5.78      0.00
    2    4    4    -17.22      0.00
    2    3    4     20.51      0.00
    2    2    4     -2.74      0.00
    2    1    4      6.15      0.00
    2    0    4     32.19      0.00
    3   29    4     -8.54      0.00
    3   28    4    -19.80      0.00
    3   27    4     -2.88      0.00
    3   26    4     -2.14      0.00
    3   25    4     -2.55      0.00
    3   24    4      5.83      0.00
    3   23    4      9.42      0.00
    3   22    4      9.89      0.00
    3   21    4     10.46      0.00
    3   20    4      3.97      0.00
    3   19    4      1.80      0.00
    3   18    4     -0.51      0.00
    3   17    4     -4.65      0.00
    3   16    4     -4.70      0.00
    3   15    4     -4.74      0.00
    3   14    4     -4.54      0.00
    3   13    4     -0.04      0.00
    3   12    4      6.06      0.00
    3   11    4      0.67      0.00
    3   10    4     -0.89      0.00
    3    9    4     -3.82      0.00
    3    8    4      2.80      0.00
    3    7    4    -14.13      0.00
    3    6    4      7.13      0.00
    3    5    4      1.92      0.00
    3    4    4    -19.39      0.00
    3    3    4     19.62      0.00
    3    2    4    -15.95      0.00
    3    1    4     -9.78      0.00
    4   29    4     27.83      0.00
    4   28    4     -4.24      0.00
    4   27    4      2.44      0.00
    4   26    4     -6.96      0.00
    4   25    4     -8.51      0.00
    4   24    4      0.31      0.00
    4   23    4    -13.50      0.00
    4   22    4    -10.31      0.00
    4   21    4    -11.63      0.00
    4   20    4     -8.72      0.00
    4   19    4      0.81      0.00
    4   18    4      4.37      0.00
    4   17    4      6.69      0.00
    4   16    4      7.70      0.00
    4   15    4      9.96      0.00
    4   14    4      3.15      0.00
    4   13    4      0.56      0.00
    4   12    4     -0.11      0.00
    4   11    4     -5.51      0.00
    4   10    4     -1.53      0.00
    4    9    4     -0.11      0.00
    4    8    4     13.31      0.00
    4    7    4    -10.23      0.00
    4    6    4     14.01      0.00
    4    5    4      2.47      0.00
    4    4    4    -13.71      0.00
    4    3    4     17.81      0.00
    4    2    4    -11.36      0.00
    4    1    4      5.05      0.00
    4    0    4      6.21      0.00
    5   29    4     -2.32      0.00
    5   28    4     -7.83      0.00
    5   27    4     29.90      0.00
    5   26    4     10.80      0.00
    5   25    4      7.95      0.00
    5   24    4      9.85      0.00
    5   23    4     -5.12      0.00
    5   22    4     13.33      0.00
    5   21    4      6.60      0.00
    5   20    4      3.76      0.00
    5   19    4      0.94      0.00
    5   18    4     -6.73      0.00
    5   17    4     -8.33      0.00
    5   16    4    -10.31      0.00
    5   15    4     -4.05      0.00
    5   14    4     -8.96      0.00
    5   13    4     -1.68      0.00
    5   12    4      2.89      0.00
    5   11    4      2.06      0.00
    5   10    4      4.61      0.00
    5    9    4     -3.32      0.00
    5    8    4      6.66      0.00
    5    7    4    -16.99      0.00
    5    6    4      8.74      0.00
    5    5    4     -0.99      0.00
    5    4    4     -6.07      0.00
    5    3    4     13.26      0.00
    5    2    4     -7.57      0.00
    5    1    4      3.69      0.00
    6   29    4     11.98      0.00
    6   28    4    -31.98      0.00
    6   27    4     -9.03      0.00
    6   26    4    -36.19      0.00
    6   25    4     -6.80      0.00
    6   24    4      9.10      0.00
    6   23    4     -4.90      0.00
    6   22    4     10.41      0.00
    6   21    4     -4.71      0.00
    6   20    4     -3.04      0.00
    6   19    4      3.59      0.00
    6   18    4      3.20      0.00
    6   17    4      6.56      0.00
    6   16    4      4.16      0.00
    6   15    4      9.85      0.00
    6   14    4      0.26      0.00
    6   13    4      5.51      0.00
    6   12    4      1.00      0.00
    6   11    4     -4.62      0.00
    6   10    4     -1.49      0.00
    6    9    4     -7.49      0.00
    6    8    4      6.70      0.00
    6    7    4     -7.93      0.00
    6    6    4      7.39      0.00
    6    5    4     -4.06      0.00
    6    4    4     -4.08      0.00
    6    3    4      3.69      0.00
    6    2    4     -4.34      0.00
    6    1    4      3.19      0.00
    6    0    4     -1.03      0.00
    7   29    4      8.55      0.00
    7   28    4      2.18      0.00
    7   27    4     48.51      0.00
    7   26    4      6.16      0.00
    7   25    4      9.81      0.00
    7   24    4     -1.70      0.00
    7   23    4    -23.63      0.00
    7   22    4     -2.17      0.00
    7   21    4     -5.87      0.00
    7   20    4     -2.69      0.00
    7   19    4      3.52      0.00
    7   18    4     -1.92      0.00
    7   17    4     -1.08      0.00
    7   16    4     -4.20      0.00
    7   15    4      0.73      0.00
    7   14    4     -8.21      0.00
    7   13    4     -0.21      0.00
    7   12    4     -2.12      0.00
    7   11    4     -2.07      0.00
    7   10    4      7.31      0.00
    7    9    4      0.53      0.00
    7    8    4      7.33      0.00
    7    7    4     -1.33      0.00
    7    6    4      3.45      0.00
    7    5    4     -1.67      0.00
    7    4    4      1.20      0.00
    7    3    4     -1.31      0.00
    7    2    4     -5.75      0.00
    7    1    4     -0.07      0.00
    8   28    4    -29.55      0.00
    8   27    4     -0.35      0.00
    8   26    4    -26.09      0.00
    8   25    4     -0.91      0.00
    8   24    4     18.08      0.00
    8   23    4      6.52      0.00
    8   22    4     16.56      0.00
    8   21    4      6.97      0.00
    8   20    4     -3.61      0.00
    8   19    4      0.96      0.00
    8   18    4     -4.67      0.00
    8   17    4     -1.53      0.00
    8   16    4     -0.82      0.00
    8   15    4      4.14      0.00
    8   14    4     -1.50      0.00
    8   13    4      5.23      0.00
    8   12    4      2.92      0.00
    8   11    4     -1.41      0.00
    8   10    4      3.41      0.00
    8    9    4     -7.37      0.00
    8    8    4     -4.55      0.00
    8    7    4     -2.45      0.00
    8    6    4     -1.36      0.00
    8    5    4     -0.59      0.00
    8    4    4      4.87      0.00
    8    3    4      4.46      0.00
    8    2    4      2.27      0.00
    8    1    4      6.54      0.00
    8    0    4      0.10      0.00
    9   28    4     -9.61      0.00
    9   27    4     19.53      0.00
    9   26    4      2.60      0.00
    9   25    4     -6.40      0.00
    9   24    4      0.64      0.00
    9   23    4    -17.05      0.00
    9   22    4     -9.86      0.00
    9   21    4     -0.23      0.00
    9   20    4     -4.69      0.00
    9   19    4      6.86      0.00
    9   18    4      2.75      0.00
    9   17    4      2.71      0.00
    9   16    4     -0.15      0.00
    9   15    4     -0.07      0.00
    9   14    4     -2.43      0.00
    9   13    4      0.32      0.00
    9   12    4     -1.35      0.00
    9   11    4     -6.37      0.00
    9   10    4      2.16      0.00
    9    9    4     -0.18      0.00
    9    8    4      4.05      0.00
    9    7    4      6.73      0.00
    9    6    4      0.66      0.00
    9    5    4     -3.64      0.00
    9    4    4     -2.25      0.00
    9    3    4     -2.99      0.00
    9    2    4     -9.05      0.00
    9    1    4      0.46      0.00
   10   27    4      5.68      0.00
   10   26    4      5.73      0.00
   10   25    4    -11.53      0.00
   10   24    4     11.76      0.00
   10   23    4      4.05      0.00
   10   22    4      0.16      0.00
   10   21    4      8.89      0.00
   10   20    4     -5.20      0.00
   10   19    4     -0.27      0.00
   10   18    4     -3.80      0.00
   10   17    4     -0.33      0.00
   10   16    4      0.99      0.00
   10   15    4      0.76      0.00
   10   14    4     -0.01      0.00
   10   13    4     -2.28      0.00
   10   12    4      1.40      0.00
   10   11    4      0.82      0.00
   10   10    4      6.37      0.00
   10    9    4     -0.48      0.00
   10    8    4     -4.73      0.00
   10    7    4     -4.20      0.00
   10    6    4     -1.09      0.00
   10    5    4     -0.64      0.00
   10    4    4      3.21      0.00
   10    3    4      6.40      0.00
   10    2    4     -1.90      0.00
   10    1    4      5.30      0.00
   10    0    4      1.28      0.00
   11   27    4    -10.31      0.00
   11   26    4     12.82      0.00
   11   25    4    -11.31      0.00
   11   24    4      7.78      0.00
   11   23    4      2.85      0.00
   11   22    4     -9.42      0.00
   11   21    4      5.24      0.00
   11   20    4     -2.70      0.00
   11   19    4      1.78      0.00
   11   18    4     -0.18      0.00
   11   17    4      0.49      0.00
   11   16    4     -2.44      0.00
   11   15    4     -2.37      0.00
   11   14    4      3.78      0.00
   11   13    4      2.09      0.00
   11   12    4      3.95      0.00
   11   11    4     -2.97      0.00
   11   10    4     -3.48      0.00
   11    9    4     -2.07      0.00
   11    8    4      2.59      0.00
   11    7    4      3.48      0.00
   11    6    4      5.59      0.00
   11    5    4     -2.45      0.00
   11    4    4     -3.93      0.00
   11    3    4      2.99      0.00
   11    2    4     -5.70      0.00
   11    1    4     -2.61      0.00
   12   26    4     14.39      0.00
   12   25    4    -16.22      0.00
   12   24    4     -3.01      0.00
   12   23    4      5.65      0.00
   12   22    4     -7.91      0.00
   12   21    4      5.60      0.00
   12   20    4      0.19      0.00
   12   19    4     -0.82      0.00
   12   18    4     -0.56      0.00
   12   17    4      3.00      0.00
   12   16    4      1.01      0.00
   12   15    4     -0.24      0.00
   12   14    4      0.18      0.00
   12   13    4     -7.11      0.00
   12   12    4     -3.00      0.00
   12   11    4     -0.77      0.00
   12   10    4      2.76      0.00
   12    9    4      3.02      0.00
   12    8    4     -0.21      0.00
   12    7    4     -6.38      0.00
   12    6    4      0.90      0.00
   12    5    4      0.86      0.00
   12    4    4     -1.67      0.00
   12    3    4      7.33      0.00
   12    2    4     -1.07      0.00
   12    1    4      1.09      0.00
   12    0    4      9.45      0.00
   13   27    4    -13.13      0.00
   13   26    4     16.78      0.00
   13   25    4      0.05      0.00
   13   24    4      0.18      0.00
   13   23    4      9.82      0.00
   13   22    4     -8.54      0.00
   13   21    4      0.50      0.00
   13   20    4      1.11      0.00
   13   19    4     -1.68      0.00
   13   18    4     -0.38      0.00
   13   17    4      1.77      0.00
   13   16    4     -1.90      0.00
   13   15    4     -1.00      0.00
   13   14    4      3.21      0.00
   13   13    4      2.19      0.00
   13   12    4      5.73      0.00
   13   11    4      1.76      0.00
   13   10    4     -1.93      0.00
   13    9    4     -2.35      0.00
   13    8    4      0.81      0.00
   13    7    4     -1.95      0.00
   13    6    4      2.18      0.00
   13    5    4     -0.52      0.00
   13    4    4     -9.45      0.00
   13    3    4      3.74      0.00
   13    2    4     -3.17      0.00
   13    1    4     -5.93      0.00
   14   25    4     -5.30      0.00
   14   24    4     -9.43      0.00
   14   23    4      9.49      0.00
   14   22    4     -2.57      0.00
   14   21    4      1.49      0.00
   14   20    4      3.19      0.00
   14   19    4     -1.92      0.00
   14   18    4     -1.39      0.00
   14   17    4      0.17      0.00
   14   16    4     -1.83      0.00
   14   15    4      0.09      0.00
   14   14    4      0.62      0.00
   14   13    4     -2.93      0.00
   14   12    4     -1.89      0.00
   14   11    4     -3.20      0.00
   14   10    4      0.18      0.00
   14    9    4      1.95      0.00
   14    8    4      3.88      0.00
   14    7    4     -0.75      0.00
   14    6    4      2.75      0.00
   14    5    4      6.81      0.00
   14    4    4     -2.04      0.00
   14    3    4      7.50      0.00
   14    2    4     -0.91      0.00
   14    1    4     -1.76      0.00
   14    0    4      4.87      0.00
   15   24    4     -7.25      0.00
   15   23    4      3.91      0.00
   15   22    4     -4.45      0.00
   15   21    4     -2.66      0.00
   15   20    4      1.45      0.00
   15   19    4     -0.59      0.00
   15   18    4      1.03      0.00
   15   17    4      2.87      0.00
   15   16    4      1.39      0.00
   15   15    4      0.78      0.00
   15   14    4     -0.92      0.00
   15   13    4     -1.71      0.00
   15   12    4      2.59      0.00
   15   11    4      0.58      0.00
   15   10    4      1.04      0.00
   15    9    4     -2.11      0.00
   15    8    4     -2.29      0.00
   15    7    4     -4.21      0.00
   15    6    4     -3.41      0.00
   15    5    4     -0.36      0.00
   15    4    4     -7.48      0.00
   15    3    4      1.67      0.00
   15    2    4      0.96      0.00
   15    1    4      1.14      0.00
   16   23    4      4.92      0.00
   16   22    4      1.66      0.00
   16   21    4     -0.53      0.00
   16   20    4      0.79      0.00
   16   19    4      0.07      0.00
   16   18    4     -1.01      0.00
   16   17    4     -2.39      0.00
   16   16    4     -2.61      0.00
   16   15    4     -0.63      0.00
   16   14    4      1.69      0.00
   16   13    4      0.80      0.00
   16   12    4      2.87      0.00
   16   11    4     -2.36      0.00
   16   10    4     -0.21      0.00
   16    9    4      1.71      0.00
   16    8    4      2.67      0.00
   16    7    4      3.38      0.00
   16    6    4      0.87      0.00
   16    5    4      3.95      0.00
   16    4    4     -0.39      0.00
   16    3    4      0.21      0.00
   16    2    4     -0.92      0.00
   16    1    4     -3.49      0.00
   16    0    4     -3.50      0.00
   16   24    4     -4.16      0.00
   17   23    4     -1.04      0.00
   17   22    4      1.11      0.00
   17   21    4      0.22      0.00
   17   20    4     -0.51      0.00
   17   19    4      0.32      0.00
   17   18    4      0.43      0.00
   17   17    4      1.03      0.00
   17   16    4      2.78      0.00
   17   15    4      1.01      0.00
   17   14    4     -0.04      0.00
   17   13    4     -4.51      0.00
   17   12    4      0.83      0.00
   17   11    4     -1.61      0.00
   17   10    4      0.07      0.00
   17    9    4      0.09      0.00
   17    8    4     -3.40      0.00
   17    7    4     -0.16      0.00
   17    6    4     -2.60      0.00
   17    5    4      2.07      0.00
   17    4    4     -0.11      0.00
   17    3    4     -1.39      0.00
   17    2    4      3.22      0.00
   17    1    4      1.33      0.00
   18   22    4     -0.60      0.00
   18   21    4     -0.73      0.00
   18   20    4     -1.77      0.00
   18   19    4      1.20      0.00
   18   18    4      0.73      0.00
   18   17    4     -1.81      0.00
   18   16    4     -1.06      0.00
   18   15    4     -2.03      0.00
   18   14    4      2.16      0.00
   18   13    4     -1.20      0.00
   18   12    4      4.27      0.00
   18   11    4     -0.34      0.00
   18   10    4      0.03      0.00
   18    9    4      1.97      0.00
   18    8    4     -0.25      0.00
   18    7    4      2.50      0.00
   18    6    4     -3.47      0.00
   18    5    4      0.47      0.00
   18    4    4     -1.31      0.00
   18    3    4     -0.98      0.00
   18    2    4      2.49      0.00
   18    1    4     -0.84      0.00
   18    0    4      0.40      0.00
   19   22    4      1.98      0.00
   19   21    4      2.60      0.00
   19   20    4     -1.51      0.00
   19   19    4      0.16      0.00
   19   18    4      0.39      0.00
   19   17    4     -0.55      0.00
   19   16    4      1.72      0.00
   19   15    4     -0.28      0.00
   19   14    4      2.23      0.00
   19   13    4     -3.71      0.00
   19   12    4      0.99      0.00
   19   11    4     -2.08      0.00
   19   10    4     -1.16      0.00
   19    9    4     -0.44      0.00
   19    8    4     -1.29      0.00
   19    7    4      1.76      0.00
   19    6    4     -0.68      0.00
   19    5    4      4.55      0.00
   19    4    4     -0.50      0.00
   19    3    4     -0.52      0.00
   19    2    4     -2.06      0.00
   19    1    4     -3.12      0.00
   20   21    4      1.50      0.00
   20   20    4     -1.40      0.00
   20   19    4      0.63      0.00
   20   18    4      0.24      0.00
   20   17    4     -1.37      0.00
   20   16    4      0.23      0.00
   20   15    4     -1.28      0.00
   20   14    4      1.89      0.00
   20   13    4     -1.65      0.00
   20   12    4      2.66      0.00
   20   11    4      0.73      0.00
   20   10    4      1.57      0.00
   20    9    4      0.52      0.00
   20    8    4      0.41      0.00
   20    7    4     -0.23      0.00
   20    6    4     -3.14      0.00
   20    5    4      0.12      0.00
   20    4    4     -3.39      0.00
   20    3    4      3.33      0.00
   20    2    4      1.56      0.00
   20    1    4      3.12      0.00
   20    0    4      4.55      0.00
   21   20    4     -2.01      0.00
   21   19    4      1.03      0.00
   21   18    4      1.56      0.00
   21   17    4      0.48      0.00
   21   16    4      0.85      0.00
   21   15    4     -1.11      0.00
   21   14    4      0.51      0.00
   21   13    4     -1.86      0.00
   21   12    4     -0.17      0.00
   21   11    4     -2.10      0.00
   21   10    4     -0.68      0.00
   21    9    4     -1.01      0.00
   21    8    4      0.66      0.00
   21    7    4      1.01      0.00
   21    6    4      0.68      0.00
   21    5    4      2.64      0.00
   21    4    4     -1.34      0.00
   21    3    4      2.20      0.00
   21    2    4     -5.26      0.00
   21    1    4     -3.35      0.00
   22   19    4     -0.38      0.00
   22   18    4     -1.80      0.00
   22   17    4     -1.92      0.00
   22   16    4      0.50      0.00
   22   15    4      0.42      0.00
   22   14    4      1.56      0.00
   22   13    4      0.48      0.00
   22   12    4      1.82      0.00
   22   11    4      0.49      0.00
   22   10    4      1.61      0.00
   22    9    4     -0.12      0.00
   22    8    4     -1.57      0.00
   22    7    4     -0.20      0.00
   22    6    4     -0.67      0.00
   22    5    4     -0.23      0.00
   22    4    4     -1.75      0.00
   22    3    4      2.97      0.00
   22    2    4     -0.49      0.00
   22    1    4      3.40      0.00
   22    0    4      4.62      0.00
   23   18    4      1.69      0.00
   23   17    4      0.55      0.00
   23   16    4      0.40      0.00
   23   15    4     -2.03      0.00
   23   14    4     -0.98      0.00
   23   13    4     -1.28      0.00
   23   12    4      0.01      0.00
   23   11    4     -2.33      0.00
   23   10    4      0.09      0.00
   23    9    4      1.23      0.00
   23    8    4     -0.81      0.00
   23    7    4      2.32      0.00
   23    6    4     -0.69      0.00
   23    5    4     -1.19      0.00
   23    4    4     -0.44      0.00
   23    3    4      1.76      0.00
   23    2    4     -2.44      0.00
   23    1    4     -1.87      0.00
   24   16    4      2.17      0.00
   24   15    4      0.48      0.00
   24   14    4      1.78      0.00
   24   13    4     -0.30      0.00
   24   12    4      1.30      0.00
   24   11    4     -0.88      0.00
   24   10    4      1.25      0.00
   24    9    4      0.92      0.00
   24    8    4     -3.54      0.00
   24    7    4      1.91      0.00
   24    6    4      0.44      0.00
   24    5    4      0.71      0.00
   24    4    4      0.93      0.00
   24    3    4     -0.09      0.00
   24    2    4     -1.22      0.00
   24    1    4      0.15      0.00
   24    0    4      2.13      0.00
   25   15    4     -3.21      0.00
   25   14    4      0.55      0.00
   25   13    4     -0.11      0.00
   25   12    4      1.53      0.00
   25   11    4     -1.26      0.00
   25   10    4     -0.25      0.00
   25    9    4      0.80      0.00
   25    8    4     -2.03      0.00
   25    7    4      2.12      0.00
   25    6    4     -1.38      0.00
   25    5    4     -2.12      0.00
   25    4    4      0.26      0.00
   25    3    4      0.78      0.00
   25    2    4      1.96      0.00
   25    1    4     -0.29      0.00
   26   12    4     -1.28      0.00
   26   11    4     -0.47      0.00
   26   10    4      0.75      0.00
   26    9    4      1.85      0.00
   26    8    4     -1.23      0.00
   26    7    4      1.16      0.00
   26    6    4      0.14      0.00
   26    5    4      0.24      0.00
   26    4    4      0.80      0.00
   26    3    4     -1.66      0.00
   26    2    4     -0.55      0.00
   26    1    4     -2.15      0.00
   26    0    4      1.21      0.00
   26   13    4     -1.44      0.00
   27    9    4     -0.42      0.00
   27    8    4     -1.53      0.00
   27    7    4      0.46      0.00
   27    6    4      0.17      0.00
   27    5    4     -0.23      0.00
   27    4    4      0.17      0.00
   27    3    4      0.03      0.00
   27    2    4      1.64      0.00
   27    1    4     -1.19      0.00
   27   10    4     -1.34      0.00
   28    7    4      0.42      0.00
   28    6    4     -0.22      0.00
   28    5    4     -0.24      0.00
   28    4    4     -0.25      0.00
   28    3    4      0.58      0.00
   28    2    4      0.76      0.00
   28    1    4     -0.10      0.00
   28    0    4      1.77      0.00
    0    0    5     72.22      0.00
    0    2    5     11.08      0.00
    0    4    5    -31.21      0.00
    0    6    5     -2.41      0.00
    0    8    5      2.43      0.00
    0   10    5      1.87      0.00
    0   12    5      1.99      0.00
    0   14    5     -6.29      0.00
    0   16    5     -1.57      0.00
    0   18    5     -3.46      0.00
    0   20    5      6.36      0.00
    0   22    5     13.78      0.00
    0   24    5    -35.93      0.00
    0   26    5    -29.17      0.00
    1   27    5     -3.90      0.00
    1   26    5     -5.15      0.00
    1   25    5     34.23      0.00
    1   24    5     -3.74      0.00
    1   23    5      2.62      0.00
    1   22    5     -1.43      0.00
    1   21    5    -14.52      0.00
    1   20    5     -6.16      0.00
    1   19    5      3.38      0.00
    1   18    5     -3.53      0.00
    1   17    5     -0.43      0.00
    1   16    5     -0.55      0.00
    1   15    5      3.34      0.00
    1   14    5     -2.05      0.00
    1   13    5      1.45      0.00
    1   12    5     -2.20      0.00
    1   11    5     -3.04      0.00
    1   10    5     -3.07      0.00
    1    9    5      1.22      0.00
    1    8    5     -3.26      0.00
    1    7    5     -5.38      0.00
    1    6    5     -2.41      0.00
    1    5    5     16.02      0.00
    1    4    5     -8.60      0.00
    1    3    5     24.97      0.00
    1    2    5    -10.86      0.00
    1    1    5    -45.85      0.00
    2   27    5      4.84      0.00
    2   26    5      1.14      0.00
    2   25    5     10.32      0.00
    2   24    5     -6.43      0.00
    2   23    5     -2.64      0.00
    2   22    5     13.93      0.00
    2   21    5      2.21      0.00
    2   20    5     -1.50      0.00
    2   19    5      7.58      0.00
    2   18    5     -1.08      0.00
    2   17    5      1.28      0.00
    2   16    5      4.26      0.00
    2   15    5      0.60      0.00
    2   14    5     -1.43      0.00
    2   13    5      1.40      0.00
    2   12    5      3.48      0.00
    2   11    5      1.74      0.00
    2   10    5     -2.25      0.00
    2    9    5      4.73      0.00
    2    8    5      0.24      0.00
    2    7    5      0.66      0.00
    2    6    5      5.38      0.00
    2    5    5      6.13      0.00
    2    4    5    -24.76      0.00
    2    3    5     17.46      0.00
    2    2    5     -3.85      0.00
    2    1    5      9.24      0.00
    2    0    5     41.42      0.00
    3   26    5    -16.75      0.00
    3   25    5     -6.39      0.00
    3   24    5      2.21      0.00
    3   23    5    -11.42      0.00
    3   22    5     11.05      0.00
    3   21    5      0.22      0.00
    3   20    5     -2.42      0.00
    3   19    5      7.15      0.00
    3   18    5     -3.76      0.00
    3   17    5     -7.87      0.00
    3   16    5      0.99      0.00
    3   15    5     -3.67      0.00
    3   14    5      1.02      0.00
    3   13    5     -1.62      0.00
    3   12    5      3.04      0.00
    3   11    5     -2.10      0.00
    3   10    5     -1.98      0.00
    3    9    5      6.95      0.00
    3    8    5     -0.21      0.00
    3    7    5     -6.81      0.00
    3    6    5      4.32      0.00
    3    5    5     -1.31      0.00
    3    4    5    -10.95      0.00
    3    3    5     21.60      0.00
    3    2    5    -13.50      0.00
    3    1    5     -7.61      0.00
    4   26    5      9.70      0.00
    4   25    5      2.59      0.00
    4   24    5      7.54      0.00
    4   23    5    -16.86      0.00
    4   22    5      0.65      0.00
    4   21    5    -10.62      0.00
    4   20    5    -12.73      0.00
    4   19    5      2.04      0.00
    4   18    5      2.16      0.00
    4   17    5      0.08      0.00
    4   16    5      9.28      0.00
    4   15    5     -1.56      0.00
    4   14    5     -0.30      0.00
    4   13    5     -5.41      0.00
    4   12    5      3.24      0.00
    4   11    5     -4.36      0.00
    4   10    5     -2.36      0.00
    4    9    5      0.95      0.00
    4    8    5     -4.79      0.00
    4    7    5     -9.27      0.00
    4    6    5     12.78      0.00
    4    5    5     -2.41      0.00
    4    4    5     -2.11      0.00
    4    3    5     11.08      0.00
    4    2    5    -11.86      0.00
    4    1    5      3.28      0.00
    4    0    5      1.48      0.00
    5   26    5     -1.72      0.00
    5   25    5      6.28      0.00
    5   24    5     13.00      0.00
    5   23    5      0.66      0.00
    5   22    5     14.20      0.00
    5   21    5     12.43      0.00
    5   20    5      3.83      0.00
    5   19    5      6.85      0.00
    5   18    5     -1.15      0.00
    5   17    5     -8.02      0.00
    5   16    5     -0.25      0.00
    5   15    5     -1.75      0.00
    5   14    5      1.28      0.00
    5   13    5      2.61      0.00
    5   12    5      6.81      0.00
    5   11    5     -4.44      0.00
    5   10    5      0.58      0.00
    5    9    5      4.22      0.00
    5    8    5      5.42      0.00
    5    7    5     -2.63      0.00
    5    6    5     11.05      0.00
    5    5    5    -15.17      0.00
    5    4    5     -6.16      0.00
    5    3    5      2.42      0.00
    5    2    5     -5.55      0.00
    5    1    5      6.50      0.00
    6   26    5    -24.25      0.00
    6   25    5    -16.78      0.00
    6   24    5     -7.22      0.00
    6   23    5     -5.04      0.00
    6   22    5     -5.84      0.00
    6   21    5     -2.57      0.00
    6   20    5     -8.84      0.00
    6   19    5      0.36      0.00
    6   18    5      1.22      0.00
    6   17    5      1.44      0.00
    6   16    5      3.76      0.00
    6   15    5      4.52      0.00
    6   14    5     -5.26      0.00
    6   13    5     -0.14      0.00
    6   12    5     -0.40      0.00
    6   11    5     -1.94      0.00
    6   10    5      5.79      0.00
    6    9    5      0.77      0.00
    6    8    5     -2.13      0.00
    6    7    5    -10.43      0.00
    6    6    5     10.89      0.00
    6    5    5      0.38      0.00
    6    4    5     12.13      0.00
    6    3    5      9.02      0.00
    6    2    5     -4.64      0.00
    6    1    5     -0.42      0.00
    6    0    5     -7.06      0.00
    7   26    5     28.14      0.00
    7   25    5     15.71      0.00
    7   24    5      3.16      0.00
    7   23    5     -2.59      0.00
    7   22    5     -9.52      0.00
    7   21    5      0.93      0.00
    7   20    5     -0.95      0.00
    7   19    5      1.23      0.00
    7   18    5     -0.78      0.00
    7   17    5     -0.79      0.00
    7   16    5     -5.09      0.00
    7   15    5      1.20      0.00
    7   14    5     -8.56      0.00
    7   13    5      7.02      0.00
    7   12    5     -1.54      0.00
    7   11    5     -4.05      0.00
    7   10    5     -3.86      0.00
    7    9    5     -5.83      0.00
    7    8    5      3.01      0.00
    7    7    5     -3.23      0.00
    7    6    5      4.98      0.00
    7    5    5    -12.88      0.00
    7    4    5     -9.12      0.00
    7    3    5     -0.98      0.00
    7    2    5      1.31      0.00
    7    1    5      7.94      0.00
    8   26    5    -17.27      0.00
    8   25    5    -15.07      0.00
    8   24    5      6.79      0.00
    8   23    5     18.14      0.00
    8   22    5     10.49      0.00
    8   21    5      6.19      0.00
    8   20    5      4.28      0.00
    8   19    5     -1.98      0.00
    8   18    5     -1.55      0.00
    8   17    5      2.00      0.00
    8   16    5      0.11      0.00
    8   15    5      8.81      0.00
    8   14    5     -2.78      0.00
    8   13    5      6.74      0.00
    8   12    5     -5.83      0.00
    8   11    5      3.25      0.00
    8   10    5      6.59      0.00
    8    9    5      4.55      0.00
    8    8    5      5.30      0.00
    8    7    5     -5.01      0.00
    8    6    5      6.76      0.00
    8    5    5      3.87      0.00
    8    4    5      1.89      0.00
    8    3    5     -2.79      0.00
    8    2    5     -8.16      0.00
    8    1    5    -11.50      0.00
    8    0    5     -5.05      0.00
    9   25    5     -4.94      0.00
    9   24    5    -12.25      0.00
    9   23    5    -15.43      0.00
    9   22    5    -13.79      0.00
    9   21    5    -10.18      0.00
    9   20    5      5.88      0.00
    9   19    5     -1.84      0.00
    9   18    5      1.28      0.00
    9   17    5      2.88      0.00
    9   16    5     -3.35      0.00
    9   15    5     -3.15      0.00
    9   14    5     -6.00      0.00
    9   13    5      4.94      0.00
    9   12    5     -0.70      0.00
    9   11    5      3.63      0.00
    9   10    5     -4.78      0.00
    9    9    5     -6.24      0.00
    9    8    5     -1.02      0.00
    9    7    5     -4.58      0.00
    9    6    5      0.70      0.00
    9    5    5      0.13      0.00
    9    4    5      0.91      0.00
    9    3    5     10.34      0.00
    9    2    5     25.29      0.00
    9    1    5     -0.51      0.00
   10   25    5      1.28      0.00
   10   24    5      9.77      0.00
   10   23    5     16.87      0.00
   10   22    5      8.46      0.00
   10   21    5     -5.19      0.00
   10   20    5      4.63      0.00
   10   19    5     -6.13      0.00
   10   18    5     -2.67      0.00
   10   17    5      1.38      0.00
   10   16    5      0.81      0.00
   10   15    5      0.76      0.00
   10   14    5      3.39      0.00
   10   13    5     -2.29      0.00
   10   12    5     -6.99      0.00
   10   11    5     -2.21      0.00
   10   10    5     -0.57      0.00
   10    9    5      4.39      0.00
   10    8    5      4.35      0.00
   10    7    5     -0.14      0.00
   10    6    5     -0.54      0.00
   10    5    5      4.29      0.00
   10    4    5    -11.63      0.00
   10    3    5    -20.56      0.00
   10    2    5     -2.03      0.00
   10    1    5    -26.94      0.00
   10    0    5     17.74      0.00
   11   24    5    -11.11      0.00
   11   23    5     -0.08      0.00
   11   22    5     -2.44      0.00
   11   21    5     -0.64      0.00
   11   20    5      9.46      0.00
   11   19    5      0.28      0.00
   11   18    5     -1.90      0.00
   11   17    5      3.01      0.00
   11   16    5      0.17      0.00
   11   15    5     -3.95      0.00
   11   14    5      3.94      0.00
   11   13    5      0.22      0.00
   11   12    5      7.64      0.00
   11   11    5      4.89      0.00
   11   10    5      0.59      0.00
   11    9    5     -1.83      0.00
   11    8    5     -1.85      0.00
   11    7    5     -0.66      0.00
   11    6    5     -5.92      0.00
   11    5    5      8.52      0.00
   11    4    5     -1.28      0.00
   11    3    5      8.75      0.00
   11    2    5     32.93      0.00
   11    1    5    -19.19      0.00
   12   24    5     -5.97      0.00
   12   23    5      7.61      0.00
   12   22    5     -5.41      0.00
   12   21    5     -4.52      0.00
   12   20    5     -1.32      0.00
   12   19    5      0.51      0.00
   12   18    5     -2.44      0.00
   12   17    5      3.54      0.00
   12   16    5     -1.44      0.00
   12   15    5     -2.53      0.00
   12   14    5      2.88      0.00
   12   13    5     -5.76      0.00
   12   12    5     -1.63      0.00
   12   11    5     -6.57      0.00
   12   10    5     -0.51      0.00
   12    9    5      0.22      0.00
   12    8    5      1.57      0.00
   12    7    5      2.09      0.00
   12    6    5     -3.24      0.00
   12    5    5     14.05      0.00
   12    4    5     -8.05      0.00
   12    3    5     -8.12      0.00
   12    2    5      5.85      0.00
   12    1    5    -21.18      0.00
   12    0    5     22.74      0.00
   13   23    5      5.87      0.00
   13   22    5     -3.66      0.00
   13   21    5      2.85      0.00
   13   20    5     -0.53      0.00
   13   19    5      1.21      0.00
   13   18    5     -4.85      0.00
   13   17    5      3.43      0.00
   13   16    5     -0.14      0.00
   13   15    5      0.86      0.00
   13   14    5      0.65      0.00
   13   13    5     -1.43      0.00
   13   12    5      4.80      0.00
   13   11    5      0.22      0.00
   13   10    5      3.26      0.00
   13    9    5     -1.17      0.00
   13    8    5      1.14      0.00
   13    7    5     -0.21      0.00
   13    6    5     -7.27      0.00
   13    5    5      1.36      0.00
   13    4    5    -14.00      0.00
   13    3    5     -0.26      0.00
   13    2    5     12.05      0.00
   13    1    5     -6.88      0.00
   14   23    5      4.45      0.00
   14   22    5     -0.13      0.00
   14   21    5      3.04      0.00
   14   20    5     -0.33      0.00
   14   19    5      2.98      0.00
   14   18    5     -2.39      0.00
   14   17    5      0.39      0.00
   14   16    5     -3.67      0.00
   14   15    5      0.89      0.00
   14   14    5      0.27      0.00
   14   13    5      1.55      0.00
   14   12    5      1.08      0.00
   14   11    5     -3.46      0.00
   14   10    5     -0.31      0.00
   14    9    5     -1.19      0.00
   14    8    5      0.41      0.00
   14    7    5     -1.28      0.00
   14    6    5      2.10      0.00
   14    5    5     10.48      0.00
   14    4    5      5.54      0.00
   14    3    5      5.86      0.00
   14    2    5     -0.58      0.00
   14    1    5     -6.35      0.00
   14    0    5     -7.31      0.00
   15   22    5     -2.81      0.00
   15   21    5     -2.25      0.00
   15   20    5     -1.13      0.00
   15   19    5      1.21      0.00
   15   18    5      1.04      0.00
   15   17    5      3.50      0.00
   15   16    5      1.74      0.00
   15   15    5      1.60      0.00
   15   14    5     -3.76      0.00
   15   13    5     -2.01      0.00
   15   12    5      0.05      0.00
   15   11    5      0.67      0.00
   15   10    5      1.21      0.00
   15    9    5      1.61      0.00
   15    8    5      0.09      0.00
   15    7    5     -0.73      0.00
   15    6    5      0.32      0.00
   15    5    5     -6.89      0.00
   15    4    5     -6.49      0.00
   15    3    5     -6.39      0.00
   15    2    5      0.72      0.00
   15    1    5     11.86      0.00
   16   21    5     -1.10      0.00
   16   20    5      0.57      0.00
   16   19    5     -1.64      0.00
   16   18    5     -2.47      0.00
   16   17    5     -3.40      0.00
   16   16    5     -2.36      0.00
   16   15    5      0.60      0.00
   16   14    5      1.90      0.00
   16   13    5      2.44      0.00
   16   12    5      1.62      0.00
   16   11    5     -1.73      0.00
   16   10    5     -2.56      0.00
   16    9    5      2.06      0.00
   16    8    5     -1.18      0.00
   16    7    5      0.42      0.00
   16    6    5      1.78      0.00
   16    5    5     -0.87      0.00
   16    4    5      8.15      0.00
   16    3    5      0.14      0.00
   16    2    5     -0.67      0.00
   16    1    5     -1.61      0.00
   16    0    5    -13.81      0.00
   16   22    5      3.79      0.00
   17   20    5      2.27      0.00
   17   19    5      0.81      0.00
   17   18    5      1.74      0.00
   17   17    5      2.00      0.00
   17   16    5      1.81      0.00
   17   15    5     -0.20      0.00
   17   14    5     -1.44      0.00
   17   13    5     -3.47      0.00
   17   12    5      0.76      0.00
   17   11    5      0.12      0.00
   17   10    5      0.47      0.00
   17    9    5      1.29      0.00
   17    8    5     -3.87      0.00
   17    7    5      0.74      0.00
   17    6    5     -0.35      0.00
   17    5    5     -0.38      0.00
   17    4    5      2.46      0.00
   17    3    5     -4.60      0.00
   17    2    5      2.64      0.00
   17    1    5      3.04      0.00
   17   21    5     -1.83      0.00
   18   20    5      0.68      0.00
   18   19    5     -0.26      0.00
   18   18    5     -0.52      0.00
   18   17    5     -0.54      0.00
   18   16    5     -0.93      0.00
   18   15    5     -0.55      0.00
   18   14    5      1.55      0.00
   18   13    5      0.40      0.00
   18   12    5      2.58      0.00
   18   11    5     -1.65      0.00
   18   10    5      0.30      0.00
   18    9    5      0.75      0.00
   18    8    5      0.86      0.00
   18    7    5      3.64      0.00
   18    6    5     -3.29      0.00
   18    5    5      0.01      0.00
   18    4    5     -2.30      0.00
   18    3    5     -3.15      0.00
   18    2    5      3.09      0.00
   18    1    5     -1.87      0.00
   18    0    5      2.73      0.00
   19   19    5     -0.16      0.00
   19   18    5     -0.64      0.00
   19   17    5     -0.10      0.00
   19   16    5      0.77      0.00
   19   15    5      0.82      0.00
   19   14    5      0.27      0.00
   19   13    5     -1.24      0.00
   19   12    5     -0.36      0.00
   19   11    5     -1.91      0.00
   19   10    5      1.85      0.00
   19    9    5     -1.90      0.00
   19    8    5     -0.41      0.00
   19    7    5      0.16      0.00
   19    6    5     -2.66      0.00
   19    5    5      6.02      0.00
   19    4    5      0.77      0.00
   19    3    5      1.70      0.00
   19    2    5      2.32      0.00
   19    1    5     -5.60      0.00
   20   18    5      0.00      0.00
   20   17    5     -0.60      0.00
   20   16    5      0.27      0.00
   20   15    5     -1.19      0.00
   20   14    5     -1.30      0.00
   20   13    5      0.85      0.00
   20   12    5      1.11      0.00
   20   11    5      0.30      0.00
   20   10    5      1.62      0.00
   20    9    5     -2.46      0.00
   20    8    5      1.13      0.00
   20    7    5      0.27      0.00
   20    6    5     -2.11      0.00
   20    5    5      0.79      0.00
   20    4    5     -4.42      0.00
   20    3    5     -1.08      0.00
   20    2    5      1.73      0.00
   20    1    5     -0.45      0.00
   20    0    5      6.07      0.00
   21   17    5     -1.08      0.00
   21   16    5      0.96      0.00
   21   15    5     -0.12      0.00
   21   14    5      0.20      0.00
   21   13    5      0.96      0.00
   21   12    5     -1.51      0.00
   21   11    5     -1.25      0.00
   21   10    5      0.55      0.00
   21    9    5      0.44      0.00
   21    8    5      1.30      0.00
   21    7    5      0.55      0.00
   21    6    5      0.19      0.00
   21    5    5      0.66      0.00
   21    4    5      1.05      0.00
   21    3    5      0.32      0.00
   21    2    5     -0.63      0.00
   21    1    5     -3.18      0.00
   22   15    5      0.34      0.00
   22   14    5     -0.23      0.00
   22   13    5      0.49      0.00
   22   12    5      0.22      0.00
   22   11    5      0.44      0.00
   22   10    5     -0.10      0.00
   22    9    5      0.34      0.00
   22    8    5     -2.98      0.00
   22    7    5      0.79      0.00
   22    6    5      0.61      0.00
   22    5    5     -1.73      0.00
   22    4    5      2.19      0.00
   22    3    5      0.02      0.00
   22    2    5      1.36      0.00
   22    1    5      2.07      0.00
   22    0    5      1.89      0.00
   23   14    5     -0.97      0.00
   23   13    5      0.67      0.00
   23   12    5      0.79      0.00
   23   11    5     -0.97      0.00
   23   10    5      0.20      0.00
   23    9    5      2.36      0.00
   23    8    5     -3.05      0.00
   23    7    5      2.52      0.00
   23    6    5     -0.75      0.00
   23    5    5     -2.82      0.00
   23    4    5      1.87      0.00
   23    3    5     -1.96      0.00
   23    2    5     -2.48      0.00
   23    1    5     -0.54      0.00
   24   11    5     -2.60      0.00
   24   10    5      0.92      0.00
   24    9    5      1.18      0.00
   24    8    5     -2.74      0.00
   24    7    5      4.11      0.00
   24    6    5     -0.03      0.00
   24    5    5     -0.80      0.00
   24    4    5      1.95      0.00
   24    3    5     -0.30      0.00
   24    2    5     -0.18      0.00
   24    1    5      1.95      0.00
   24    0    5     -0.14      0.00
   25    8    5     -2.81      0.00
   25    7    5      1.16      0.00
   25    6    5     -2.24      0.00
   25    5    5     -0.51      0.00
   25    4    5      1.98      0.00
   25    3    5      0.56      0.00
   25    2    5      0.17      0.00
   25    1    5      0.50      0.00
   26    5    5     -0.70      0.00
   26    4    5     -0.67      0.00
   26    3    5     -2.81      0.00
   26    2    5     -0.40      0.00
   26    1    5     -0.93      0.00
   26    0    5      0.98      0.00
    0    0    6     17.98      0.00
    0    2    6     22.14      0.00
    0    4    6     -2.14      0.00
    0    6    6    -11.76      0.00
    0    8    6      7.01      0.00
    0   10    6     -7.87      0.00
    0   12    6     -7.89      0.00
    0   14    6     -9.63      0.00
    0   16    6     -3.52      0.00
    0   18    6      1.89      0.00
    0   20    6     -6.71      0.00
    0   22    6     22.57      0.00
    1   22    6      6.85      0.00
    1   21    6     -5.85      0.00
    1   20    6      2.52      0.00
    1   19    6      5.25      0.00
    1   18    6     -0.02      0.00
    1   17    6     -5.17      0.00
    1   16    6      0.43      0.00
    1   15    6      7.81      0.00
    1   14    6      1.26      0.00
    1   13    6      4.33      0.00
    1   12    6     -0.20      0.00
    1   11    6      9.43      0.00
    1   10    6     -6.23      0.00
    1    9    6     -3.48      0.00
    1    8    6     -9.17      0.00
    1    7    6     -2.43      0.00
    1    6    6     -4.19      0.00
    1    5    6     15.94      0.00
    1    4    6     -1.30      0.00
    1    3    6     -9.24      0.00
    1    2    6     -2.35      0.00
    1    1    6    -15.40      0.00
    1   23    6    -21.92      0.00
    2   23    6     -5.75      0.00
    2   22    6     18.44      0.00
    2   21    6     -7.13      0.00
    2   20    6     -7.37      0.00
    2   19    6      0.79      0.00
    2   18    6      4.94      0.00
    2   17    6     -1.10      0.00
    2   16    6      1.58      0.00
    2   15    6     -2.06      0.00
    2   14    6     -2.65      0.00
    2   13    6     -2.56      0.00
    2   12    6     -3.04      0.00
    2   11    6      3.43      0.00
    2   10    6     -4.91      0.00
    2    9    6     12.44      0.00
    2    8    6      8.85      0.00
    2    7    6      7.67      0.00
    2    6    6     -9.84      0.00
    2    5    6     -1.35      0.00
    2    4    6     -8.59      0.00
    2    3    6     -2.53      0.00
    2    2    6     10.05      0.00
    2    1    6     -2.14      0.00
    2    0    6      7.25      0.00
    2   24    6      7.31      0.00
    3   23    6    -19.10      0.00
    3   22    6     10.34      0.00
    3   21    6      0.07      0.00
    3   20    6     -0.37      0.00
    3   19    6      3.34      0.00
    3   18    6     -0.81      0.00
    3   17    6     -6.73      0.00
    3   16    6      4.13      0.00
    3   15    6      0.44      0.00
    3   14    6      4.54      0.00
    3   13    6     -2.28      0.00
    3   12    6      2.18      0.00
    3   11    6      5.51      0.00
    3   10    6     -8.26      0.00
    3    9    6      0.28      0.00
    3    8    6     -8.72      0.00
    3    7    6      1.35      0.00
    3    6    6      1.17      0.00
    3    5    6     12.80      0.00
    3    4    6      5.95      0.00
    3    3    6     -3.99      0.00
    3    2    6     10.00      0.00
    3    1    6     -7.02      0.00
    3   24    6     -4.77      0.00
    4   23    6     -6.28      0.00
    4   22    6      7.85      0.00
    4   21    6     -3.97      0.00
    4   20    6     -6.43      0.00
    4   19    6      3.62      0.00
    4   18    6      2.28      0.00
    4   17    6     -4.04      0.00
    4   16    6      0.06      0.00
    4   15    6     -7.20      0.00
    4   14    6      1.66      0.00
    4   13    6     -5.58      0.00
    4   12    6      0.00      0.00
    4   11    6      1.31      0.00
    4   10    6     -6.97      0.00
    4    9    6      5.58      0.00
    4    8    6     -4.68      0.00
    4    7    6     -0.39      0.00
    4    6    6     -8.63      0.00
    4    5    6      2.09      0.00
    4    4    6      2.05      0.00
    4    3    6     -7.84      0.00
    4    2    6     11.22      0.00
    4    1    6    -12.39      0.00
    4    0    6      5.21      0.00
    4   24    6      8.73      0.00
    5   23    6     -6.07      0.00
    5   22    6      4.86      0.00
    5   21    6      2.66      0.00
    5   20    6     -0.74      0.00
    5   19    6      1.15      0.00
    5   18    6      0.25      0.00
    5   17    6      2.23      0.00
    5   16    6      8.95      0.00
    5   15    6      2.84      0.00
    5   14    6      7.18      0.00
    5   13    6     -1.24      0.00
    5   12    6      1.79      0.00
    5   11    6      3.94      0.00
    5   10    6     -2.72      0.00
    5    9    6      7.20      0.00
    5    8    6      3.31      0.00
    5    7    6      6.39      0.00
    5    6    6     -7.69      0.00
    5    5    6     -5.81      0.00
    5    4    6    -13.78      0.00
    5    3    6    -14.50      0.00
    5    2    6     15.97      0.00
    5    1    6     -0.98      0.00
    6   23    6      3.65      0.00
    6   22    6     -1.77      0.00
    6   21    6     -3.39      0.00
    6   20    6      0.73      0.00
    6   19    6      0.57      0.00
    6   18    6     -0.92      0.00
    6   17    6     -5.61      0.00
    6   16    6     -5.95      0.00
    6   15    6     -9.60      0.00
    6   14    6     -1.76      0.00
    6   13    6     -1.38      0.00
    6   12    6     -2.48      0.00
    6   11    6      5.17      0.00
    6   10    6     -2.50      0.00
    6    9    6     -1.53      0.00
    6    8    6     -2.91      0.00
    6    7    6     -0.70      0.00
    6    6    6     10.16      0.00
    6    5    6     28.37      0.00
    6    4    6     21.92      0.00
    6    3    6      0.54      0.00
    6    2    6     -1.84      0.00
    6    1    6    -22.15      0.00
    6    0    6    -23.36      0.00
    7   23    6      4.07      0.00
    7   22    6     -4.00      0.00
    7   21    6     -0.68      0.00
    7   20    6      4.74      0.00
    7   19    6     -4.17      0.00
    7   18    6     -0.56      0.00
    7   17    6      3.82      0.00
    7   16    6      9.33      0.00
    7   15    6      2.07      0.00
    7   14    6      4.02      0.00
    7   13    6      3.86      0.00
    7   12    6     -8.28      0.00
    7   11    6      2.07      0.00
    7   10    6     -9.35      0.00
    7    9    6     -2.64      0.00
    7    8    6      4.71      0.00
    7    7    6     -9.64      0.00
    7    6    6    -15.60      0.00
    7    5    6    -28.42      0.00
    7    4    6    -18.61      0.00
    7    3    6     -8.51      0.00
    7    2    6     38.47      0.00
    7    1    6     34.72      0.00
    8   22    6     -0.50      0.00
    8   21    6     -5.69      0.00
    8   20    6      5.31      0.00
    8   19    6     -0.28      0.00
    8   18    6      0.63      0.00
    8   17    6     -1.61      0.00
    8   16    6      0.01      0.00
    8   15    6     -8.63      0.00
    8   14    6     -0.03      0.00
    8   13    6      4.37      0.00
    8   12    6     -6.03      0.00
    8   11    6     15.21      0.00
    8   10    6      2.09      0.00
    8    9    6      7.87      0.00
    8    8    6      5.08      0.00
    8    7    6     -0.39      0.00
    8    6    6     19.95      0.00
    8    5    6     17.07      0.00
    8    4    6     21.49      0.00
    8    3    6    -34.26      0.00
    8    2    6    -18.74      0.00
    8    1    6    -48.27      0.00
    8    0    6    -42.67      0.00
    8   23    6     18.94      0.00
    9   22    6     -6.02      0.00
    9   21    6     -3.79      0.00
    9   20    6      8.71      0.00
    9   19    6     -1.69      0.00
    9   18    6     -4.92      0.00
    9   17    6      0.44      0.00
    9   16    6      5.85      0.00
    9   15    6     -4.75      0.00
    9   14    6      3.13      0.00
    9   13    6      3.29      0.00
    9   12    6     -7.44      0.00
    9   11    6      3.31      0.00
    9   10    6    -15.24      0.00
    9    9    6     -0.76      0.00
    9    8    6     -4.26      0.00
    9    7    6     -1.54      0.00
    9    6    6     -6.09      0.00
    9    5    6    -14.12      0.00
    9    4    6     12.92      0.00
    9    3    6     -2.42      0.00
    9    2    6     74.15      0.00
    9    1    6     17.14      0.00
   10   22    6      5.40      0.00
   10   21    6    -10.05      0.00
   10   20    6      1.01      0.00
   10   19    6     -1.03      0.00
   10   18    6     -2.97      0.00
   10   17    6      2.20      0.00
   10   16    6      2.28      0.00
   10   15    6     -4.59      0.00
   10   14    6      2.48      0.00
   10   13    6     -0.94      0.00
   10   12    6     -3.85      0.00
   10   11    6      3.49      0.00
   10   10    6     -0.65      0.00
   10    9    6     10.93      0.00
   10    8    6     -6.58      0.00
   10    7    6      4.51      0.00
   10    6    6     -5.98      0.00
   10    5    6      6.17      0.00
   10    4    6      0.96      0.00
   10    3    6    -45.76      0.00
   10    2    6      5.18      0.00
   10    1    6    -51.89      0.00
   10    0    6     11.51      0.00
   11   21    6     -2.62      0.00
   11   20    6      9.61      0.00
   11   19    6      3.22      0.00
   11   18    6     -2.69      0.00
   11   17    6      2.65      0.00
   11   16    6      0.87      0.00
   11   15    6     -1.28      0.00
   11   14    6     -0.48      0.00
   11   13    6      0.92      0.00
   11   12    6      6.36      0.00
   11   11    6     -0.22      0.00
   11   10    6     -0.48      0.00
   11    9    6      1.10      0.00
   11    8    6     -6.87      0.00
   11    7    6     10.76      0.00
   11    6    6    -10.05      0.00
   11    5    6     11.77      0.00
   11    4    6     -0.58      0.00
   11    3    6     -0.33      0.00
   11    2    6     45.36      0.00
   11    1    6    -24.41      0.00
   12   21    6     -5.07      0.00
   12   20    6     -0.66      0.00
   12   19    6     -2.49      0.00
   12   18    6     -2.65      0.00
   12   17    6     -0.29      0.00
   12   16    6     -2.42      0.00
   12   15    6      3.18      0.00
   12   14    6     -1.71      0.00
   12   13    6      0.17      0.00
   12   12    6      0.38      0.00
   12   11    6     -9.50      0.00
   12   10    6      3.79      0.00
   12    9    6      1.61      0.00
   12    8    6      0.41      0.00
   12    7    6      4.00      0.00
   12    6    6     -8.99      0.00
   12    5    6     14.69      0.00
   12    4    6    -10.96      0.00
   12    3    6     -3.36      0.00
   12    2    6      8.72      0.00
   12    1    6    -18.89      0.00
   12    0    6     25.91      0.00
   13   20    6      0.31      0.00
   13   19    6      0.07      0.00
   13   18    6      1.53      0.00
   13   17    6      1.53      0.00
   13   16    6      0.46      0.00
   13   15    6      3.51      0.00
   13   14    6     -7.02      0.00
   13   13    6      1.24      0.00
   13   12    6      3.08      0.00
   13   11    6     -1.99      0.00
   13   10    6      3.84      0.00
   13    9    6     -5.48      0.00
   13    8    6      0.08      0.00
   13    7    6     -4.05      0.00
   13    6    6     -0.61      0.00
   13    5    6      5.72      0.00
   13    4    6    -12.48      0.00
   13    3    6      5.96      0.00
   13    2    6      2.30      0.00
   13    1    6     -7.41      0.00
   14   19    6      2.03      0.00
   14   18    6      0.33      0.00
   14   17    6     -3.13      0.00
   14   16    6     -2.25      0.00
   14   15    6      2.29      0.00
   14   14    6     -2.07      0.00
   14   13    6      4.99      0.00
   14   12    6     -0.42      0.00
   14   11    6     -1.13      0.00
   14   10    6      0.22      0.00
   14    9    6      1.35      0.00
   14    8    6      5.55      0.00
   14    7    6     -7.04      0.00
   14    6    6      4.73      0.00
   14    5    6     -2.71      0.00
   14    4    6     -2.33      0.00
   14    3    6      6.51      0.00
   14    2    6     -3.47      0.00
   14    1    6     -0.09      0.00
   14    0    6     -2.15      0.00
   15   18    6     -0.78      0.00
   15   17    6      1.50      0.00
   15   16    6      2.70      0.00
   15   15    6      1.57      0.00
   15   14    6     -1.99      0.00
   15   13    6      0.14      0.00
   15   12    6     -2.08      0.00
   15   11    6      2.72      0.00
   15   10    6     -2.90      0.00
   15    9    6      2.29      0.00
   15    8    6      0.79      0.00
   15    7    6     -3.18      0.00
   15    6    6     10.89      0.00
   15    5    6     -3.86      0.00
   15    4    6      2.97      0.00
   15    3    6     -1.41      0.00
   15    2    6     -2.66      0.00
   15    1    6      3.68      0.00
   15   19    6      0.16      0.00
   16   17    6      0.32      0.00
   16   16    6     -2.12      0.00
   16   15    6     -2.23      0.00
   16   14    6     -0.09      0.00
   16   13    6     -0.04      0.00
   16   12    6     -0.69      0.00
   16   11    6      1.09      0.00
   16   10    6     -4.18      0.00
   16    9    6      2.79      0.00
   16    8    6     -2.97      0.00
   16    7    6     -2.59      0.00
   16    6    6      0.77      0.00
   16    5    6     -6.61      0.00
   16    4    6      4.88      0.00
   16    3    6     -0.96      0.00
   16    2    6      3.04      0.00
   16    1    6      0.84      0.00
   16    0    6     -1.64      0.00
   16   18    6     -2.49      0.00
   17   16    6     -0.27      0.00
   17   15    6      1.35      0.00
   17   14    6      1.54      0.00
   17   13    6      0.10      0.00
   17   12    6      0.42      0.00
   17   11    6      0.64      0.00
   17   10    6      0.53      0.00
   17    9    6      1.82      0.00
   17    8    6     -1.98      0.00
   17    7    6      2.16      0.00
   17    6    6     -1.33      0.00
   17    5    6     -0.48      0.00
   17    4    6      1.53      0.00
   17    3    6     -4.92      0.00
   17    2    6      1.02      0.00
   17    1    6     -1.84      0.00
   17   17    6      2.81      0.00
   18   15    6      0.52      0.00
   18   14    6     -1.25      0.00
   18   13    6      1.17      0.00
   18   12    6      0.02      0.00
   18   11    6     -0.91      0.00
   18   10    6      1.67      0.00
   18    9    6     -2.41      0.00
   18    8    6      1.14      0.00
   18    7    6      4.16      0.00
   18    6    6     -1.65      0.00
   18    5    6      3.58      0.00
   18    4    6      0.17      0.00
   18    3    6     -2.90      0.00
   18    2    6      2.17      0.00
   18    1    6     -2.10      0.00
   18    0    6      0.38      0.00
   19   14    6     -2.45      0.00
   19   13    6      1.28      0.00
   19   12    6     -3.30      0.00
   19   11    6     -0.65      0.00
   19   10    6      3.44      0.00
   19    9    6     -2.94      0.00
   19    8    6      2.08      0.00
   19    7    6     -1.31      0.00
   19    6    6     -4.84      0.00
   19    5    6      2.24      0.00
   19    4    6      1.11      0.00
   19    3    6      0.57      0.00
   19    2    6      5.84      0.00
   19    1    6     -0.31      0.00
   20   12    6     -1.53      0.00
   20   11    6      1.54      0.00
   20   10    6     -0.24      0.00
   20    9    6     -5.59      0.00
   20    8    6      1.86      0.00
   20    7    6     -0.45      0.00
   20    6    6     -0.14      0.00
   20    5    6      0.87      0.00
   20    4    6     -1.74      0.00
   20    3    6     -5.53      0.00
   20    2    6      0.50      0.00
   20    1    6     -3.37      0.00
   20    0    6      0.80      0.00
   21   11    6      2.83      0.00
   21   10    6      2.13      0.00
   21    9    6      1.38      0.00
   21    8    6      4.40      0.00
   21    7    6     -0.97      0.00
   21    6    6      0.23      0.00
   21    5    6     -0.10      0.00
   21    4    6      2.86      0.00
   21    3    6     -0.86      0.00
   21    2    6      3.04      0.00
   21    1    6     -1.81      0.00
   22    8    6     -0.58      0.00
   22    7    6     -1.27      0.00
   22    6    6      1.69      0.00
   22    5    6     -1.92      0.00
   22    4    6      2.09      0.00
   22    3    6     -1.70      0.00
   22    2    6      2.01      0.00
   22    1    6      0.93      0.00
   22    0    6      0.97      0.00
   23    4    6      3.28      0.00
   23    3    6     -2.55      0.00
   23    2    6     -1.33      0.00
   23    1    6     -0.38      0.00
    0    0    7    -40.50      0.00
    0    2    7     16.04      0.00
    0    4    7     -4.10      0.00
    0    6    7    -17.22      0.00
    0    8    7     44.39      0.00
    0   10    7     -8.31      0.00
    0   12    7    -20.52      0.00
    0   14    7     -6.39      0.00
    0   16    7      2.23      0.00
    0   18    7     22.12      0.00
    1   18    7      1.20      0.00
    1   17    7    -15.16      0.00
    1   16    7      2.20      0.00
    1   15    7      6.85      0.00
    1   14    7      5.76      0.00
    1   13    7      6.37      0.00
    1   12    7      0.13      0.00
    1   11    7     27.62      0.00
    1   10    7    -12.53      0.00
    1    9    7    -21.92      0.00
    1    8    7    -10.37      0.00
    1    7    7    -13.28      0.00
    1    6    7      7.67      0.00
    1    5    7     35.50      0.00
    1    4    7     31.54      0.00
    1    3    7    -27.61      0.00
    1    2    7     35.32      0.00
    1    1    7      5.24      0.00
    2   19    7     -0.46      0.00
    2   18    7     12.21      0.00
    2   17    7     -4.05      0.00
    2   16    7     -2.90      0.00
    2   15    7     -6.98      0.00
    2   14    7     -0.62      0.00
    2   13    7     -8.05      0.00
    2   12    7    -16.37      0.00
    2   11    7      8.20      0.00
    2   10    7    -15.75      0.00
    2    9    7     20.13      0.00
    2    8    7     18.63      0.00
    2    7    7      8.78      0.00
    2    6    7    -42.52      0.00
    2    5    7    -21.29      0.00
    2    4    7     -8.62      0.00
    2    3    7    -51.66      0.00
    2    2    7     47.36      0.00
    2    1    7    -31.20      0.00
    2    0    7     14.19      0.00
    3   19    7     -0.95      0.00
    3   18    7      4.22      0.00
    3   17    7     -0.45      0.00
    3   16    7      6.66      0.00
    3   15    7      4.33      0.00
    3   14    7      9.48      0.00
    3   13    7     -2.84      0.00
    3   12    7      3.81      0.00
    3   11    7     23.71      0.00
    3   10    7    -11.69      0.00
    3    9    7      0.48      0.00
    3    8    7    -17.60      0.00
    3    7    7     23.54      0.00
    3    6    7    -12.34      0.00
    3    5    7     51.10      0.00
    3    4    7     17.55      0.00
    3    3    7    -40.89      0.00
    3    2    7     41.27      0.00
    3    1    7    -49.84      0.00
    3   20    7     -0.18      0.00
    4   19    7     -2.62      0.00
    4   18    7      3.25      0.00
    4   17    7     -6.45      0.00
    4   16    7     -8.15      0.00
    4   15    7     -8.58      0.00
    4   14    7      6.19      0.00
    4   13    7     -7.40      0.00
    4   12    7     -5.20      0.00
    4   11    7     -0.93      0.00
    4   10    7    -14.99      0.00
    4    9    7      5.44      0.00
    4    8    7     -4.57      0.00
    4    7    7     21.57      0.00
    4    6    7    -46.18      0.00
    4    5    7     31.28      0.00
    4    4    7     -2.80      0.00
    4    3    7     -6.28      0.00
    4    2    7     51.03      0.00
    4    1    7    -19.37      0.00
    4    0    7     30.87      0.00
    5   19    7     -8.85      0.00
    5   18    7      2.06      0.00
    5   17    7      3.31      0.00
    5   16    7     10.09      0.00
    5   15    7      2.84      0.00
    5   14    7      9.00      0.00
    5   13    7     -8.29      0.00
    5   12    7      2.13      0.00
    5   11    7      9.64      0.00
    5   10    7      3.03      0.00
    5    9    7      2.53      0.00
    5    8    7     -1.85      0.00
    5    7    7     11.96      0.00
    5    6    7    -38.51      0.00
    5    5    7     13.85      0.00
    5    4    7    -37.83      0.00
    5    3    7    -27.74      0.00
    5    2    7     13.27      0.00
    5    1    7     -1.83      0.00
    6   19    7      1.33      0.00
    6   18    7      7.01      0.00
    6   17    7     -5.03      0.00
    6   16    7     -6.41      0.00
    6   15    7    -16.54      0.00
    6   14    7      4.67      0.00
    6   13    7     -4.01      0.00
    6   12    7      2.41      0.00
    6   11    7      5.62      0.00
    6   10    7     -6.06      0.00
    6    9    7     -5.47      0.00
    6    8    7      1.81      0.00
    6    7    7      7.75      0.00
    6    6    7      6.83      0.00
    6    5    7     43.18      0.00
    6    4    7     25.24      0.00
    6    3    7      2.54      0.00
    6    2    7     -6.36      0.00
    6    1    7    -24.77      0.00
    6    0    7    -53.38      0.00
    7   18    7     -6.12      0.00
    7   17    7      1.63      0.00
    7   16    7     16.77      0.00
    7   15    7      2.05      0.00
    7   14    7     17.32      0.00
    7   13    7     -5.86      0.00
    7   12    7     -9.00      0.00
    7   11    7      2.33      0.00
    7   10    7    -13.08      0.00
    7    9    7      6.96      0.00
    7    8    7      6.54      0.00
    7    7    7     -8.04      0.00
    7    6    7    -13.11      0.00
    7    5    7    -36.01      0.00
    7    4    7    -10.20      0.00
    7    3    7    -17.72      0.00
    7    2    7     47.26      0.00
    7    1    7     55.21      0.00
    8   18    7     -1.71      0.00
    8   17    7     -2.25      0.00
    8   16    7     -3.09      0.00
    8   15    7    -25.34      0.00
    8   14    7      3.56      0.00
    8   13    7     -5.75      0.00
    8   12    7      3.85      0.00
    8   11    7     22.92      0.00
    8   10    7     -8.61      0.00
    8    9    7     12.90      0.00
    8    8    7    -12.56      0.00
    8    7    7     -5.79      0.00
    8    6    7     19.86      0.00
    8    5    7      5.96      0.00
    8    4    7     38.46      0.00
    8    3    7    -42.25      0.00
    8    2    7    -11.67      0.00
    8    1    7    -49.80      0.00
    8    0    7    -53.31      0.00
    9   17    7      5.74      0.00
    9   16    7     14.75      0.00
    9   15    7     -2.55      0.00
    9   14    7     17.45      0.00
    9   13    7     -5.57      0.00
    9   12    7     -8.35      0.00
    9   11    7     -0.76      0.00
    9   10    7    -25.27      0.00
    9    9    7     16.83      0.00
    9    8    7     -5.69      0.00
    9    7    7     12.19      0.00
    9    6    7     -0.55      0.00
    9    5    7    -21.51      0.00
    9    4    7     12.38      0.00
    9    3    7    -19.50      0.00
    9    2    7     63.91      0.00
    9    1    7     11.80      0.00
   10   17    7     -1.05      0.00
   10   16    7      0.81      0.00
   10   15    7    -11.92      0.00
   10   14    7      4.69      0.00
   10   13    7     -3.01      0.00
   10   12    7      4.77      0.00
   10   11    7     10.52      0.00
   10   10    7     -1.90      0.00
   10    9    7     15.60      0.00
   10    8    7    -17.43      0.00
   10    7    7      3.42      0.00
   10    6    7     -8.83      0.00
   10    5    7      8.90      0.00
   10    4    7      8.79      0.00
   10    3    7    -26.59      0.00
   10    2    7     11.94      0.00
   10    1    7    -36.64      0.00
   10    0    7     11.93      0.00
   11   16    7      4.41      0.00
   11   15    7     -3.92      0.00
   11   14    7     -2.63      0.00
   11   13    7     -0.87      0.00
   11   12    7      0.51      0.00
   11   11    7     -4.87      0.00
   11   10    7     -3.17      0.00
   11    9    7     -0.74      0.00
   11    8    7     -6.15      0.00
   11    7    7     10.60      0.00
   11    6    7     -8.48      0.00
   11    5    7     12.27      0.00
   11    4    7     -9.13      0.00
   11    3    7      0.95      0.00
   11    2    7     22.74      0.00
   11    1    7    -19.77      0.00
   12   15    7      5.00      0.00
   12   14    7     -1.98      0.00
   12   13    7      7.87      0.00
   12   12    7     -1.66      0.00
   12   11    7     -7.17      0.00
   12   10    7      7.88      0.00
   12    9    7     -1.24      0.00
   12    8    7      6.66      0.00
   12    7    7      1.80      0.00
   12    6    7     -8.36      0.00
   12    5    7      8.93      0.00
   12    4    7    -17.46      0.00
   12    3    7      3.47      0.00
   12    2    7      2.87      0.00
   12    1    7     -7.71      0.00
   12    0    7     21.81      0.00
   13   14    7    -11.57      0.00
   13   13    7      6.74      0.00
   13   12    7     -0.92      0.00
   13   11    7     -0.33      0.00
   13   10    7      7.83      0.00
   13    9    7     -9.85      0.00
   13    8    7      1.43      0.00
   13    7    7     -6.60      0.00
   13    6    7      3.28      0.00
   13    5    7     11.65      0.00
   13    4    7     -3.19      0.00
   13    3    7     12.41      0.00
   13    2    7     -2.56      0.00
   13    1    7    -11.36      0.00
   14   13    7      6.97      0.00
   14   12    7     -4.11      0.00
   14   11    7     -3.00      0.00
   14   10    7      1.56      0.00
   14    9    7     -2.20      0.00
   14    8    7      5.88      0.00
   14    7    7     -3.96      0.00
   14    6    7      1.03      0.00
   14    5    7     -7.63      0.00
   14    4    7     -9.24      0.00
   14    3    7      2.98      0.00
   14    2    7      0.40      0.00
   14    1    7      4.00      0.00
   14    0    7     12.65      0.00
   15   11    7     -0.09      0.00
   15   10    7     -0.01      0.00
   15    9    7      1.78      0.00
   15    8    7      0.09      0.00
   15    7    7      0.01      0.00
   15    6    7      6.52      0.00
   15    5    7     -0.07      0.00
   15    4    7      3.42      0.00
   15    3    7      0.56      0.00
   15    2    7     -7.83      0.00
   15    1    7     -6.66      0.00
   16   10    7      0.26      0.00
   16    9    7      0.98      0.00
   16    6    7      0.05      0.00
   16    5    7     -3.34      0.00
   16    4    7      4.19      0.00
   16    3    7      4.68      0.00
   16    2    7      2.35      0.00
   16    1    7      6.18      0.00
   16    0    7      1.64      0.00
   16    7    7     -1.45      0.00
   16    8    7     -5.29      0.00
   17    9    7      1.39      0.00
   17    8    7      1.65      0.00
   17    5    7     -4.10      0.00
   17    4    7     -0.84      0.00
   17    3    7     -4.13      0.00
   17    2    7     -5.28      0.00
   17    1    7      3.30      0.00
   17    6    7      0.84      0.00
   17    7    7      3.88      0.00
   18    7    7     -2.14      0.00
   18    6    7     -0.52      0.00
   18    4    7      4.55      0.00
   18    3    7     -0.58      0.00
   18    2    7     -0.38      0.00
   18    1    7      0.79      0.00
   18    0    7     -6.07      0.00
   18    5    7     -0.20      0.00
   19    1    7      0.70      0.00
   19    2    7      3.03      0.00
   19    3    7     -2.34      0.00
    0    0    8    -20.39      0.00
    0    2    8     19.20      0.00
    0    4    8    -28.68      0.00
    0    6    8    -24.61      0.00
    0    8    8     57.14      0.00
    0   10    8     -7.46      0.00
    0   12    8    -16.50      0.00
    1   12    8      2.12      0.00
    1   11    8     30.03      0.00
    1   10    8    -10.26      0.00
    1    9    8    -24.44      0.00
    1    8    8     -9.46      0.00
    1    7    8    -16.61      0.00
    1    6    8      6.90      0.00
    1    4    8     38.91      0.00
    1    3    8    -20.38      0.00
    1    2    8     48.68      0.00
    1    1    8    -14.46      0.00
    2   12    8    -16.22      0.00
    2   11    8      4.48      0.00
    2   10    8    -23.14      0.00
    2    9    8     17.64      0.00
    2    8    8     16.10      0.00
    2    7    8     13.77      0.00
    2    6    8    -53.96      0.00
    2    3    8    -63.75      0.00
    2    2    8     62.75      0.00
    2    1    8    -40.31      0.00
    2    0    8     36.11      0.00
    3   12    8      9.52      0.00
    3   11    8     29.05      0.00
    3   10    8     -8.43      0.00
    3    9    8      8.14      0.00
    3    8    8    -20.90      0.00
    3    7    8     31.87      0.00
    3    6    8    -23.17      0.00
    3    5    8     58.55      0.00
    3    4    8     13.66      0.00
    3    3    8    -51.92      0.00
    3    2    8     43.42      0.00
    3    1    8    -62.16      0.00
    4   12    8     -5.81      0.00
    4   11    8     -2.94      0.00
    4   10    8    -19.11      0.00
    4    9    8      8.83      0.00
    4    8    8     -8.54      0.00
    4    7    8     28.07      0.00
    4    6    8    -51.73      0.00
    4    5    8     35.26      0.00
    4    4    8      3.49      0.00
    4    3    8      3.35      0.00
    4    2    8     57.94      0.00
    4    1    8     -9.32      0.00
    4    0    8     23.71      0.00
    5   12    8      4.64      0.00
    5   11    8      8.91      0.00
    5   10    8     -4.16      0.00
    5    9    8      2.44      0.00
    5    8    8     -8.65      0.00
    5    7    8     14.53      0.00
    5    6    8    -29.33      0.00
    5    5    8     15.45      0.00
    5    4    8    -33.62      0.00
    5    3    8    -34.09      0.00
    5    2    8    -10.12      0.00
    5    1    8      5.28      0.00
    6   11    8     10.23      0.00
    6   10    8     -4.88      0.00
    6    9    8      6.64      0.00
    6    8    8     -0.27      0.00
    6    7    8      0.18      0.00
    6    6    8     -2.60      0.00
    6    5    8     15.48      0.00
    6    4    8     20.64      0.00
    6    3    8     14.91      0.00
    6    2    8     -0.62      0.00
    6    1    8      1.64      0.00
    6    0    8    -48.59      0.00
    7   11    8     -0.94      0.00
    7   10    8    -19.29      0.00
    7    9    8     10.20      0.00
    7    8    8      2.70      0.00
    7    7    8      2.40      0.00
    7    6    8     12.31      0.00
    7    5    8    -16.54      0.00
    7    4    8      0.63      0.00
    7    3    8    -16.29      0.00
    7    2    8      5.37      0.00
    7    1    8     29.27      0.00
    8   10    8    -10.10      0.00
    8    9    8     13.74      0.00
    8    8    8    -17.14      0.00
    8    7    8    -12.65      0.00
    8    6    8      3.93      0.00
    8    5    8     -9.43      0.00
    8    4    8     18.34      0.00
    8    3    8     -8.25      0.00
    8    2    8      3.77      0.00
    8    1    8    -10.44      0.00
    8    0    8    -11.22      0.00
    9    9    8     16.58      0.00
    9    8    8     -3.53      0.00
    9    7    8      9.78      0.00
    9    6    8      3.38      0.00
    9    5    8     -6.81      0.00
    9    4    8     -3.46      0.00
    9    3    8     -8.39      0.00
    9    2    8     11.56      0.00
    9    1    8    -10.90      0.00
   10    7    8      5.24      0.00
   10    6    8     -0.29      0.00
   10    5    8     13.20      0.00
   10    4    8     -2.26      0.00
   10    3    8      1.66      0.00
   10    2    8      4.90      0.00
   10    1    8     -9.77      0.00
   10    0    8     17.08      0.00
   11    1    8     -7.70      0.00
   11    2    8      9.78      0.00
   11    3    8      9.49      0.00
   11    4    8     -9.15      0.00
   11    5    8      5.06      0.00
   11    6    8    -11.50      0.00
    2    0    0    339.16      0.00
    1    1    0   -392.94      0.00
   33    1    0      1.91      0.00
    0    2    0     60.53      0.00
   33    2    0      1.72      0.00
   33    3    0      0.98      0.00
   33    4    0     -0.80      0.00
   33    5    0     -0.42      0.00
   32    6    0      0.77      0.00
   33    6    0      0.99      0.00
   32    7    0     -4.32      0.00
   33    7    0     -4.33      0.00
   32    8    0      3.73      0.00
   33    8    0      5.99      0.00
   32    9    0     -4.37      0.00
   33    9    0     -1.58      0.00
   31   10    0     -0.99      0.00
   32   10    0     -1.51      0.00
   33   10    0     -1.09      0.00
   31   11    0      1.08      0.00
   32   11    0      4.18      0.00
   33   11    0      3.83      0.00
   30   12    0      2.48      0.00
   31   12    0     -4.22      0.00
   32   12    0     -1.44      0.00
   33   12    0     -3.98      0.00
   30   13    0      3.12      0.00
   31   13    0     -0.49      0.00
   32   13    0      2.00      0.00
   33   13    0      1.60      0.00
   29   14    0     -2.40      0.00
   30   14    0     -3.84      0.00
   31   14    0     -0.89      0.00
   32   14    0     -1.38      0.00
   33   14    0     -0.07      0.00
   29   15    0      8.06      0.00
   30   15    0     -0.15      0.00
   31   15    0      5.57      0.00
   32   15    0      0.24      0.00
   33   15    0     -1.39      0.00
   29   16    0      2.31      0.00
   30   16    0     -6.29      0.00
   31   16    0      0.69      0.00
   32   16    0     -0.83      0.00
   28   17    0     -1.62      0.00
   29   17    0      1.73      0.00
   30   17    0     -1.65      0.00
   31   17    0     -1.72      0.00
   32   17    0      0.69      0.00
   28   18    0      0.51      0.00
   29   18    0     -1.76      0.00
   30   18    0      6.49      0.00
   31   18    0      0.32      0.00
   27   19    0     -0.78      0.00
   28   19    0      5.83      0.00
   29   19    0     -5.81      0.00
   30   19    0      2.76      0.00
   31   19    0     -5.69      0.00
   27   20    0     -5.32      0.00
   28   20    0      2.99      0.00
   29   20    0     -4.63      0.00
   30   20    0      3.34      0.00
    4   21    0    -17.16      0.00
   26   21    0      5.13      0.00
   27   21    0     -3.68      0.00
   28   21    0      2.10      0.00
   29   21    0     -0.29      0.00
    0   22    0    -62.35      0.00
   25   22    0     -7.43      0.00
   26   22    0      3.48      0.00
   27   22    0     -1.37      0.00
   28   22    0      0.59      0.00
   29   22    0      2.54      0.00
    4   23    0    -11.00      0.00
   25   23    0      1.36      0.00
   26   23    0      2.63      0.00
   27   23    0     -0.79      0.00
   28   23    0     -2.74      0.00
   24   24    0     -5.74      0.00
   25   24    0      0.32      0.00
   26   24    0     -1.45      0.00
   27   24    0      1.53      0.00
   23   25    0      4.57      0.00
   24   25    0     -3.95      0.00
   25   25    0      3.21      0.00
   26   25    0     -3.56      0.00
   27   25    0      0.80      0.00
   22   26    0     -0.14      0.00
   23   26    0      2.52      0.00
   24   26    0     -2.05      0.00
   25   26    0      5.20      0.00
   26   26    0     -0.62      0.00
    1   27    0    -17.77      0.00
   20   27    0     -2.60      0.00
   21   27    0     -0.05      0.00
   22   27    0     -0.34      0.00
   23   27    0     -0.01      0.00
   24   27    0     -3.34      0.00
   25   27    0     -1.31      0.00
   19   28    0      0.51      0.00
   20   28    0     -6.40      0.00
   21   28    0     -0.21      0.00
   22   28    0     -1.70      0.00
   23   28    0      1.53      0.00
   24   28    0      3.57      0.00
   17   29    0      2.04      0.00
   18   29    0      2.45      0.00
   19   29    0     10.03      0.00
   20   29    0      2.45      0.00
   21   29    0      6.50      0.00
   22   29    0      0.13      0.00
   23   29    0     -3.18      0.00
   16   30    0      1.43      0.00
   17   30    0      1.94      0.00
   18   30    0     -3.96      0.00
   19   30    0     -3.02      0.00
   20   30    0     -6.43      0.00
   21   30    0     -3.47      0.00
   22   30    0      0.93      0.00
   13   31    0     -2.78      0.00
   14   31    0     -3.24      0.00
   15   31    0      0.57      0.00
   16   31    0     -5.96      0.00
   17   31    0     -2.15      0.00
   18   31    0     -0.98      0.00
   19   31    0      0.02      0.00
   20   31    0      4.29      0.00
   10   32    0     -4.28      0.00
   11   32    0     -4.05      0.00
   12   32    0      2.35      0.00
   13   32    0     -3.18      0.00
   14   32    0     -3.86      0.00
   15   32    0      0.54      0.00
   16   32    0     -0.83      0.00
   17   32    0      1.79      0.00
   18   32    0      3.01      0.00
   19   32    0     -1.47      0.00
    1   33    0     -8.74      0.00
    2   33    0    -32.23      0.00
    5   33    0    -12.75      0.00
    6   33    0      1.90      0.00
    7   33    0      5.68      0.00
    8   33    0      2.17      0.00
    9   33    0     15.68      0.00
   10   33    0     -4.89      0.00
   11   33    0      4.22      0.00
   12   33    0      0.28      0.00
   13   33    0      3.13      0.00
   14   33    0      5.70      0.00
   15   33    0      5.80      0.00
   16   33    0      3.77      0.00
   17   33    0      1.17      0.00
    0   34    0     -5.71      0.00
    1   34    0      9.53      0.00
    2   34    0      6.05      0.00
    3   34    0     17.54      0.00
    4   34    0     26.78      0.00
    5   34    0      3.05      0.00
    6   34    0     18.61      0.00
    7   34    0     -3.22      0.00
    8   34    0     -8.94      0.00
    9   34    0      7.23      0.00
   10   34    0    -10.99      0.00
   11   34    0      6.44      0.00
   12   34    0     -2.45      0.00
   13   34    0     -3.98      0.00
   14   34    0     -4.99      0.00
   15   34    0     -6.58      0.00
    0    0    1    399.98      0.00
   33    1    1     -0.39      0.00
   33    2    1      1.64      0.00
   33    3    1     -0.16      0.00
   33    4    1      0.25      0.00
   32    5    1      0.42      0.00
   33    5    1      0.33      0.00
   32    6    1      0.02      0.00
   33    6    1      1.35      0.00
   32    7    1     -3.44      0.00
   33    7    1     -1.59      0.00
   32    8    1      2.49      0.00
   33    8    1      4.53      0.00
   32    9    1     -2.62      0.00
   33    9    1      0.05      0.00
   31   10    1     -1.06      0.00
   32   10    1     -1.75      0.00
   33   10    1     -1.74      0.00
   31   11    1      1.36      0.00
   32   11    1      4.29      0.00
   33   11    1      2.99      0.00
   30   12    1      1.33      0.00
   31   12    1     -2.82      0.00
   32   12    1     -1.01      0.00
   33   12    1     -3.47      0.00
   30   13    1      1.33      0.00
   31   13    1     -0.79      0.00
   32   13    1      1.47      0.00
   33   13    1      0.99      0.00
   29   14    1     -2.35      0.00
   30   14    1     -2.55      0.00
   31   14    1     -0.56      0.00
   32   14    1     -0.27      0.00
   33   14    1      1.35      0.00
   29   15    1      6.02      0.00
   30   15    1      0.87      0.00
   31   15    1      3.53      0.00
   32   15    1     -0.78      0.00
   29   16    1      0.55      0.00
   30   16    1     -4.40      0.00
   31   16    1      0.40      0.00
   32   16    1     -0.19      0.00
   28   17    1     -1.22      0.00
   29   17    1      0.23      0.00
   30   17    1     -1.09      0.00
   31   17    1     -1.27      0.00
   28   18    1      2.86      0.00
   29   18    1     -0.59      0.00
   30   18    1      4.90      0.00
   31   18    1      0.71      0.00
   27   19    1     -3.44      0.00
   28   19    1      3.47      0.00
   29   19    1     -5.08      0.00
   30   19    1      0.65      0.00
   27   20    1     -3.66      0.00
   28   20    1      2.78      0.00
   29   20    1     -1.91      0.00
   30   20    1      2.43      0.00
   26   21    1      3.80      0.00
   27   21    1     -1.68      0.00
   28   21    1      0.70      0.00
   29   21    1     -0.23      0.00
   25   22    1     -5.48      0.00
   26   22    1      0.38      0.00
   27   22    1     -0.56      0.00
   28   22    1     -0.33      0.00
   29   22    1      2.51      0.00
    1   23    1     11.28      0.00
   24   23    1      4.16      0.00
   25   23    1      2.22      0.00
   26   23    1      1.58      0.00
   27   23    1      0.63      0.00
   28   23    1     -1.94      0.00
   23   24    1     -0.74      0.00
   24   24    1     -3.76      0.00
   25   24    1      0.23      0.00
   26   24    1     -1.42      0.00
   27   24    1      0.80      0.00
   22   25    1      0.05      0.00
   23   25    1      2.90      0.00
   24   25    1     -2.45      0.00
   25   25    1      1.98      0.00
   26   25    1     -1.80      0.00
   21   26    1      0.16      0.00
   22   26    1     -0.97      0.00
   23   26    1      1.29      0.00
   24   26    1     -1.79      0.00
   25   26    1      2.46      0.00
   20   27    1     -1.46      0.00
   21   27    1      1.64      0.00
   22   27    1      0.40      0.00
   23   27    1      1.11      0.00
   24   27    1     -1.49      0.00
    0   28    1   -100.76      0.00
    1   28    1    -20.17      0.00
   19   28    1     -0.07      0.00
   20   28    1     -6.34      0.00
   21   28    1     -1.32      0.00
   22   28    1     -2.13      0.00
   23   28    1      1.14      0.00
   17   29    1      1.33      0.00
   18   29    1      1.77      0.00
   19   29    1      8.26      0.00
   20   29    1      3.39      0.00
   21   29    1      5.15      0.00
   22   29    1     -0.31      0.00
   16   30    1      3.66      0.00
   17   30    1      1.60      0.00
   18   30    1     -1.89      0.00
   19   30    1     -3.74      0.00
   20   30    1     -4.95      0.00
   21   30    1     -2.08      0.00
   14   31    1     -3.45      0.00
   15   31    1     -1.75      0.00
   16   31    1     -4.12      0.00
   17   31    1     -4.53      0.00
   18   31    1      0.85      0.00
   19   31    1     -0.07      0.00
   20   31    1      2.49      0.00
   11   32    1     -1.79      0.00
   12   32    1     -3.93      0.00
   13   32    1      0.47      0.00
   14   32    1     -4.01      0.00
   15   32    1     -0.03      0.00
   16   32    1      1.84      0.00
   17   32    1     -0.73      0.00
   18   32    1      2.36      0.00
    7   33    1     -1.27      0.00
    8   33    1     11.21      0.00
    9   33    1      8.46      0.00
   10   33    1     -4.35      0.00
   11   33    1      5.22      0.00
   12   33    1     -5.14      0.00
   13   33    1      4.90      0.00
   14   33    1      3.65      0.00
   15   33    1      4.22      0.00
   16   33    1      5.03      0.00
   17   33    1      1.94      0.00
    0   34    1    -35.18      0.00
    1   34    1      9.44      0.00
    2   34    1     -9.82      0.00
    3   34    1     17.03      0.00
    4   34    1     21.89      0.00
    5   34    1     -0.07      0.00
    6   34    1     13.08      0.00
    7   34    1    -11.33      0.00
    8   34    1     -7.61      0.00
    9   34    1      3.67      0.00
   10   34    1     -6.84      0.00
   11   34    1     10.28      0.00
   12   34    1     -1.51      0.00
   13   34    1     -0.93      0.00
   14   34    1     -4.23      0.00
   15   34    1     -6.47      0.00
   32    0    2      2.07      0.00
   32    1    2     -0.80      0.00
   33    1    2     -2.72      0.00
   32    2    2      1.83      0.00
   33    2    2     -0.12      0.00
   32    3    2     -2.46      0.00
   33    3    2     -0.60      0.00
   32    4    2     -1.00      0.00
   33    4    2      1.04      0.00
   32    5    2     -1.51      0.00
   33    5    2      1.39      0.00
   32    6    2     -2.26      0.00
   33    6    2      0.45      0.00
   31    7    2      0.15      0.00
   32    7    2      0.32      0.00
   33    7    2      2.11      0.00
   31    8    2     -1.56      0.00
   32    8    2     -0.79      0.00
   33    8    2     -0.19      0.00
   31    9    2     -0.35      0.00
   32    9    2      1.46      0.00
   33    9    2      1.66      0.00
   31   10    2     -1.41      0.00
   32   10    2     -0.53      0.00
   33   10    2     -1.81      0.00
   30   11    2     -1.20      0.00
   31   11    2      0.47      0.00
   32   11    2      2.21      0.00
   33   11    2      0.05      0.00
   30   12    2     -1.00      0.00
   31   12    2     -0.53      0.00
   32   12    2      0.46      0.00
   33   12    2     -0.04      0.00
   29   13    2      1.61      0.00
   30   13    2      0.48      0.00
   31   13    2      0.29      0.00
   32   13    2     -0.70      0.00
   33   13    2     -0.44      0.00
   29   14    2     -2.71      0.00
   30   14    2     -1.88      0.00
   31   14    2     -0.25      0.00
   32   14    2     -0.15      0.00
   28   15    2      2.62      0.00
   29   15    2      1.67      0.00
   30   15    2      1.18      0.00
   31   15    2      1.36      0.00
   32   15    2     -0.95      0.00
   28   16    2      0.50      0.00
   29   16    2      0.38      0.00
   30   16    2     -0.40      0.00
   31   16    2      0.37      0.00
   28   17    2     -1.46      0.00
   29   17    2     -2.48      0.00
   30   17    2     -2.08      0.00
   31   17    2     -1.79      0.00
   27   18    2      0.33      0.00
   28   18    2      4.49      0.00
   29   18    2      1.57      0.00
   30   18    2      2.85      0.00
   26   19    2      0.02      0.00
   27   19    2     -4.91      0.00
   28   19    2      1.00      0.00
   29   19    2     -2.53      0.00
   30   19    2     -1.51      0.00
   26   20    2      3.24      0.00
   27   20    2     -1.13      0.00
   28   20    2      1.51      0.00
   29   20    2     -0.41      0.00
   25   21    2      0.09      0.00
   26   21    2     -0.01      0.00
   27   21    2      0.92      0.00
   28   21    2      0.17      0.00
   29   21    2      0.52      0.00
   24   22    2     -0.84      0.00
   25   22    2     -0.56      0.00
   26   22    2     -3.71      0.00
   27   22    2      0.86      0.00
   28   22    2     -0.93      0.00
   23   23    2     -1.72      0.00
   24   23    2      0.77      0.00
   25   23    2      2.58      0.00
   26   23    2     -0.60      0.00
   27   23    2      2.07      0.00
    0   24    2     70.87      0.00
   22   24    2      1.63      0.00
   23   24    2      0.36      0.00
   24   24    2      0.91      0.00
   25   24    2      0.13      0.00
   26   24    2     -1.35      0.00
    1   25    2    -81.27      0.00
    2   25    2     -9.31      0.00
   21   25    2      2.01      0.00
   22   25    2     -0.19      0.00
   23   25    2     -0.01      0.00
   24   25    2      0.36      0.00
   25   25    2      0.01      0.00
   26   25    2      0.88      0.00
    0   26    2     51.91      0.00
    2   26    2     -2.18      0.00
    5   26    2    -22.06      0.00
   20   26    2     -3.35      0.00
   21   26    2     -1.10      0.00
   22   26    2     -4.33      0.00
   23   26    2     -1.38      0.00
   24   26    2     -1.46      0.00
   25   26    2     -1.58      0.00
    1   27    2     38.22      0.00
   19   27    2      2.06      0.00
   20   27    2      1.21      0.00
   21   27    2      5.72      0.00
   22   27    2      1.91      0.00
   23   27    2      3.39      0.00
   24   27    2      1.64      0.00
    1   28    2    -40.99      0.00
   18   28    2     -1.75      0.00
   19   28    2     -0.61      0.00
   20   28    2     -4.20      0.00
   21   28    2     -1.94      0.00
   22   28    2     -2.53      0.00
   23   28    2     -0.02      0.00
    1   29    2     29.88      0.00
    3   29    2     51.25      0.00
   16   29    2      0.50      0.00
   17   29    2      0.40      0.00
   18   29    2      1.04      0.00
   19   29    2      2.79      0.00
   20   29    2      2.68      0.00
   21   29    2      1.00      0.00
   14   30    2      1.07      0.00
   15   30    2     -3.42      0.00
   16   30    2      3.95      0.00
   17   30    2     -2.36      0.00
   18   30    2     -0.26      0.00
   19   30    2     -3.96      0.00
   20   30    2     -0.90      0.00
   12   31    2     -6.96      0.00
   13   31    2      6.35      0.00
   14   31    2     -1.90      0.00
   15   31    2     -5.59      0.00
   16   31    2      2.19      0.00
   17   31    2     -3.89      0.00
   18   31    2      4.87      0.00
   19   31    2      0.92      0.00
    9   32    2    -18.88      0.00
   10   32    2     -8.79      0.00
   11   32    2      6.82      0.00
   12   32    2    -13.92      0.00
   13   32    2     10.09      0.00
   14   32    2     -0.24      0.00
   15   32    2      0.93      0.00
   16   32    2      5.37      0.00
   17   32    2     -4.54      0.00
    4   33    2    -27.08      0.00
    5   33    2    -31.78      0.00
    6   33    2     -5.12      0.00
    7   33    2     -4.72      0.00
    8   33    2     15.96      0.00
    9   33    2      2.42      0.00
   10   33    2     -0.83      0.00
   11   33    2      9.79      0.00
   12   33    2    -11.54      0.00
   13   33    2      6.84      0.00
   14   33    2     -3.53      0.00
   15   33    2     -1.54      0.00
   16   33    2      3.02      0.00
    0   34    2    -84.60      0.00
    1   34    2      4.31      0.00
    2   34    2    -29.92      0.00
    3   34    2      5.26      0.00
    4   34    2     18.00      0.00
    5   34    2     -0.04      0.00
    6   34    2     -0.96      0.00
    7   34    2     -6.08      0.00
    8   34    2     -4.43      0.00
    9   34    2      1.21      0.00
   10   34    2      2.45      0.00
   11   34    2      7.57      0.00
   12   34    2     -3.10      0.00
   13   34    2      1.81      0.00
   14   34    2     -2.94      0.00
   32    0    3      2.66      0.00
   31    1    3     -1.76      0.00
   32    1    3      0.76      0.00
   33    1    3     -1.66      0.00
   31    2    3      0.29      0.00
   32    2    3      2.15      0.00
   33    2    3     -1.54      0.00
   31    3    3     -1.92      0.00
   32    3    3     -0.66      0.00
   33    3    3     -0.33      0.00
   31    4    3      2.31      0.00
   32    4    3     -0.09      0.00
   33    4    3      0.03      0.00
   31    5    3      0.51      0.00
   32    5    3     -0.78      0.00
   33    5    3      1.10      0.00
   31    6    3     -0.35      0.00
   32    6    3     -2.52      0.00
   33    6    3     -1.31      0.00
   30    7    3      0.82      0.00
   31    7    3      1.92      0.00
   32    7    3      2.78      0.00
   33    7    3      2.55      0.00
   30    8    3     -0.55      0.00
   31    8    3     -2.65      0.00
   32    8    3     -2.79      0.00
   33    8    3     -2.32      0.00
   30    9    3      0.75      0.00
   31    9    3      1.42      0.00
   32    9    3      2.23      0.00
   33    9    3      1.25      0.00
   30   10    3     -1.69      0.00
   31   10    3     -0.75      0.00
   32   10    3      0.17      0.00
   29   11    3      3.35      0.00
   30   11    3     -0.23      0.00
   31   11    3     -0.03      0.00
   32   11    3      0.16      0.00
   29   12    3     -0.32      0.00
   30   12    3     -1.48      0.00
   31   12    3     -0.40      0.00
   32   12    3      1.70      0.00
   28   13    3      1.36      0.00
   29   13    3      0.80      0.00
   30   13    3      1.63      0.00
   31   13    3      0.03      0.00
   28   14    3      2.40      0.00
   29   14    3     -2.00      0.00
   30   14    3      0.39      0.00
   31   14    3     -0.15      0.00
   27   15    3     -3.84      0.00
   28   15    3      1.28      0.00
   29   15    3     -2.89      0.00
   30   15    3     -0.30      0.00
   31   15    3      0.13      0.00
   27   16    3     -1.01      0.00
   28   16    3      3.51      0.00
   29   16    3      1.81      0.00
   30   16    3      1.94      0.00
   26   17    3      0.47      0.00
   27   17    3     -2.00      0.00
   28   17    3     -1.17      0.00
   29   17    3     -2.01      0.00
   30   17    3     -2.78      0.00
   26   18    3      1.35      0.00
   27   18    3     -0.24      0.00
   28   18    3      1.15      0.00
   29   18    3      1.80      0.00
   25   19    3     -1.05      0.00
   26   19    3     -0.53      0.00
   27   19    3     -1.38      0.00
   28   19    3     -0.01      0.00
   29   19    3      0.57      0.00
   24   20    3      0.36      0.00
   25   20    3      1.35      0.00
   26   20    3     -0.20      0.00
   27   20    3      0.70      0.00
   28   20    3      0.06      0.00
   24   21    3      0.09      0.00
   25   21    3      3.00      0.00
   26   21    3     -2.27      0.00
   27   21    3      1.31      0.00
   23   22    3     -0.83      0.00
   24   22    3     -0.95      0.00
   25   22    3      2.32      0.00
   26   22    3     -3.93      0.00
   27   22    3      0.91      0.00
   22   23    3     -1.44      0.00
   23   23    3     -3.52      0.00
   24   23    3     -1.45      0.00
   25   23    3      1.58      0.00
   26   23    3     -0.99      0.00
   20   24    3     -2.58      0.00
   21   24    3      3.42      0.00
   22   24    3      1.39      0.00
   23   24    3      0.67      0.00
   24   24    3      2.81      0.00
   25   24    3      0.17      0.00
    1   25    3    -35.50      0.00
    2   25    3      2.49      0.00
   19   25    3      2.25      0.00
   20   25    3     -1.51      0.00
   21   25    3      5.21      0.00
   22   25    3      0.18      0.00
   23   25    3     -0.73      0.00
   24   25    3      1.65      0.00
    0   26    3     28.87      0.00
    1   26    3    -21.39      0.00
    2   26    3    -19.23      0.00
   18   26    3     -0.52      0.00
   19   26    3     -0.93      0.00
   20   26    3     -6.81      0.00
   21   26    3     -1.84      0.00
   22   26    3     -5.18      0.00
   23   26    3     -2.87      0.00
    1   27    3     17.90      0.00
   16   27    3     -8.82      0.00
   17   27    3     -0.25      0.00
   18   27    3     -2.20      0.00
   19   27    3      2.87      0.00
   20   27    3      3.72      0.00
   21   27    3      6.37      0.00
   22   27    3      2.42      0.00
    1   28    3    -44.33      0.00
   15   28    3     -1.78      0.00
   16   28    3      2.09      0.00
   17   28    3      6.00      0.00
   18   28    3      1.49      0.00
   19   28    3     -2.99      0.00
   20   28    3     -2.78      0.00
   21   28    3     -1.91      0.00
   13   29    3      2.61      0.00
   14   29    3     18.21      0.00
   15   29    3     -2.23      0.00
   16   29    3      0.99      0.00
   17   29    3     -4.37      0.00
   18   29    3      0.90      0.00
   19   29    3     -0.78      0.00
   20   29    3      1.89      0.00
   11   30    3      5.49      0.00
   12   30    3    -12.33      0.00
   13   30    3    -13.88      0.00
   14   30    3     -3.97      0.00
   15   30    3    -11.75      0.00
   16   30    3      4.91      0.00
   17   30    3     -3.04      0.00
   18   30    3      2.41      0.00
    8   31    3     11.04      0.00
    9   31    3     -3.20      0.00
   10   31    3     -8.33      0.00
   11   31    3     13.70      0.00
   12   31    3     -7.69      0.00
   13   31    3     12.32      0.00
   14   31    3      6.24      0.00
   15   31    3     -2.37      0.00
   16   31    3      5.66      0.00
   17   31    3     -2.35      0.00
    3   32    3     18.99      0.00
    4   32    3     67.51      0.00
    5   32    3     22.11      0.00
    6   32    3     30.46      0.00
    7   32    3     -5.36      0.00
    8   32    3      4.10      0.00
    9   32    3     -3.42      0.00
   10   32    3     -7.16      0.00
   11   32    3     14.74      0.00
   12   32    3    -14.37      0.00
   13   32    3     10.14      0.00
   14   32    3     -1.59      0.00
   15   32    3      0.66      0.00
    1   33    3     53.98      0.00
    2   33    3    -12.74      0.00
    3   33    3    -21.73      0.00
    4   33    3    -21.07      0.00
    5   33    3    -25.20      0.00
    6   33    3     -8.98      0.00
    7   33    3      1.61      0.00
    8   33    3      3.64      0.00
    9   33    3      1.66      0.00
   10   33    3     -4.24      0.00
   11   33    3      7.08      0.00
   12   33    3    -12.27      0.00
   13   33    3      3.86      0.00
    0   34    3    -67.84      0.00
    1   34    3      4.33      0.00
    2   34    3    -23.65      0.00
    3   34    3      5.30      0.00
    4   34    3      8.28      0.00
    5   34    3      4.07      0.00
    6   34    3     -9.53      0.00
    7   34    3      4.28      0.00
    8   34    3     -3.65      0.00
    9   34    3      1.40      0.00
   10   34    3      4.44      0.00
   11   34    3      1.26      0.00
   30    0    4     -0.29      0.00
   32    0    4     -1.34      0.00
   29    1    4     -0.85      0.00
   30    1    4      1.56      0.00
   31    1    4      0.84      0.00
   32    1    4      0.25      0.00
   29    2    4     -1.79      0.00
   30    2    4      0.00      0.00
   31    2    4     -1.07      0.00
   32    2    4     -0.01      0.00
   29    3    4     -0.06      0.00
   30    3    4      1.19      0.00
   31    3    4     -0.18      0.00
   32    3    4     -0.91      0.00
   29    4    4     -0.52      0.00
   30    4    4     -0.06      0.00
   31    4    4      0.71      0.00
   32    4    4      0.89      0.00
   29    5    4      0.31      0.00
   30    5    4     -0.25      0.00
   31    5    4     -0.76      0.00
   32    5    4     -0.02      0.00
   29    6    4     -0.02      0.00
   30    6    4      0.81      0.00
   31    6    4     -1.01      0.00
   32    6    4      0.63      0.00
   29    7    4     -0.72      0.00
   30    7    4      1.55      0.00
   31    7    4     -0.68      0.00
   32    7    4      1.85      0.00
   28    8    4      0.52      0.00
   29    8    4     -1.53      0.00
   30    8    4      0.07      0.00
   31    8    4     -1.50      0.00
   28    9    4      1.74      0.00
   29    9    4      0.63      0.00
   30    9    4      0.62      0.00
   31    9    4      1.52      0.00
   28   10    4     -1.17      0.00
   29   10    4     -0.43      0.00
   30   10    4     -1.88      0.00
   31   10    4      0.95      0.00
   27   11    4      1.57      0.00
   28   11    4      0.46      0.00
   29   11    4      2.05      0.00
   30   11    4     -0.73      0.00
   31   11    4     -0.01      0.00
   27   12    4      0.56      0.00
   28   12    4     -2.07      0.00
   29   12    4     -0.15      0.00
   30   12    4      0.61      0.00
   27   13    4      0.87      0.00
   28   13    4     -0.13      0.00
   29   13    4     -1.04      0.00
   30   13    4      0.21      0.00
   26   14    4      1.58      0.00
   27   14    4      1.08      0.00
   28   14    4      2.25      0.00
   29   14    4      0.10      0.00
   26   15    4     -0.77      0.00
   27   15    4     -3.52      0.00
   28   15    4     -1.08      0.00
   29   15    4     -2.93      0.00
   25   16    4     -0.01      0.00
   26   16    4      3.16      0.00
   27   16    4      0.78      0.00
   28   16    4      2.64      0.00
   29   16    4      0.96      0.00
   24   17    4     -0.72      0.00
   25   17    4     -1.07      0.00
   26   17    4      0.27      0.00
   27   17    4     -0.95      0.00
   28   17    4     -0.61      0.00
   24   18    4     -1.28      0.00
   25   18    4     -0.14      0.00
   26   18    4     -0.63      0.00
   27   18    4     -0.19      0.00
   23   19    4      1.90      0.00
   24   19    4     -0.41      0.00
   25   19    4      1.38      0.00
   26   19    4      0.17      0.00
   27   19    4      1.24      0.00
   22   20    4     -0.84      0.00
   23   20    4     -0.43      0.00
   24   20    4     -1.12      0.00
   25   20    4      0.33      0.00
   26   20    4     -1.12      0.00
   21   21    4      0.89      0.00
   22   21    4      1.52      0.00
   23   21    4     -0.12      0.00
   24   21    4     -0.63      0.00
   25   21    4      0.78      0.00
   20   22    4     -2.09      0.00
   21   22    4     -0.19      0.00
   22   22    4      0.17      0.00
   23   22    4      0.96      0.00
   24   22    4      0.35      0.00
   25   22    4      0.78      0.00
   18   23    4     -1.93      0.00
   19   23    4      1.14      0.00
   20   23    4     -2.56      0.00
   21   23    4      1.68      0.00
   22   23    4     -1.68      0.00
   23   23    4     -0.44      0.00
   24   23    4     -1.57      0.00
   17   24    4     -3.80      0.00
   18   24    4     -0.51      0.00
   19   24    4      1.44      0.00
   20   24    4     -2.57      0.00
   21   24    4      2.00      0.00
   22   24    4     -1.65      0.00
   23   24    4      1.28      0.00
   15   25    4      7.63      0.00
   16   25    4      3.80      0.00
   17   25    4      4.41      0.00
   18   25    4      3.49      0.00
   19   25    4      2.82      0.00
   20   25    4      0.43      0.00
   21   25    4      3.07      0.00
   22   25    4      0.10      0.00
   14   26    4      2.27      0.00
   15   26    4      7.96      0.00
   16   26    4     -5.41      0.00
   17   26    4     -2.23      0.00
   18   26    4     -4.50      0.00
   19   26    4     -4.47      0.00
   20   26    4     -3.04      0.00
   21   26    4     -2.33      0.00
    1   27    4      1.41      0.00
   12   27    4     -4.09      0.00
   14   27    4    -12.49      0.00
   15   27    4     -3.15      0.00
   16   27    4     -7.05      0.00
   17   27    4      2.74      0.00
   18   27    4      3.14      0.00
   19   27    4      2.93      0.00
   20   27    4      4.59      0.00
   10   28    4     -6.27      0.00
   11   28    4    -17.18      0.00
   12   28    4      6.49      0.00
   13   28    4     -5.35      0.00
   14   28    4      8.08      0.00
   15   28    4      6.89      0.00
   16   28    4      4.39      0.00
   17   28    4      3.37      0.00
   18   28    4      0.07      0.00
   19   28    4     -3.29      0.00
    8   29    4      0.26      0.00
    9   29    4      7.52      0.00
   10   29    4     13.75      0.00
   11   29    4      6.80      0.00
   12   29    4     22.18      0.00
   13   29    4      2.48      0.00
   14   29    4      9.93      0.00
   15   29    4     -5.17      0.00
   16   29    4     -2.06      0.00
   17   29    4     -5.54      0.00
    3   30    4    -17.73      0.00
    4   30    4     17.55      0.00
    5   30    4    -27.74      0.00
    6   30    4     17.41      0.00
    7   30    4     -3.71      0.00
    8   30    4      9.02      0.00
    9   30    4      6.71      0.00
   10   30    4     -5.32      0.00
   11   30    4    -10.57      0.00
   12   30    4    -14.16      0.00
   13   30    4    -19.68      0.00
   14   30    4     -5.77      0.00
   15   30    4     -9.25      0.00
   16   30    4      4.56      0.00
    1   31    4      3.37      0.00
    2   31    4    -10.84      0.00
    3   31    4     -8.78      0.00
    4   31    4     12.88      0.00
    5   31    4    -21.14      0.00
    6   31    4     13.53      0.00
    7   31    4    -19.97      0.00
    8   31    4    -11.92      0.00
    9   31    4     -5.77      0.00
   10   31    4    -12.80      0.00
   11   31    4     11.02      0.00
   12   31    4      5.78      0.00
   13   31    4     13.59      0.00
   14   31    4     12.31      0.00
    0   32    4     -3.50      0.00
    1   32    4     16.66      0.00
    2   32    4     -3.06      0.00
    3   32    4     18.59      0.00
    4   32    4      6.21      0.00
    5   32    4     -3.50      0.00
    6   32    4     14.20      0.00
    7   32    4      3.36      0.00
    8   32    4      9.32      0.00
    9   32    4     17.07      0.00
   10   32    4     -1.91      0.00
   11   32    4     10.90      0.00
   12   32    4     -8.47      0.00
    1   33    4      4.19      0.00
    2   33    4    -25.13      0.00
    3   33    4      6.79      0.00
    4   33    4    -15.84      0.00
    5   33    4     -1.19      0.00
    6   33    4     -3.09      0.00
    7   33    4     -5.22      0.00
    8   33    4     -6.82      0.00
    9   33    4     -0.85      0.00
    0   34    4      0.79      0.00
    1   34    4      7.60      0.00
    2   34    4     -5.90      0.00
    3   34    4     15.36      0.00
    4   34    4     -7.25      0.00
    5   34    4      7.55      0.00
   28    0    5      3.87      0.00
   30    0    5      1.30      0.00
   27    1    5     -2.23      0.00
   28    1    5     -0.56      0.00
   29    1    5     -3.11      0.00
   30    1    5      2.15      0.00
   27    2    5      2.48      0.00
   28    2    5      2.33      0.00
   29    2    5     -1.62      0.00
   30    2    5      1.05      0.00
   27    3    5      0.06      0.00
   28    3    5     -1.25      0.00
   29    3    5     -0.72      0.00
   30    3    5      2.50      0.00
   27    4    5      2.42      0.00
   28    4    5     -0.73      0.00
   29    4    5     -0.16      0.00
   30    4    5     -0.90      0.00
   27    5    5      0.95      0.00
   28    5    5     -1.03      0.00
   29    5    5      1.52      0.00
   30    5    5     -0.03      0.00
   26    6    5     -0.36      0.00
   27    6    5     -0.43      0.00
   28    6    5     -1.01      0.00
   29    6    5      0.31      0.00
   30    6    5     -0.35      0.00
   26    7    5      2.49      0.00
   27    7    5     -0.13      0.00
   28    7    5      0.57      0.00
   29    7    5      0.23      0.00
   30    7    5      0.41      0.00
   26    8    5      0.79      0.00
   27    8    5     -0.72      0.00
   28    8    5      0.38      0.00
   29    8    5     -1.06      0.00
   25    9    5     -0.83      0.00
   26    9    5     -0.87      0.00
   27    9    5     -1.61      0.00
   28    9    5      0.58      0.00
   29    9    5      0.60      0.00
   25   10    5      2.65      0.00
   26   10    5      2.00      0.00
   27   10    5      1.17      0.00
   28   10    5      0.05      0.00
   29   10    5     -1.13      0.00
   25   11    5     -0.84      0.00
   26   11    5     -2.36      0.00
   27   11    5      0.14      0.00
   28   11    5      0.63      0.00
   24   12    5     -0.46      0.00
   25   12    5      1.82      0.00
   26   12    5     -1.86      0.00
   27   12    5     -0.29      0.00
   28   12    5     -0.90      0.00
   24   13    5     -0.16      0.00
   25   13    5      2.09      0.00
   26   13    5      0.41      0.00
   27   13    5      2.27      0.00
   28   13    5      0.30      0.00
   24   14    5      0.50      0.00
   25   14    5     -1.08      0.00
   26   14    5     -1.07      0.00
   27   14    5      0.10      0.00
   23   15    5     -3.01      0.00
   24   15    5      1.93      0.00
   25   15    5     -2.49      0.00
   26   15    5     -0.04      0.00
   27   15    5     -0.64      0.00
   22   16    5      2.87      0.00
   23   16    5     -1.39      0.00
   24   16    5      4.07      0.00
   25   16    5     -0.92      0.00
   26   16    5      2.65      0.00
   22   17    5     -0.76      0.00
   23   17    5     -1.73      0.00
   24   17    5      1.00      0.00
   25   17    5     -1.97      0.00
   26   17    5     -0.11      0.00
   21   18    5      1.67      0.00
   22   18    5     -1.66      0.00
   23   18    5      0.87      0.00
   24   18    5     -1.00      0.00
   25   18    5     -0.24      0.00
   20   19    5     -0.51      0.00
   21   19    5      2.45      0.00
   22   19    5     -2.17      0.00
   23   19    5      3.19      0.00
   24   19    5     -0.62      0.00
   19   20    5      0.66      0.00
   20   20    5     -0.52      0.00
   21   20    5      1.18      0.00
   22   20    5     -2.72      0.00
   23   20    5      1.23      0.00
   24   20    5     -0.37      0.00
   18   21    5     -2.80      0.00
   19   21    5     -1.08      0.00
   20   21    5     -0.34      0.00
   21   21    5      0.43      0.00
   22   21    5     -0.53      0.00
   23   21    5     -0.15      0.00
   17   22    5      2.50      0.00
   18   22    5      0.96      0.00
   19   22    5      0.95      0.00
   20   22    5      0.74      0.00
   21   22    5     -0.47      0.00
   22   22    5      0.01      0.00
   15   23    5     -3.49      0.00
   16   23    5      0.79      0.00
   17   23    5     -1.15      0.00
   18   23    5     -0.08      0.00
   19   23    5      0.91      0.00
   20   23    5      1.38      0.00
   21   23    5      0.53      0.00
   13   24    5     -2.53      0.00
   14   24    5     -0.85      0.00
   15   24    5     -0.59      0.00
   16   24    5      2.31      0.00
   17   24    5     -2.46      0.00
   18   24    5     -3.07      0.00
   19   24    5     -3.28      0.00
   20   24    5     -1.92      0.00
   11   25    5     -1.47      0.00
   12   25    5     -0.10      0.00
   13   25    5      3.35      0.00
   14   25    5     -5.44      0.00
   15   25    5     -2.46      0.00
   16   25    5      1.11      0.00
   17   25    5      2.62      0.00
   18   25    5      5.24      0.00
   19   25    5      4.00      0.00
    9   26    5     19.33      0.00
   10   26    5      2.22      0.00
   11   26    5      2.73      0.00
   12   26    5      0.55      0.00
   13   26    5      9.01      0.00
   14   26    5      2.35      0.00
   15   26    5      5.85      0.00
   16   26    5     -0.05      0.00
   17   26    5     -3.90      0.00
   18   26    5     -4.81      0.00
    3   27    5    -25.39      0.00
    4   27    5     22.84      0.00
    5   27    5      2.84      0.00
    6   27    5     -2.85      0.00
    7   27    5     27.82      0.00
    8   27    5    -25.15      0.00
    9   27    5     10.10      0.00
   10   27    5     -5.89      0.00
   11   27    5     -3.10      0.00
   12   27    5     -3.00      0.00
   13   27    5     -4.14      0.00
   14   27    5    -10.04      0.00
   15   27    5     -2.24      0.00
   16   27    5     -0.93      0.00
    0   28    5      9.03      0.00
    1   28    5     11.54      0.00
    2   28    5     21.28      0.00
    3   28    5    -10.05      0.00
    4   28    5     19.69      0.00
    5   28    5    -29.65      0.00
    6   28    5     -9.16      0.00
    7   28    5      1.20      0.00
    8   28    5    -16.12      0.00
    9   28    5      5.59      0.00
   10   28    5     -2.57      0.00
   11   28    5     -6.30      0.00
   12   28    5      4.59      0.00
   13   28    5      4.15      0.00
   14   28    5      3.10      0.00
   15   28    5      4.06      0.00
    1   29    5     -1.08      0.00
    2   29    5    -19.74      0.00
    3   29    5     -9.54      0.00
    4   29    5     25.62      0.00
    5   29    5     -8.68      0.00
    6   29    5     29.60      0.00
    7   29    5      2.67      0.00
    8   29    5      3.23      0.00
    9   29    5      6.88      0.00
   10   29    5      7.75      0.00
   11   29    5      0.39      0.00
   12   29    5      5.37      0.00
   13   29    5     -2.05      0.00
    0   30    5    -13.32      0.00
    1   30    5     24.56      0.00
    2   30    5    -15.49      0.00
    3   30    5      8.69      0.00
    4   30    5     -4.57      0.00
    5   30    5    -31.94      0.00
    6   30    5      9.14      0.00
    7   30    5    -15.31      0.00
    8   30    5      0.38      0.00
    9   30    5     -2.07      0.00
   10   30    5     -6.29      0.00
   11   30    5     -6.70      0.00
    1   31    5     14.27      0.00
    2   31    5    -29.46      0.00
    3   31    5     24.39      0.00
    4   31    5      4.53      0.00
    5   31    5      0.95      0.00
    6   31    5     15.82      0.00
    7   31    5    -10.77      0.00
    8   31    5     -1.99      0.00
    0   32    5      9.60      0.00
    1   32    5     17.80      0.00
    2   32    5    -12.32      0.00
    3   32    5     18.00      0.00
    4   32    5    -15.68      0.00
   24    0    6     -0.21      0.00
   26    0    6      2.24      0.00
   28    0    6      1.97      0.00
   24    1    6      1.42      0.00
   25    1    6     -1.10      0.00
   26    1    6     -0.42      0.00
   27    1    6     -1.93      0.00
   28    1    6     -0.57      0.00
   24    2    6      1.17      0.00
   25    2    6      1.14      0.00
   26    2    6      1.35      0.00
   27    2    6      1.53      0.00
   28    2    6      0.90      0.00
   24    3    6     -2.60      0.00
   25    3    6     -1.42      0.00
   26    3    6     -3.04      0.00
   27    3    6     -0.07      0.00
   24    4    6      2.42      0.00
   25    4    6      4.30      0.00
   26    4    6     -0.03      0.00
   27    4    6      1.23      0.00
   23    5    6     -2.69      0.00
   24    5    6     -3.00      0.00
   25    5    6     -0.26      0.00
   26    5    6     -0.61      0.00
   27    5    6      0.99      0.00
   23    6    6      0.63      0.00
   24    6    6      0.75      0.00
   25    6    6     -1.38      0.00
   26    6    6     -1.57      0.00
   27    6    6     -1.55      0.00
   23    7    6     -0.70      0.00
   24    7    6      2.46      0.00
   25    7    6      1.61      0.00
   26    7    6      3.23      0.00
   27    7    6      0.43      0.00
   23    8    6     -0.17      0.00
   24    8    6     -0.81      0.00
   25    8    6     -2.88      0.00
   26    8    6     -1.00      0.00
   27    8    6     -0.20      0.00
   22    9    6     -2.83      0.00
   23    9    6      1.49      0.00
   24    9    6      0.84      0.00
   25    9    6      0.21      0.00
   26    9    6     -0.73      0.00
   22   10    6     -3.11      0.00
   23   10    6      0.13      0.00
   24   10    6     -0.60      0.00
   25   10    6      1.27      0.00
   26   10    6      1.16      0.00
   22   11    6      1.53      0.00
   23   11    6      2.55      0.00
   24   11    6      0.01      0.00
   25   11    6      0.03      0.00
   26   11    6     -2.55      0.00
   21   12    6     -4.06      0.00
   22   12    6     -2.90      0.00
   23   12    6     -1.53      0.00
   24   12    6     -2.44      0.00
   25   12    6      0.50      0.00
   20   13    6      4.51      0.00
   21   13    6      1.49      0.00
   22   13    6      1.84      0.00
   23   13    6      2.70      0.00
   24   13    6      0.70      0.00
   25   13    6      2.53      0.00
   20   14    6     -0.51      0.00
   21   14    6     -1.34      0.00
   22   14    6     -0.61      0.00
   23   14    6      0.02      0.00
   24   14    6     -1.84      0.00
   19   15    6      0.33      0.00
   20   15    6      0.96      0.00
   21   15    6     -1.25      0.00
   22   15    6     -0.82      0.00
   23   15    6     -0.46      0.00
   24   15    6      0.39      0.00
   18   16    6     -1.19      0.00
   19   16    6     -1.56      0.00
   20   16    6      1.73      0.00
   21   16    6      0.74      0.00
   22   16    6      1.68      0.00
   23   16    6      0.37      0.00
   18   17    6      2.68      0.00
   19   17    6     -0.55      0.00
   20   17    6     -0.01      0.00
   21   17    6     -1.51      0.00
   22   17    6     -0.84      0.00
   23   17    6     -0.93      0.00
   17   18    6     -2.81      0.00
   18   18    6     -1.48      0.00
   19   18    6     -0.36      0.00
   20   18    6      0.70      0.00
   21   18    6      1.12      0.00
   22   18    6     -0.28      0.00
   16   19    6      3.07      0.00
   17   19    6      1.75      0.00
   18   19    6     -0.88      0.00
   19   19    6     -0.02      0.00
   20   19    6     -1.53      0.00
   21   19    6      0.47      0.00
   14   20    6      0.76      0.00
   15   20    6     -4.95      0.00
   16   20    6     -0.09      0.00
   17   20    6      2.03      0.00
   18   20    6      0.38      0.00
   19   20    6      3.31      0.00
   20   20    6      0.47      0.00
   13   21    6     -0.85      0.00
   14   21    6      5.20      0.00
   15   21    6     -0.80      0.00
   16   21    6     -0.42      0.00
   17   21    6     -1.26      0.00
   18   21    6     -5.62      0.00
   19   21    6     -1.49      0.00
   11   22    6     -1.22      0.00
   12   22    6      3.03      0.00
   13   22    6     -3.93      0.00
   14   22    6      0.61      0.00
   15   22    6     -1.62      0.00
   16   22    6      1.76      0.00
   17   22    6      5.70      0.00
   18   22    6      1.52      0.00
    9   23    6     -2.43      0.00
   10   23    6     18.80      0.00
   11   23    6     -5.00      0.00
   12   23    6      8.97      0.00
   13   23    6     -0.41      0.00
   14   23    6      1.71      0.00
   15   23    6     -2.25      0.00
   16   23    6     -4.34      0.00
   17   23    6     -1.87      0.00
    0   24    6      0.88      0.00
    1   24    6     -3.65      0.00
    5   24    6     -0.45      0.00
    6   24    6     -2.60      0.00
    7   24    6     -9.58      0.00
    8   24    6     -3.08      0.00
    9   24    6    -21.70      0.00
   10   24    6      3.29      0.00
   11   24    6    -16.63      0.00
   12   24    6     -0.67      0.00
   13   24    6     -2.99      0.00
   14   24    6      1.59      0.00
   15   24    6      4.03      0.00
   16   24    6      4.48      0.00
    1   25    6     16.66      0.00
    2   25    6     17.15      0.00
    3   25    6      4.06      0.00
    4   25    6     10.83      0.00
    5   25    6      3.70      0.00
    6   25    6     -2.78      0.00
    7   25    6      7.60      0.00
    8   25    6     -0.04      0.00
    9   25    6      1.26      0.00
   10   25    6      8.27      0.00
   11   25    6      2.39      0.00
   12   25    6      3.69      0.00
   13   25    6      1.86      0.00
   14   25    6     -3.94      0.00
   15   25    6     -6.45      0.00
    0   26    6    -21.25      0.00
    1   26    6    -11.09      0.00
    2   26    6    -14.16      0.00
    3   26    6    -20.48      0.00
    4   26    6     -6.16      0.00
    5   26    6     -4.27      0.00
    6   26    6     -9.30      0.00
    7   26    6     15.83      0.00
    8   26    6     -6.07      0.00
    9   26    6     14.65      0.00
   10   26    6     -3.23      0.00
   11   26    6      4.49      0.00
   12   26    6     -5.14      0.00
   13   26    6      4.17      0.00
    1   27    6      7.61      0.00
    2   27    6      9.38      0.00
    3   27    6      1.00      0.00
    4   27    6     12.70      0.00
    5   27    6      3.11      0.00
    6   27    6     -4.55      0.00
    7   27    6      6.44      0.00
    8   27    6    -22.74      0.00
    9   27    6      3.29      0.00
   10   27    6    -16.66      0.00
   11   27    6      4.43      0.00
    0   28    6      1.50      0.00
    1   28    6      5.37      0.00
    2   28    6      4.40      0.00
    3   28    6     -0.33      0.00
    4   28    6      6.70      0.00
    5   28    6     -9.84      0.00
    6   28    6      0.62      0.00
    7   28    6      5.02      0.00
    8   28    6     -1.75      0.00
    9   28    6     15.52      0.00
    1   29    6      2.09      0.00
    2   29    6    -16.11      0.00
    3   29    6     -4.39      0.00
    4   29    6      2.89      0.00
    5   29    6     -5.54      0.00
   20    0    7      3.60      0.00
   22    0    7      2.29      0.00
   24    0    7     -1.53      0.00
   20    1    7     -1.24      0.00
   21    1    7     -4.48      0.00
   22    1    7      1.72      0.00
   23    1    7      0.84      0.00
   24    1    7      0.17      0.00
   20    2    7      2.97      0.00
   21    2    7      0.05      0.00
   22    2    7      0.46      0.00
   23    2    7     -0.89      0.00
   24    2    7     -0.28      0.00
   20    3    7     -3.14      0.00
   21    3    7      0.56      0.00
   22    3    7      0.43      0.00
   23    3    7      0.71      0.00
   24    3    7     -3.08      0.00
   19    4    7      2.39      0.00
   20    4    7     -1.59      0.00
   21    4    7      0.18      0.00
   22    4    7     -2.55      0.00
   23    4    7      2.19      0.00
   24    4    7      2.45      0.00
   19    5    7      0.37      0.00
   20    5    7      0.20      0.00
   21    5    7      3.69      0.00
   22    5    7      0.25      0.00
   23    5    7     -1.30      0.00
   24    5    7     -3.11      0.00
   19    6    7      0.31      0.00
   20    6    7     -2.32      0.00
   21    6    7     -1.13      0.00
   22    6    7      1.00      0.00
   23    6    7      1.37      0.00
   24    6    7      2.56      0.00
   19    7    7      0.92      0.00
   20    7    7     -1.39      0.00
   21    7    7     -1.97      0.00
   22    7    7     -1.37      0.00
   23    7    7     -3.22      0.00
   18    8    7     -1.36      0.00
   19    8    7      3.87      0.00
   20    8    7      2.34      0.00
   21    8    7      3.40      0.00
   22    8    7      3.47      0.00
   23    8    7      2.66      0.00
   18    9    7     -1.88      0.00
   19    9    7     -1.97      0.00
   20    9    7     -3.43      0.00
   21    9    7     -1.36      0.00
   22    9    7     -3.34      0.00
   23    9    7      0.72      0.00
   17   10    7     -2.14      0.00
   18   10    7      2.50      0.00
   19   10    7     -0.41      0.00
   20   10    7     -1.17      0.00
   21   10    7      1.28      0.00
   22   10    7     -2.72      0.00
   16   11    7      2.41      0.00
   17   11    7     -3.53      0.00
   18   11    7      3.23      0.00
   19   11    7      1.48      0.00
   20   11    7      2.35      0.00
   21   11    7      4.54      0.00
   22   11    7      1.67      0.00
   15   12    7     -1.81      0.00
   16   12    7      1.88      0.00
   17   12    7     -0.76      0.00
   18   12    7     -0.27      0.00
   19   12    7     -2.81      0.00
   20   12    7     -4.07      0.00
   21   12    7     -3.00      0.00
   15   13    7      3.21      0.00
   16   13    7     -2.04      0.00
   17   13    7      0.48      0.00
   18   13    7     -1.25      0.00
   19   13    7      2.37      0.00
   20   13    7      2.04      0.00
   21   13    7      0.79      0.00
   14   14    7     -5.73      0.00
   15   14    7     -0.14      0.00
   16   14    7     -3.01      0.00
   17   14    7      4.16      0.00
   18   14    7     -1.59      0.00
   19   14    7      0.17      0.00
   20   14    7      0.38      0.00
   13   15    7      0.88      0.00
   14   15    7      1.36      0.00
   15   15    7      3.66      0.00
   16   15    7     -2.95      0.00
   17   15    7      2.49      0.00
   18   15    7      0.22      0.00
   19   15    7     -0.37      0.00
   20   15    7      0.32      0.00
   12   16    7      3.51      0.00
   13   16    7      3.53      0.00
   14   16    7      0.70      0.00
   15   16    7      3.09      0.00
   16   16    7     -2.65      0.00
   17   16    7     -2.91      0.00
   18   16    7     -0.71      0.00
   19   16    7     -2.13      0.00
   11   17    7      2.51      0.00
   12   17    7     -5.78      0.00
   13   17    7     -3.56      0.00
   14   17    7     -6.22      0.00
   15   17    7     -0.27      0.00
   16   17    7      2.85      0.00
   17   17    7      1.71      0.00
   18   17    7      4.59      0.00
    9   18    7     -8.72      0.00
   10   18    7    -11.29      0.00
   11   18    7     -0.34      0.00
   12   18    7     -2.26      0.00
   13   18    7      5.49      0.00
   14   18    7      2.87      0.00
   15   18    7     -0.61      0.00
   16   18    7     -0.95      0.00
   17   18    7     -4.28      0.00
    1   19    7     -6.57      0.00
    7   19    7     -9.21      0.00
    8   19    7      7.35      0.00
    9   19    7      8.39      0.00
   10   19    7      3.71      0.00
   11   19    7      9.69      0.00
   12   19    7     -1.44      0.00
   13   19    7     -1.02      0.00
   14   19    7      1.66      0.00
   15   19    7     -0.67      0.00
   16   19    7      3.03      0.00
    0   20    7     -8.66      0.00
    1   20    7     -1.64      0.00
    2   20    7     -8.85      0.00
    4   20    7     -0.75      0.00
    5   20    7      5.06      0.00
    6   20    7     10.52      0.00
    7   20    7      3.36      0.00
    8   20    7      1.59      0.00
    9   20    7      2.34      0.00
   10   20    7     -7.89      0.00
   11   20    7      2.64      0.00
   12   20    7     -1.28      0.00
   13   20    7     -3.65      0.00
   14   20    7      1.13      0.00
   15   20    7     -4.85      0.00
    1   21    7      7.48      0.00
    2   21    7      3.56      0.00
    3   21    7      5.31      0.00
    4   21    7     -4.04      0.00
    5   21    7     -3.18      0.00
    6   21    7     -8.74      0.00
    7   21    7     -4.15      0.00
    8   21    7     -6.10      0.00
    9   21    7      1.36      0.00
   10   21    7     -5.18      0.00
   11   21    7     -1.11      0.00
   12   21    7      1.61      0.00
   13   21    7     -1.85      0.00
   14   21    7      6.95      0.00
    0   22    7     10.28      0.00
    1   22    7     -3.31      0.00
    2   22    7      7.47      0.00
    3   22    7     -1.45      0.00
    4   22    7      4.03      0.00
    5   22    7      5.31      0.00
    6   22    7      1.09      0.00
    7   22    7      0.08      0.00
    8   22    7     -0.39      0.00
    9   22    7     -3.22      0.00
   10   22    7      4.10      0.00
   11   22    7     -2.25      0.00
   12   22    7      4.32      0.00
   13   22    7     -5.59      0.00
    1   23    7    -22.93      0.00
    2   23    7      6.13      0.00
    3   23    7    -14.09      0.00
    4   23    7      1.54      0.00
    5   23    7     -2.62      0.00
    6   23    7      6.71      0.00
    7   23    7      3.39      0.00
    8   23    7     17.26      0.00
    9   23    7     -2.01      0.00
   10   23    7     12.08      0.00
   11   23    7     -5.72      0.00
    0   24    7     19.74      0.00
    1   24    7     -5.67      0.00
    2   24    7     15.56      0.00
    3   24    7     -8.19      0.00
    4   24    7      5.17      0.00
    5   24    7     -7.95      0.00
    6   24    7     -4.77      0.00
    7   24    7    -20.03      0.00
    8   24    7     -3.32      0.00
    9   24    7    -20.02      0.00
    1   25    7     -1.88      0.00
    2   25    7      9.96      0.00
    3   25    7     -0.09      0.00
    4   25    7      7.17      0.00
    5   25    7      5.52      0.00
    6   25    7     10.56      0.00
   12    0    8      9.69      0.00
   14    0    8     13.54      0.00
   16    0    8     -1.17      0.00
   18    0    8     -3.92      0.00
   12    1    8     -8.23      0.00
   13    1    8     -9.23      0.00
   14    1    8      4.18      0.00
   15    1    8     -6.34      0.00
   16    1    8      8.80      0.00
   17    1    8      5.04      0.00
   18    1    8     -0.72      0.00
   19    1    8     -0.94      0.00
   12    2    8     -3.18      0.00
   13    2    8      5.18      0.00
   14    2    8      4.97      0.00
   15    2    8    -12.79      0.00
   16    2    8     -0.84      0.00
   17    2    8     -5.63      0.00
   18    2    8     -0.74      0.00
   19    2    8      3.65      0.00
   12    3    8     -6.23      0.00
   13    3    8      6.34      0.00
   14    3    8      1.69      0.00
   15    3    8     -1.02      0.00
   16    3    8      9.98      0.00
   17    3    8     -0.85      0.00
   18    3    8     -1.73      0.00
   19    3    8     -2.95      0.00
    2    4    8    -17.24      0.00
   12    4    8    -12.36      0.00
   13    4    8      4.83      0.00
   14    4    8     -4.76      0.00
   15    4    8     -3.84      0.00
   16    4    8      2.78      0.00
   17    4    8     -2.25      0.00
   18    4    8      3.57      0.00
   19    4    8      1.00      0.00
    1    5    8     54.89      0.00
    2    5    8    -17.91      0.00
   12    5    8      4.81      0.00
   13    5    8      8.01      0.00
   14    5    8     -2.12      0.00
   15    5    8      0.94      0.00
   16    5    8      1.99      0.00
   17    5    8     -4.12      0.00
   18    5    8      0.47      0.00
   19    5    8      0.45      0.00
   12    6    8     -0.67      0.00
   13    6    8     -1.66      0.00
   14    6    8     -4.47      0.00
   15    6    8     -0.07      0.00
   16    6    8      0.85      0.00
   17    6    8      0.69      0.00
   18    6    8     -0.77      0.00
   19    6    8     -2.05      0.00
   11    7    8     -3.34      0.00
   12    7    8      6.50      0.00
   13    7    8     -0.83      0.00
   14    7    8      0.62      0.00
   15    7    8      3.25      0.00
   16    7    8     -2.59      0.00
   17    7    8      1.51      0.00
   18    7    8     -2.02      0.00
   10    8    8     -7.27      0.00
   11    8    8     -5.99      0.00
   12    8    8      6.85      0.00
   13    8    8     -0.50      0.00
   14    8    8     -1.23      0.00
   15    8    8      3.41      0.00
   16    8    8     -2.14      0.00
   17    8    8      4.53      0.00
   18    8    8     -2.07      0.00
   10    9    8      8.18      0.00
   11    9    8     -2.87      0.00
   12    9    8     -1.68      0.00
   13    9    8     -3.76      0.00
   14    9    8     -5.39      0.00
   15    9    8      0.76      0.00
   16    9    8     -3.48      0.00
   17    9    8     -0.27      0.00
   18    9    8     -1.83      0.00
    9   10    8    -15.44      0.00
   10   10    8     -2.56      0.00
   11   10    8      0.89      0.00
   12   10    8      4.04      0.00
   13   10    8      7.40      0.00
   14   10    8      0.79      0.00
   15   10    8      3.30      0.00
   16   10    8      1.88      0.00
   17   10    8     -1.97      0.00
    8   11    8     16.49      0.00
    9   11    8     -1.59      0.00
   10   11    8      2.64      0.00
   11   11    8     -2.49      0.00
   12   11    8     -4.78      0.00
   13   11    8      0.37      0.00
   14   11    8     -3.30      0.00
   15   11    8     -0.88      0.00
   16   11    8      3.18      0.00
    6   12    8      6.15      0.00
    7   12    8     -5.67      0.00
    8   12    8      8.70      0.00
    9   12    8     -0.52      0.00
   10   12    8      4.79      0.00
   11   12    8      0.67      0.00
   12   12    8     -1.16      0.00
   13   12    8     -1.39      0.00
   14   12    8     -2.08      0.00
   15   12    8     -2.04      0.00
   16   12    8     -0.33      0.00
    1   13    8      0.66      0.00
    2   13    8    -12.11      0.00
    3   13    8     -4.58      0.00
    4   13    8    -14.41      0.00
    5   13    8     -9.63      0.00
    6   13    8     -8.04      0.00
    7   13    8    -10.10      0.00
    8   13    8     -9.30      0.00
    9   13    8     -6.49      0.00
   10   13    8     -4.16      0.00
   11   13    8     -1.26      0.00
   12   13    8      6.13      0.00
   13   13    8      2.06      0.00
   14   13    8      4.24      0.00
   15   13    8      2.31      0.00
    0   14    8     -1.11      0.00
    1   14    8      6.41      0.00
    2   14    8      2.53      0.00
    3   14    8     14.60      0.00
    4   14    8      7.97      0.00
    5   14    8     14.32      0.00
    6   14    8      7.66      0.00
    7   14    8     17.43      0.00
    8   14    8      3.19      0.00
    9   14    8     14.06      0.00
   10   14    8      1.58      0.00
   11   14    8     -1.80      0.00
   12   14    8      2.28      0.00
   13   14    8     -6.21      0.00
   14   14    8     -0.77      0.00
    1   15    8      6.81      0.00
    2   15    8     -6.60      0.00
    3   15    8      2.76      0.00
    4   15    8    -11.54      0.00
    5   15    8     -2.71      0.00
    6   15    8    -16.79      0.00
    7   15    8     -0.43      0.00
    8   15    8    -18.48      0.00
    9   15    8      3.08      0.00
   10   15    8     -7.21      0.00
   11   15    8     -3.05      0.00
   12   15    8      1.62      0.00
   13   15    8     -4.41      0.00
    0   16    8     -0.97      0.00
    1   16    8     -1.18      0.00
    2   16    8     -4.80      0.00
    3   16    8      3.96      0.00
    4   16    8     -2.65      0.00
    5   16    8     10.88      0.00
    6   16    8      2.22      0.00
    7   16    8     13.19      0.00
    8   16    8     -4.19      0.00
    9   16    8      8.33      0.00
   10   16    8     -3.51      0.00
   11   16    8      3.57      0.00
   12   16    8      4.87      0.00
    1   17    8    -12.58      0.00
    2   17    8      2.93      0.00
    3   17    8     -1.21      0.00
    4   17    8     -5.03      0.00
    5   17    8     -4.40      0.00
    6   17    8     -6.73      0.00
    7   17    8     -3.01      0.00
    8   17    8     -1.35      0.00
    9   17    8      7.09      0.00
   10   17    8     -1.14      0.00
   11   17    8      2.87      0.00
    0   18    8     24.45      0.00
    1   18    8     -4.36      0.00
    2   18    8     12.77      0.00
    3   18    8     -0.71      0.00
    4   18    8      3.84      0.00
    5   18    8      4.87      0.00
    6   18    8      8.04      0.00
    7   18    8     -2.65      0.00
    8   18    8     -0.94      0.00
    9   18    8     -4.43      0.00
   10   18    8     -8.29      0.00
    1   19    8    -13.14      0.00
    2   19    8      5.62      0.00
    3   19    8     -1.04      0.00
    4   19    8     -3.00      0.00
    5   19    8     -2.37      0.00
    6   19    8     -0.37      0.00
    7   19    8     -4.16      0.00
    8   19    8      5.14      0.00
    0   20    8     -0.73      0.00
    1   20    8     -5.25      0.00
    2   20    8     -3.59      0.00
    3   20    8     -2.28      0.00
    4   20    8     -5.66      0.00
    5   20    8      3.60      0.00
    0    0    9      2.24      0.00
    2    0    9     16.05      0.00
    4    0    9      9.90      0.00
    6    0    9     -3.26      0.00
    8    0    9      6.69      0.00
   10    0    9      1.21      0.00
   12    0    9     -1.89      0.00
    1    1    9    -16.03      0.00
    2    1    9     -7.72      0.00
    3    1    9    -26.05      0.00
    4    1    9      6.40      0.00
    5    1    9     -7.56      0.00
    6    1    9     10.38      0.00
    7    1    9     -3.21      0.00
    8    1    9      5.89      0.00
    9    1    9     -3.92      0.00
   10    1    9      1.29      0.00
   11    1    9      3.90      0.00
   12    1    9     -1.71      0.00
    0    2    9     23.59      0.00
    1    2    9     11.30      0.00
    2    2    9     34.14      0.00
    3    2    9      3.73      0.00
    4    2    9     29.48      0.00
    5    2    9    -14.58      0.00
    6    2    9      9.79      0.00
    7    2    9    -10.64      0.00
    8    2    9      3.67      0.00
    9    2    9     -6.43      0.00
   10    2    9     -3.10      0.00
   11    2    9      0.70      0.00
   12    2    9     -3.31      0.00
    1    3    9    -18.42      0.00
    2    3    9    -14.47      0.00
    3    3    9    -26.21      0.00
    4    3    9      6.75      0.00
    5    3    9    -16.98      0.00
    6    3    9      9.60      0.00
    7    3    9     -5.07      0.00
    8    3    9      6.33      0.00
    9    3    9      0.13      0.00
   10    3    9      5.66      0.00
   11    3    9      2.63      0.00
   12    3    9     -1.19      0.00
    0    4    9     -9.71      0.00
    1    4    9     10.46      0.00
    2    4    9     -6.68      0.00
    3    4    9      3.97      0.00
    4    4    9     -0.60      0.00
    5    4    9     -6.23      0.00
    6    4    9      0.94      0.00
    7    4    9      0.77      0.00
    8    4    9      0.95      0.00
    9    4    9     -5.80      0.00
   10    4    9      2.99      0.00
   11    4    9     -3.76      0.00
    1    5    9     28.50      0.00
    2    5    9     -7.03      0.00
    3    5    9     28.67      0.00
    4    5    9      4.23      0.00
    5    5    9     14.86      0.00
    6    5    9     -3.07      0.00
    7    5    9      4.10      0.00
    8    5    9     -3.01      0.00
    9    5    9     -3.98      0.00
   10    5    9      6.12      0.00
   11    5    9     -6.49      0.00
    0    6    9    -18.04      0.00
    1    6    9      2.83      0.00
    2    6    9    -26.99      0.00
    3    6    9     -3.32      0.00
    4    6    9    -24.57      0.00
    5    6    9     -2.72      0.00
    6    6    9     -9.03      0.00
    7    6    9      6.63      0.00
    8    6    9     -2.34      0.00
    9    6    9     -0.72      0.00
   10    6    9      6.05      0.00
   11    6    9     -4.97      0.00
    1    7    9     -1.87      0.00
    2    7    9      4.21      0.00
    3    7    9     12.47      0.00
    4    7    9      8.42      0.00
    5    7    9      4.98      0.00
    6    7    9      0.91      0.00
    7    7    9      3.45      0.00
    8    7    9     -2.51      0.00
    9    7    9      3.42      0.00
   10    7    9      3.79      0.00
    0    8    9     16.16      0.00
    1    8    9     -4.82      0.00
    2    8    9      3.73      0.00
    3    8    9    -11.15      0.00
    4    8    9      0.19      0.00
    5    8    9     -9.81      0.00
    6    8    9      3.51      0.00
    7    8    9     -3.73      0.00
    8    8    9     -7.03      0.00
    9    8    9     -1.21      0.00
   10    8    9     -5.11      0.00
    1    9    9     -0.80      0.00
    2    9    9     11.64      0.00
    3    9    9      6.44      0.00
    4    9    9     12.76      0.00
    5    9    9     -1.88      0.00
    6    9    9     11.82      0.00
    7    9    9      1.36      0.00
    8    9    9      4.73      0.00
    9    9    9      8.52      0.00
    0   10    9    -12.68      0.00
    1   10    9     -7.00      0.00
    2   10    9    -16.96      0.00
    3   10    9    -10.54      0.00
    4   10    9    -11.54      0.00
    5   10    9    -11.18      0.00
    6   10    9     -1.17      0.00
    7   10    9    -10.73      0.00
    8   10    9     -2.99      0.00
    1   11    9     14.50      0.00
    2   11    9      5.19      0.00
    3   11    9     15.59      0.00
    4   11    9      2.30      0.00
    5   11    9      7.42      0.00
    6   11    9      7.48      0.00
    0   12    9     -2.05      0.00
    1   12    9     -0.22      0.00
    2   12    9     -3.21      0.00
    3   12    9      5.68      0.00
    4   12    9     -4.90      0.00
    5   12    9      5.28      0.00
    1   13    9     -5.32      0.00
    2   13    9     -6.89      0.00
    0    0    0      0.00      0.00
# SQUEEZE RESULTS (Version = 290617)
# Note: Data are Listed for all Voids in the P1 Unit Cell
# i.e. Centre of Gravity, Solvent Accessible Volume,
# Recovered number of Electrons in the Void and
# Details about the Squeezed Material
loop_
  _platon_squeeze_void_nr
  _platon_squeeze_void_average_x
  _platon_squeeze_void_average_y
  _platon_squeeze_void_average_z
  _platon_squeeze_void_volume
  _platon_squeeze_void_count_electrons
  _platon_squeeze_void_content
   1 -0.018  0.386  0.000       158       100 ' '
   2  0.018  0.614  0.000       159       100 ' '
   3  0.482  0.114  0.000       159       100 ' '
   4  0.518  0.886  0.000       158       100 ' '
# Missing Reflections Below sin(th)/lambda = 0.25
loop_
  _platon_missing_refln_index_h
  _platon_missing_refln_index_k
  _platon_missing_refln_index_l
  _platon_missing_refln_theta
    2    0    0     3.205
    1    1    0     2.212
    0    2    0     3.050
    0    0    1     6.023
_platon_squeeze_void_probe_radius                  1.20
_platon_squeeze_details
)
TITL exp_4318_a.res in Pbam
CELL   27.5743   28.9781    7.3466     90.00     90.00     90.00
SPGR Pbam
# Solvent Accessible Volume =       645
# Electrons Found in S.A.V. =       399
# Note: Atoms in Void are Labelled as Cxxx and Qxxx for all Others
C101 0.515 0.125 0.003 !       7.82 eA-3
Q102 0.367 0.080 0.053 !       7.78 eA-3
C103 0.907 0.422-0.004 !       7.73 eA-3
C104 0.930 0.383 0.002 !       7.39 eA-3
Q105 0.109 0.438-0.011 !       7.33 eA-3
C106 0.031 0.658 0.079 !       7.25 eA-3
Q107 0.977 0.305 0.936 !       6.98 eA-3
C108 0.080 0.305 0.032 !       6.90 eA-3
Q109 0.875 0.393 0.060 !       6.60 eA-3
Q110 0.875 0.492 0.001 !       6.49 eA-3
C111 0.023 0.337 0.029 !       6.21 eA-3
Q112 0.623 0.031 0.128 !       6.07 eA-3
Q113 0.930 0.602 0.005 !       6.07 eA-3
C114 0.469 0.124-0.021 !       6.02 eA-3
C115 0.039 0.585 0.061 !       5.85 eA-3
Q116 0.164 0.565 0.180 !       5.83 eA-3
C117 0.508 0.086 0.012 !       5.83 eA-3
Q118 0.469 0.046 0.005 !       5.74 eA-3
Q119 0.148 0.539 0.079 !       5.65 eA-3
Q120 0.150 0.477-0.014 !       5.60 eA-3
Q121 0.469 0.149 0.779 !       5.53 eA-3
Q122 0.984 0.581 0.125 !       5.44 eA-3
Q123 0.664 0.979 0.176 !       5.35 eA-3
Q124 0.999 0.555-0.013 !       5.22 eA-3
Q125 0.907 0.039-0.006 !       5.22 eA-3
Q126 0.360 0.097 0.770 !       5.10 eA-3
Q127 0.623 0.531 0.880 !       5.09 eA-3
Q128 0.969 0.390 0.768 !       5.08 eA-3
Q129 0.914 0.454 0.025 !       5.08 eA-3
Q130 0.024 0.352 0.842 !       5.06 eA-3
Q131 0.016 0.321 0.182 !       4.82 eA-3
Q132 0.008 0.682 0.198 !       4.73 eA-3
Q133 0.094 0.469 0.017 !       4.60 eA-3
Q134 0.164 0.596 0.193 !       4.59 eA-3
Q135 0.914 0.376 0.844 !       4.58 eA-3
Q136 0.977 0.615 0.131 !       4.52 eA-3
Q137 1.000 0.649 0.180 !       4.49 eA-3
C138 0.938 0.626 0.112 !       4.45 eA-3
C139 0.407 0.873 0.876 !       4.44 eA-3
Q140 0.390 0.093 0.809 !       4.37 eA-3
Q141 0.031 0.546 0.125 !       4.33 eA-3
C142 0.929 0.666 0.890 !       4.32 eA-3
Q143 0.054 0.413 0.876 !       4.30 eA-3
Q144 0.078 0.387 0.246 !       4.27 eA-3
Q145 0.454 0.937-0.013 !       4.22 eA-3
Q146 0.414 0.150 0.002 !       4.15 eA-3
Q147 0.461 0.080 0.775 !       4.08 eA-3
C148 0.437 0.126 0.106 !       4.06 eA-3
Q149 0.367 0.343-0.015 !       3.76 eA-3
Q150 0.500 0.046 0.874 !       3.75 eA-3
Q151 0.961 0.899-0.003 !       3.72 eA-3
Q152 0.508 0.553 0.820 !       3.71 eA-3
Q153 0.891 0.070 0.015 !       3.66 eA-3
Q154 0.961 0.453 0.505 !       3.59 eA-3
Q155 0.016 0.109-0.010 !       3.50 eA-3
Q156 0.015 0.576 0.766 !       3.50 eA-3
Q157 0.977 0.711 0.812 !       3.46 eA-3
Q158 0.125 0.627 0.788 !       3.44 eA-3
Q159 0.609 0.875 0.169 !       3.41 eA-3
C160 0.601 0.156 0.779 !       3.40 eA-3
Q161 0.407 0.161 0.862 !       3.36 eA-3
Q162 0.515 0.351 0.012 !       3.35 eA-3
Q163 0.072 0.587 0.169 !       3.34 eA-3
Q164 0.875 0.125-0.023 !       3.32 eA-3
Q165 0.040 0.566 0.352 !       3.29 eA-3
C166 0.594 0.132 0.004 !       3.29 eA-3
Q167 0.734 0.015 0.434 !       3.29 eA-3
Q168 0.679 0.289 0.006 !       3.27 eA-3
Q169 0.023 0.179 0.009 !       3.25 eA-3
Q170 0.422 0.047 0.509 !       3.25 eA-3
Q171 0.992 0.484-0.006 !       3.24 eA-3
Q172 0.891 0.610 0.366 !       3.20 eA-3
Q173 0.680 0.008 0.228 !       3.18 eA-3
Q174 0.713 0.524 0.504 !       3.15 eA-3
Q175 0.898 0.997 0.029 !       3.14 eA-3
Q176 0.602 0.258 0.000 !       3.09 eA-3
Q177 0.665 0.953 0.691 !       3.06 eA-3
Q178 1.000 0.995 0.374 !       3.05 eA-3
Q179 0.938 0.382 0.490 !       3.05 eA-3
Q180 0.288 0.437 0.498 !       3.03 eA-3
Q181 0.532 0.967 0.386 !       3.02 eA-3
Q182 0.889 0.010 0.809 !       3.01 eA-3
Q183 0.023 0.128 0.147 !       3.00 eA-3
Q184 0.923 0.040 0.124 !       2.99 eA-3
Q185 0.054 0.513 0.122 !       2.99 eA-3
Q186 0.985 0.064 0.062 !       2.98 eA-3
Q187 0.727 0.045 0.437 !       2.97 eA-3
Q188 0.289 0.140-0.013 !       2.96 eA-3
Q189 0.016 0.540 0.754 !       2.94 eA-3
Q190 0.898 0.642 0.375 !       2.93 eA-3
Q191 0.172 0.496 0.382 !       2.93 eA-3
Q192 0.414 0.774 0.018 !       2.92 eA-3
Q193 0.398 0.336 0.015 !       2.92 eA-3
Q194 0.625 0.422-0.015 !       2.91 eA-3
Q195 0.414 0.016 0.500 !       2.89 eA-3
Q196 0.836 0.563 0.948 !       2.87 eA-3
Q197 0.079 0.414 0.263 !       2.87 eA-3
Q198 0.047 0.430 0.523 !       2.82 eA-3
Q199 0.868 0.953 0.019 !       2.80 eA-3
)
;
_shelx_fab_checksum              80048
loop_
_space_group_symop_operation_xyz
'x, y, z'
'-x, -y, z'
'-x+1/2, y+1/2, -z'
'x+1/2, -y+1/2, -z'
'-x, -y, -z'
'x, y, -z'
'x-1/2, -y-1/2, z'
'-x-1/2, y-1/2, z'
loop_
_atom_site_label
_atom_site_type_symbol
_atom_site_fract_x
_atom_site_fract_y
_atom_site_fract_z
_atom_site_U_iso_or_equiv
_atom_site_adp_type
_atom_site_occupancy
_atom_site_site_symmetry_order
_atom_site_calc_flag
_atom_site_refinement_flags_posn
_atom_site_refinement_flags_adp
_atom_site_refinement_flags_occupancy
Pt2 Pt 0.37769(2) 0.46611(3) 1.0000 0.0125(3) Uani 1 2 d S T P
Pt1 Pt 0.12275(2) 0.46793(2) 0.0000 0.0105(3) Uani 1 2 d S T P
Fe1 Fe 0.0000 0.5000 -0.5000 0.0080(8) Uani 1 4 d S T P
Fe3 Fe 0.5000 0.5000 1.5000 0.0099(8) Uani 1 4 d S T P
Fe2 Fe 0.25501(8) 0.43396(10) 0.5000 0.0083(6) Uani 1 2 d S T P
N6 N 0.0474(3) 0.4876(4) -0.3110(15) 0.017(2) Uani 1 1 d . U .
N8 N 0.3093(3) 0.4235(4) 0.7047(16) 0.020(2) Uani 1 1 d . U .
N13 N 0.2253(5) 0.0077(6) 0.5000 0.030(2) Uani 1 2 d S TU P
N1 N 0.0193(5) 0.5671(5) -0.5000 0.020(2) Uani 1 2 d S TU P
N5 N 0.0188(5) 0.9245(6) -0.5000 0.028(2) Uani 1 2 d S TU P
N14 N 0.4456(4) 0.5096(4) 1.2943(16) 0.021(2) Uani 1 1 d . U .
N9 N 0.2342(6) 0.3628(5) 0.5000 0.022(2) Uani 1 2 d S TU P
N7 N 0.2009(4) 0.4472(4) 0.2946(15) 0.020(2) Uani 1 1 d . U .
N12 N 0.2183(6) 0.1852(6) 0.5000 0.033(2) Uani 1 2 d S TU P
C13 C 0.1720(4) 0.4547(5) 0.1915(18) 0.021(2) Uani 1 1 d . U .
C3 C 0.2054(7) 0.2702(7) 0.5000 0.028(2) Uani 1 2 d S TU P
C24 C -0.0149(6) 0.8902(7) -0.5000 0.028(2) Uani 1 2 d S TU P
H24 H -0.0479 0.8982 -0.5000 0.034 Uiso 1 2 calc R U P
C17 C 0.0458(6) 0.6610(6) -0.5000 0.0241(19) Uani 1 2 d S TU P
C12 C 0.1656(7) 0.0667(7) 0.5000 0.033(2) Uani 1 2 d S TU P
H12 H 0.1326 0.0747 0.5000 0.040 Uiso 1 2 calc R U P
C11 C 0.1793(7) 0.0202(7) 0.5000 0.031(2) Uani 1 2 d S TU P
H11 H 0.1552 -0.0026 0.5000 0.037 Uiso 1 2 calc R U P
C28 C 0.4194(4) 0.4951(5) 1.1854(19) 0.022(2) Uani 1 1 d . U .
C10 C 0.2598(7) 0.0407(7) 0.5000 0.031(2) Uani 1 2 d S TU P
H10 H 0.2925 0.0317 0.5000 0.037 Uiso 1 2 calc R U P
C8 C 0.2005(7) 0.1007(7) 0.5000 0.034(2) Uani 1 2 d S TU P
C26 C 0.0793(7) 0.8651(7) -0.5000 0.028(2) Uani 1 2 d S TU P
H26 H 0.1124 0.8574 -0.5000 0.033 Uiso 1 2 calc R U P
C27 C 0.3350(4) 0.4373(4) 0.8126(19) 0.020(2) Uani 1 1 d . U .
C6 C 0.1897(7) 0.2221(7) 0.5000 0.033(2) Uani 1 2 d S TU P
C15 C 0.0660(6) 0.5800(6) -0.5000 0.021(2) Uani 1 2 d S TU P
H15 H 0.0902 0.5571 -0.5000 0.026 Uiso 1 2 calc R U P
C19 C -0.0148(6) 0.6006(6) -0.5000 0.021(2) Uani 1 2 d S TU P
H19 H -0.0477 0.5919 -0.5000 0.026 Uiso 1 2 calc R U P
C5 C 0.1868(6) 0.3502(7) 0.5000 0.023(2) Uani 1 2 d S TU P
H5 H 0.1632 0.3736 0.5000 0.028 Uiso 1 2 calc R U P
C14 C 0.0743(4) 0.4809(4) -0.1971(18) 0.017(2) Uani 1 1 d . U .
N4 N 0.0297(5) 0.7456(6) -0.5000 0.028(2) Uani 1 2 d S TU P
C7 C 0.1866(7) 0.1488(7) 0.5000 0.036(2) Uani 1 2 d S TU P
C9 C 0.2492(6) 0.0866(8) 0.5000 0.032(2) Uani 1 2 d S TU P
H9 H 0.2742 0.1086 0.5000 0.039 Uiso 1 2 calc R U P
C23 C -0.0030(7) 0.8458(7) -0.5000 0.029(2) Uani 1 2 d S TU P
H23 H -0.0280 0.8238 -0.5000 0.035 Uiso 1 2 calc R U P
C22 C 0.0441(7) 0.8304(7) -0.5000 0.028(2) Uani 1 2 d S TU P
C16 C 0.0800(6) 0.6261(6) -0.5000 0.023(2) Uani 1 2 d S TU P
H16 H 0.1131 0.6337 -0.5000 0.028 Uiso 1 2 calc R U P
C2 C 0.2541(6) 0.2821(7) 0.5000 0.027(2) Uani 1 2 d S TU P
H2 H 0.2778 0.2588 0.5000 0.032 Uiso 1 2 calc R U P
C4 C 0.1718(7) 0.3060(7) 0.5000 0.026(2) Uani 1 2 d S TU P
H4 H 0.1385 0.2994 0.5000 0.031 Uiso 1 2 calc R U P
C25 C 0.0654(6) 0.9104(7) -0.5000 0.027(2) Uani 1 2 d S TU P
H25 H 0.0898 0.9331 -0.5000 0.033 Uiso 1 2 calc R U P
C18 C -0.0039(6) 0.6461(7) -0.5000 0.023(2) Uani 1 2 d S TU P
H18 H -0.0289 0.6681 -0.5000 0.028 Uiso 1 2 calc R U P
C21 C 0.0596(7) 0.7832(7) -0.5000 0.029(2) Uani 1 2 d S TU P
C1 C 0.2677(7) 0.3267(7) 0.5000 0.024(2) Uani 1 2 d S TU P
H1 H 0.3010 0.3338 0.5000 0.029 Uiso 1 2 calc R U P
C20 C 0.0588(7) 0.7092(7) -0.5000 0.0273(19) Uani 1 2 d S TU P
N3 N 0.1061(6) 0.7713(6) -0.5000 0.031(2) Uani 1 2 d S TU P
N2 N 0.1056(6) 0.7242(5) -0.5000 0.030(2) Uani 1 2 d S TU P
H2A H 0.1312 0.7066 -0.5000 0.036 Uiso 1 2 calc R U P
N10 N 0.1436(6) 0.2086(6) 0.5000 0.038(2) Uani 1 2 d S TU P
H10A H 0.1187 0.2271 0.5000 0.045 Uiso 1 2 calc R U P
N11 N 0.1409(6) 0.1616(6) 0.5000 0.039(2) Uani 1 2 d S TU P
C34 C 0.6664(14) 0.7262(13) 1.0000 0.085(3) Uani 1 2 d S TU P
C35 C 0.5929(14) 0.7116(13) 1.0000 0.088(3) Uani 1 2 d S TU P
C36 C 0.5412(14) 0.6871(13) 1.0000 0.090(3) Uani 1 2 d S TU P
C31 C 0.7213(14) 0.7198(13) 1.0000 0.082(3) Uani 1 2 d S TU P
N18 N 0.5924(11) 0.7594(10) 1.0000 0.088(3) Uani 1 2 d S TU P
N17 N 0.6423(10) 0.7653(11) 1.0000 0.087(3) Uani 1 2 d S TU P
H17 H 0.6562 0.7922 1.0000 0.104 Uiso 1 2 calc R U P
N16 N 0.6330(11) 0.6888(10) 1.0000 0.086(3) Uani 1 2 d S TU P
C32 C 0.7487(11) 0.7540(17) 1.0000 0.081(4) Uani 1 2 d S TU P
H32 H 0.7343 0.7834 1.0000 0.097 Uiso 1 2 calc R U P
C39 C 0.5000(14) 0.6191(14) 1.0000 0.092(4) Uani 1 2 d S TU P
H39 H 0.4993 0.5867 1.0000 0.111 Uiso 1 2 calc R U P
C33 C 0.7963(13) 0.7519(13) 1.0000 0.080(4) Uani 1 2 d S TU P
H33 H 0.8140 0.7797 1.0000 0.096 Uiso 1 2 calc R U P
N15 N 0.8198(11) 0.7131(10) 1.0000 0.080(4) Uani 1 2 d S TU P
C30 C 0.7399(13) 0.6744(14) 1.0000 0.081(4) Uani 1 2 d S TU P
H30 H 0.7196 0.6483 1.0000 0.097 Uiso 1 2 calc R U P
C29 C 0.7914(13) 0.6709(13) 1.0000 0.080(4) Uani 1 2 d S TU P
H29 H 0.8067 0.6419 1.0000 0.096 Uiso 1 2 calc R U P
C37 C 0.5026(14) 0.7101(13) 1.0000 0.092(4) Uani 1 2 d S TU P
H37 H 0.5028 0.7426 1.0000 0.110 Uiso 1 2 calc R U P
C38 C 0.4608(14) 0.6859(13) 1.0000 0.093(4) Uani 1 2 d S TU P
H38 H 0.4317 0.7028 1.0000 0.111 Uiso 1 2 calc R U P
C40 C 0.5408(14) 0.6387(13) 1.0000 0.091(4) Uani 1 2 d S TU P
H40 H 0.5698 0.6216 1.0000 0.110 Uiso 1 2 calc R U P
N19 N 0.4575(11) 0.6415(11) 1.0000 0.093(4) Uani 1 2 d S TU P
O2 O 0.0670(6) 0.2606(6) 0.647(3) 0.038(6) Uani 0.5 1 d . . P
H2B H 0.0748 0.2857 0.6998 0.046 Uiso 0.5 1 d R U P
H2C H 0.0442 0.2460 0.6998 0.046 Uiso 0.5 1 d R U P
O3 O 0.6821(10) 0.8618(10) 1.0000 0.119(10) Uani 1 2 d S T P
O1 O 0.1844(6) 0.6774(7) -0.635(4) 0.041(6) Uani 0.5 1 d . . P
H1A H 0.2060 0.6936 -0.6877 0.049 Uiso 0.5 1 d R U P
H1B H 0.1789 0.6517 -0.6877 0.049 Uiso 0.5 1 d R U P
O4 O 0.7665(10) 0.8991(10) 1.0000 0.100(9) Uani 1 2 d S T P
C49 C 0.7666(17) 0.9507(17) 1.0000 0.087(11) Uani 1 2 d S T P
O5 O 0.8562(13) 0.8643(14) 1.0000 0.19(2) Uani 1 2 d S T P
loop_
_atom_site_aniso_label
_atom_site_aniso_U_11
_atom_site_aniso_U_22
_atom_site_aniso_U_33
_atom_site_aniso_U_23
_atom_site_aniso_U_13
_atom_site_aniso_U_12
Pt2 0.0114(5) 0.0196(6) 0.0063(5) 0.000 0.000 -0.0030(2)
Pt1 0.0092(4) 0.0172(6) 0.0049(5) 0.000 0.000 0.0029(2)
Fe1 0.0078(16) 0.010(2) 0.006(2) 0.000 0.000 0.0018(13)
Fe3 0.0086(17) 0.010(2) 0.011(2) 0.000 0.000 -0.0049(14)
Fe2 0.0090(12) 0.0092(16) 0.0068(15) 0.000 0.000 -0.0010(9)
N6 0.011(4) 0.020(5) 0.020(6) 0.005(4) 0.006(3) 0.005(3)
N8 0.013(4) 0.026(5) 0.021(5) 0.001(4) -0.004(3) -0.004(3)
N13 0.013(4) 0.013(5) 0.064(6) 0.000 0.000 0.000(4)
N1 0.012(4) 0.006(5) 0.043(5) 0.000 0.000 0.004(3)
N5 0.012(4) 0.016(5) 0.055(5) 0.000 0.000 0.003(4)
N14 0.019(4) 0.024(5) 0.021(5) 0.007(4) -0.003(4) -0.004(3)
N9 0.018(4) 0.011(4) 0.038(4) 0.000 0.000 -0.001(4)
N7 0.017(4) 0.027(5) 0.015(5) 0.008(4) -0.001(3) 0.003(4)
N12 0.021(4) 0.014(4) 0.066(5) 0.000 0.000 0.001(3)
C13 0.017(5) 0.030(6) 0.016(6) 0.006(4) 0.002(4) 0.005(4)
C3 0.022(3) 0.015(4) 0.048(4) 0.000 0.000 -0.001(3)
C24 0.013(4) 0.016(5) 0.056(5) 0.000 0.000 0.002(4)
C17 0.015(4) 0.010(4) 0.047(4) 0.000 0.000 0.000(3)
C12 0.017(4) 0.015(5) 0.067(5) 0.000 0.000 0.000(4)
C11 0.015(4) 0.013(5) 0.065(6) 0.000 0.000 -0.001(4)
C28 0.018(4) 0.025(5) 0.022(6) 0.007(4) 0.000(4) -0.004(4)
C10 0.015(4) 0.013(5) 0.064(6) 0.000 0.000 0.000(4)
C8 0.019(4) 0.014(4) 0.068(5) 0.000 0.000 0.000(3)
C26 0.015(4) 0.014(5) 0.055(5) 0.000 0.000 0.002(4)
C27 0.013(4) 0.025(5) 0.022(6) 0.003(4) -0.001(4) -0.002(4)
C6 0.022(3) 0.015(4) 0.062(4) 0.000 0.000 0.000(3)
C15 0.013(4) 0.008(5) 0.043(5) 0.000 0.000 0.002(4)
C19 0.012(4) 0.008(5) 0.044(5) 0.000 0.000 0.003(4)
C5 0.018(4) 0.013(4) 0.039(4) 0.000 0.000 0.000(3)
C14 0.011(4) 0.019(5) 0.022(6) 0.006(4) 0.009(4) 0.006(4)
N4 0.017(4) 0.013(4) 0.055(5) 0.000 0.000 0.001(3)
C7 0.022(4) 0.015(4) 0.070(5) 0.000 0.000 0.001(3)
C9 0.017(4) 0.014(5) 0.066(6) 0.000 0.000 0.000(4)
C23 0.015(4) 0.016(5) 0.056(5) 0.000 0.000 0.001(4)
C22 0.016(4) 0.014(4) 0.055(5) 0.000 0.000 0.002(3)
C16 0.014(4) 0.011(5) 0.045(5) 0.000 0.000 0.000(4)
C2 0.022(4) 0.015(4) 0.043(4) 0.000 0.000 0.000(3)
C4 0.021(4) 0.015(4) 0.043(4) 0.000 0.000 0.001(3)
C25 0.013(4) 0.015(5) 0.054(5) 0.000 0.000 0.002(4)
C18 0.013(4) 0.010(5) 0.047(5) 0.000 0.000 0.002(4)
C21 0.017(3) 0.014(4) 0.056(4) 0.000 0.000 0.001(3)
C1 0.020(4) 0.013(4) 0.040(4) 0.000 0.000 0.000(4)
C20 0.017(3) 0.013(4) 0.053(4) 0.000 0.000 0.001(3)
N3 0.019(4) 0.015(4) 0.058(5) 0.000 0.000 0.001(3)
N2 0.019(4) 0.014(4) 0.058(5) 0.000 0.000 0.001(3)
N10 0.025(4) 0.017(4) 0.071(5) 0.000 0.000 0.002(4)
N11 0.025(4) 0.017(4) 0.075(5) 0.000 0.000 0.002(4)
C34 0.070(6) 0.069(7) 0.116(8) 0.000 0.000 0.007(5)
C35 0.073(6) 0.069(7) 0.122(8) 0.000 0.000 0.007(5)
C36 0.075(6) 0.069(7) 0.126(8) 0.000 0.000 0.008(5)
C31 0.068(6) 0.069(7) 0.110(8) 0.000 0.000 0.007(5)
N18 0.072(6) 0.069(7) 0.121(8) 0.000 0.000 0.006(5)
N17 0.071(6) 0.069(7) 0.120(8) 0.000 0.000 0.006(5)
N16 0.071(6) 0.069(7) 0.119(8) 0.000 0.000 0.007(5)
C32 0.068(7) 0.068(8) 0.108(8) 0.000 0.000 0.008(6)
C39 0.077(7) 0.070(8) 0.130(9) 0.000 0.000 0.009(6)
C33 0.067(7) 0.067(8) 0.106(9) 0.000 0.000 0.007(6)
N15 0.067(7) 0.068(8) 0.105(9) 0.000 0.000 0.007(6)
C30 0.067(7) 0.069(8) 0.107(8) 0.000 0.000 0.006(6)
C29 0.067(7) 0.068(8) 0.105(9) 0.000 0.000 0.007(6)
C37 0.076(7) 0.070(7) 0.129(8) 0.000 0.000 0.008(6)
C38 0.077(7) 0.070(8) 0.131(9) 0.000 0.000 0.009(6)
C40 0.076(7) 0.070(7) 0.128(8) 0.000 0.000 0.008(6)
N19 0.078(7) 0.070(8) 0.132(9) 0.000 0.000 0.009(6)
O2 0.016(9) 0.010(10) 0.088(18) 0.003(11) 0.006(10) 0.003(7)
O3 0.086(19) 0.12(2) 0.16(3) 0.000 0.000 0.004(17)
O1 0.013(9) 0.020(11) 0.090(18) -0.006(12) -0.004(10) 0.005(7)
O4 0.080(17) 0.10(2) 0.12(3) 0.000 0.000 -0.025(15)
C49 0.11(3) 0.11(4) 0.04(2) 0.000 0.000 -0.01(3)
O5 0.09(2) 0.18(4) 0.31(6) 0.000 0.000 0.04(2)
loop_
_atom_type_symbol
_atom_type_description
_atom_type_scat_dispersion_real
_atom_type_scat_dispersion_imag
_atom_type_scat_source
C C 0.0181 0.0091 'International Tables Vol C Tables 4.2.6.8 and 6.1.1.4'
H H 0.0000 0.0000 'International Tables Vol C Tables 4.2.6.8 and 6.1.1.4'
Fe Fe -1.1336 3.1974 'International Tables Vol C Tables 4.2.6.8 and 6.1.1.4'
N N 0.0311 0.0180 'International Tables Vol C Tables 4.2.6.8 and 6.1.1.4'
O O 0.0492 0.0322 'International Tables Vol C Tables 4.2.6.8 and 6.1.1.4'
Pt Pt -4.5932 6.9264 'International Tables Vol C Tables 4.2.6.8 and 6.1.1.4'
loop_
_geom_angle_atom_site_label_1
_geom_angle_atom_site_label_2
_geom_angle_atom_site_label_3
_geom_angle
_geom_angle_site_symmetry_1
_geom_angle_site_symmetry_3
C28 Pt2 C28 87.5(8) 6_557 .
C28 Pt2 C27 92.6(6) 6_557 .
C28 Pt2 C27 179.4(5) . .
C28 Pt2 C27 179.4(5) 6_557 6_557
C28 Pt2 C27 92.6(6) . 6_557
C27 Pt2 C27 87.3(7) . 6_557
C13 Pt1 C13 89.8(7) . 6
C13 Pt1 C14 178.7(5) . .
C13 Pt1 C14 88.9(5) 6 .
C13 Pt1 C14 88.9(5) . 6
C13 Pt1 C14 178.7(5) 6 6
C14 Pt1 C14 92.4(7) . 6
N6 Fe1 N6 180.0(4) . 5_564
N6 Fe1 N6 91.4(6) . 6_554
N6 Fe1 N6 88.6(6) 5_564 6_554
N6 Fe1 N6 88.6(6) . 2_565
N6 Fe1 N6 91.4(6) 5_564 2_565
N6 Fe1 N6 180.0(7) 6_554 2_565
N6 Fe1 N1 90.0(4) . .
N6 Fe1 N1 90.0(4) 5_564 .
N6 Fe1 N1 90.0(4) 6_554 .
N6 Fe1 N1 90.0(4) 2_565 .
N6 Fe1 N1 90.0(4) . 5_564
N6 Fe1 N1 90.0(4) 5_564 5_564
N6 Fe1 N1 90.0(4) 6_554 5_564
N6 Fe1 N1 90.0(4) 2_565 5_564
N1 Fe1 N1 180.0(8) . 5_564
N14 Fe3 N14 90.6(6) 5_668 6_558
N14 Fe3 N14 89.4(6) 5_668 2_665
N14 Fe3 N14 180.0 6_558 2_665
N14 Fe3 N14 180.0(8) 5_668 .
N14 Fe3 N14 89.4(6) 6_558 .
N14 Fe3 N14 90.6(6) 2_665 .
N14 Fe3 N5 92.0(4) 5_668 3_546
N14 Fe3 N5 88.0(4) 6_558 3_546
N14 Fe3 N5 92.0(4) 2_665 3_546
N14 Fe3 N5 88.0(4) . 3_546
N14 Fe3 N5 88.0(4) 5_668 7_677
N14 Fe3 N5 92.0(4) 6_558 7_677
N14 Fe3 N5 88.0(4) 2_665 7_677
N14 Fe3 N5 92.0(4) . 7_677
N5 Fe3 N5 180.0 3_546 7_677
N8 Fe2 N8 89.2(6) . 6_556
N8 Fe2 N9 92.9(4) . .
N8 Fe2 N9 92.9(4) 6_556 .
N8 Fe2 N7 91.0(4) . 6_556
N8 Fe2 N7 177.8(4) 6_556 6_556
N9 Fe2 N7 89.2(4) . 6_556
N8 Fe2 N7 177.8(4) . .
N8 Fe2 N7 91.0(4) 6_556 .
N9 Fe2 N7 89.2(4) . .
N7 Fe2 N7 88.8(6) 6_556 .
N8 Fe2 N13 88.0(4) . 3_556
N8 Fe2 N13 88.0(4) 6_556 3_556
N9 Fe2 N13 178.7(6) . 3_556
N7 Fe2 N13 89.9(4) 6_556 3_556
N7 Fe2 N13 89.9(4) . 3_556
C14 N6 Fe1 178.2(11) . .
C27 N8 Fe2 151.2(11) . .
C11 N13 C10 118.7(18) . .
C11 N13 Fe2 120.3(13) . 3_546
C10 N13 Fe2 120.9(13) . 3_546
C15 N1 C19 117.8(16) . .
C15 N1 Fe1 121.5(12) . .
C19 N1 Fe1 120.7(12) . .
C25 N5 C24 115.4(17) . .
C25 N5 Fe3 121.0(13) . 3_556
C24 N5 Fe3 123.5(12) . 3_556
C28 N14 Fe3 151.0(11) . .
C5 N9 C1 115.8(16) . .
C5 N9 Fe2 121.2(13) . .
C1 N9 Fe2 122.9(13) . .
C13 N7 Fe2 178.0(11) . .
C6 N12 C7 104.1(17) . .
N7 C13 Pt1 177.6(12) . .
C2 C3 C4 117.2(19) . .
C2 C3 C6 121.7(18) . .
C4 C3 C6 121.2(18) . .
C23 C24 N5 122.5(17) . .
C23 C24 H24 118.7 . .
N5 C24 H24 118.7 . .
C16 C17 C18 115.6(17) . .
C16 C17 C20 122.6(16) . .
C18 C17 C20 121.8(16) . .
C8 C12 C11 120.0(18) . .
C8 C12 H12 120.0 . .
C11 C12 H12 120.0 . .
N13 C11 C12 121.8(17) . .
N13 C11 H11 119.1 . .
C12 C11 H11 119.1 . .
N14 C28 Pt2 175.8(12) . .
N13 C10 C9 122.8(18) . .
N13 C10 H10 118.6 . .
C9 C10 H10 118.6 . .
C12 C8 C9 117.3(19) . .
C12 C8 C7 120.3(18) . .
C9 C8 C7 122.4(19) . .
C25 C26 C22 119.7(17) . .
C25 C26 H26 120.1 . .
C22 C26 H26 120.1 . .
N8 C27 Pt2 175.7(12) . .
N10 C6 N12 109.3(18) . .
N10 C6 C3 124.3(18) . .
N12 C6 C3 126.4(18) . .
N1 C15 C16 122.2(16) . .
N1 C15 H15 118.9 . .
C16 C15 H15 118.9 . .
C18 C19 N1 123.1(17) . .
C18 C19 H19 118.5 . .
N1 C19 H19 118.5 . .
C4 C5 N9 123.6(17) . .
C4 C5 H5 118.2 . .
N9 C5 H5 118.2 . .
N6 C14 Pt1 178.6(12) . .
C20 N4 C21 105.6(16) . .
N11 C7 N12 113.1(18) . .
N11 C7 C8 121.9(18) . .
N12 C7 C8 125.0(18) . .
C10 C9 C8 119.4(19) . .
C10 C9 H9 120.3 . .
C8 C9 H9 120.3 . .
C24 C23 C22 123.4(19) . .
C24 C23 H23 118.3 . .
C22 C23 H23 118.3 . .
C23 C22 C26 114.9(18) . .
C23 C22 C21 126.4(18) . .
C26 C22 C21 118.7(17) . .
C17 C16 C15 120.9(16) . .
C17 C16 H16 119.5 . .
C15 C16 H16 119.5 . .
C1 C2 C3 120.7(18) . .
C1 C2 H2 119.7 . .
C3 C2 H2 119.7 . .
C5 C4 C3 120.4(18) . .
C5 C4 H4 119.8 . .
C3 C4 H4 119.8 . .
N5 C25 C26 124.0(17) . .
N5 C25 H25 118.0 . .
C26 C25 H25 118.0 . .
C19 C18 C17 120.3(17) . .
C19 C18 H18 119.8 . .
C17 C18 H18 119.8 . .
N3 C21 N4 112.0(17) . .
N3 C21 C22 122.5(17) . .
N4 C21 C22 125.5(17) . .
C2 C1 N9 122.3(18) . .
C2 C1 H1 118.9 . .
N9 C1 H1 118.9 . .
N4 C20 N2 108.6(17) . .
N4 C20 C17 128.4(17) . .
N2 C20 C17 122.9(17) . .
C21 N3 N2 104.6(16) . .
C20 N2 N3 109.1(15) . .
C20 N2 H2A 125.5 . .
N3 N2 H2A 125.5 . .
C6 N10 N11 110.2(17) . .
C6 N10 H10A 124.9 . .
N11 N10 H10A 124.9 . .
C7 N11 N10 103.3(17) . .
N17 C34 N16 109(3) . .
N17 C34 C31 127(3) . .
N16 C34 C31 123(3) . .
N16 C35 N18 121(4) . .
N16 C35 C36 123(3) . .
N18 C35 C36 116(3) . .
C37 C36 C40 122(4) . .
C37 C36 C35 122(4) . .
C40 C36 C35 117(3) . .
C32 C31 C30 121(4) . .
C32 C31 C34 120(3) . .
C30 C31 C34 118(3) . .
N17 N18 C35 97(3) . .
C34 N17 N18 113(3) . .
C34 N17 H17 123.3 . .
N18 N17 H17 123.3 . .
C35 N16 C34 100(3) . .
C31 C32 C33 125(4) . .
C31 C32 H32 117.6 . .
C33 C32 H32 117.6 . .
C40 C39 N19 124(4) . .
C40 C39 H39 117.9 . .
N19 C39 H39 117.9 . .
N15 C33 C32 123(4) . .
N15 C33 H33 118.7 . .
C32 C33 H33 118.7 . .
C33 N15 C29 117(3) . .
C31 C30 C29 115(3) . .
C31 C30 H30 122.4 . .
C29 C30 H30 122.4 . .
C30 C29 N15 119(3) . .
C30 C29 H29 120.7 . .
N15 C29 H29 120.6 . .
C36 C37 C38 117(4) . .
C36 C37 H37 121.7 . .
C38 C37 H37 121.7 . .
N19 C38 C37 125(4) . .
N19 C38 H38 117.3 . .
C37 C38 H38 117.3 . .
C39 C40 C36 117(4) . .
C39 C40 H40 121.3 . .
C36 C40 H40 121.3 . .
C38 N19 C39 115(4) . .
H2B O2 H2C 114.0 . .
H1A O1 H1B 113.8 . .
loop_
_geom_bond_atom_site_label_1
_geom_bond_atom_site_label_2
_geom_bond_distance
_geom_bond_site_symmetry_2
Pt2 C28 1.970(14) 6_557
Pt2 C28 1.970(14) .
Pt2 C27 1.994(13) .
Pt2 C27 1.994(13) 6_557
Pt1 C13 1.992(13) .
Pt1 C13 1.992(13) 6
Pt1 C14 2.006(13) .
Pt1 C14 2.006(13) 6
Fe1 N6 1.940(10) .
Fe1 N6 1.940(10) 5_564
Fe1 N6 1.940(10) 6_554
Fe1 N6 1.940(10) 2_565
Fe1 N1 2.016(15) .
Fe1 N1 2.016(15) 5_564
Fe3 N14 2.147(11) 5_668
Fe3 N14 2.147(11) 6_558
Fe3 N14 2.147(11) 2_665
Fe3 N14 2.148(11) .
Fe3 N5 2.249(16) 3_546
Fe3 N5 2.249(16) 7_677
Fe2 N8 2.143(11) .
Fe2 N8 2.143(11) 6_556
Fe2 N9 2.140(16) .
Fe2 N7 2.157(11) 6_556
Fe2 N7 2.157(11) .
Fe2 N13 2.204(17) 3_556
N6 C14 1.135(17) .
N8 C27 1.137(17) .
N13 C11 1.32(2) .
N13 C10 1.35(3) .
N13 Fe2 2.204(17) 3_546
N1 C15 1.34(2) .
N1 C19 1.35(2) .
N5 C25 1.35(2) .
N5 C24 1.36(2) .
N5 Fe3 2.249(16) 3_556
N14 C28 1.158(17) .
N9 C5 1.36(2) .
N9 C1 1.40(2) .
N7 C13 1.120(16) .
N12 C6 1.33(2) .
N12 C7 1.37(3) .
C3 C2 1.39(3) .
C3 C4 1.39(3) .
C3 C6 1.46(3) .
C24 C23 1.33(3) .
C24 H24 0.9400 .
C17 C16 1.38(2) .
C17 C18 1.44(2) .
C17 C20 1.44(3) .
C12 C8 1.38(3) .
C12 C11 1.40(3) .
C12 H12 0.9400 .
C11 H11 0.9400 .
C10 C9 1.36(3) .
C10 H10 0.9400 .
C8 C9 1.40(3) .
C8 C7 1.44(3) .
C26 C25 1.37(3) .
C26 C22 1.40(3) .
C26 H26 0.9400 .
C6 N10 1.33(3) .
C15 C16 1.39(3) .
C15 H15 0.9400 .
C19 C18 1.35(3) .
C19 H19 0.9400 .
C5 C4 1.34(3) .
C5 H5 0.9400 .
N4 C20 1.32(2) .
N4 C21 1.37(2) .
C7 N11 1.31(3) .
C9 H9 0.9400 .
C23 C22 1.37(3) .
C23 H23 0.9400 .
C22 C21 1.43(3) .
C16 H16 0.9400 .
C2 C1 1.35(3) .
C2 H2 0.9400 .
C4 H4 0.9400 .
C25 H25 0.9400 .
C18 H18 0.9400 .
C21 N3 1.33(2) .
C1 H1 0.9400 .
C20 N2 1.36(2) .
N3 N2 1.36(2) .
N2 H2A 0.8700 .
N10 N11 1.36(2) .
N10 H10A 0.8700 .
C34 N17 1.31(4) .
C34 N16 1.42(5) .
C34 C31 1.52(5) .
C35 N16 1.29(4) .
C35 N18 1.39(4) .
C35 C36 1.59(5) .
C36 C37 1.26(5) .
C36 C40 1.40(5) .
C31 C32 1.25(5) .
C31 C30 1.41(5) .
N18 N17 1.38(4) .
N17 H17 0.8700 .
C32 C33 1.31(4) .
C32 H32 0.9400 .
C39 C40 1.26(5) .
C39 N19 1.34(4) .
C39 H39 0.9400 .
C33 N15 1.30(4) .
C33 H33 0.9400 .
N15 C29 1.45(4) .
C30 C29 1.43(4) .
C30 H30 0.9400 .
C29 H29 0.9400 .
C37 C38 1.35(5) .
C37 H37 0.9400 .
C38 N19 1.29(4) .
C38 H38 0.9400 .
C40 H40 0.9400 .
O2 H2B 0.8499 .
O2 H2C 0.8501 .
O1 H1A 0.8502 .
O1 H1B 0.8499 .
O4 C49 1.49(5) .
