#------------------------------------------------------------------------------
#$Date: 2019-11-17 11:00:18 +0200 (Sun, 17 Nov 2019) $
#$Revision: 229474 $
#$URL: file:///home/coder/svn-repositories/cod/cif/7/04/51/7045170.cif $
#------------------------------------------------------------------------------
#
# This file is available in the Crystallography Open Database (COD),
# http://www.crystallography.net/
#
# All data on this site have been placed in the public domain by the
# contributors.
#
data_7045170
loop_
_publ_author_name
'Yan, Yang-Tian'
'Zhang, Wen-Yan'
'Zhang, Fang'
'Cao, Feng'
'Yang, Rui-Feng'
'Wang, Yao-Yu'
'Hou, Lei'
_publ_section_title
;
 Four new metal-organic frameworks based on diverse secondary building
 units: sensing and magnetic properties.
;
_journal_issue                   5
_journal_name_full
'Dalton transactions (Cambridge, England : 2003)'
_journal_page_first              1682
_journal_page_last               1692
_journal_paper_doi               10.1039/c7dt04696k
_journal_volume                  47
_journal_year                    2018
_chemical_formula_moiety         'C46 H42 Mn5 O32, 6(H2 O)'
_chemical_formula_sum            'C46 H54 Mn5 O38'
_chemical_formula_weight         1489.59
_space_group_crystal_system      monoclinic
_space_group_IT_number           14
_space_group_name_Hall           '-P 2ybc'
_space_group_name_H-M_alt        'P 1 21/c 1'
_symmetry_space_group_name_Hall  '-P 2ybc'
_symmetry_space_group_name_H-M   'P 1 21/c 1'
_atom_sites_solution_hydrogens   mixed
_audit_creation_date             2017-04-16
_audit_creation_method
;
Olex2 1.2-beta
(compiled 2017.03.28 svn.r3405 for OlexSys, GUI svn.r5335)
;
_cell_angle_alpha                90
_cell_angle_beta                 95.535(8)
_cell_angle_gamma                90
_cell_formula_units_Z            2
_cell_length_a                   17.715(8)
_cell_length_b                   21.652(10)
_cell_length_c                   7.406(4)
_cell_measurement_reflns_used    2581
_cell_measurement_temperature    100
_cell_measurement_theta_max      23.797
_cell_measurement_theta_min      2.208
_cell_volume                     2827(2)
_computing_cell_refinement       'SAINT v8.34A (Bruker, 2013)'
_computing_data_reduction        'SAINT v8.34A (Bruker, 2013)'
_computing_molecular_graphics    'Olex2 (Dolomanov et al., 2009)'
_computing_publication_material  'Olex2 (Dolomanov et al., 2009)'
_computing_structure_refinement  'ShelXL (Sheldrick, 2015)'
_computing_structure_solution    'SHELXS-97 (Sheldrick, 2008)'
_diffrn_ambient_temperature      100
_diffrn_measured_fraction_theta_full 0.990
_diffrn_measured_fraction_theta_max 0.990
_diffrn_measurement_device_type  'Bruker P4'
_diffrn_radiation_type           MoK\a
_diffrn_radiation_wavelength     0.71073
_diffrn_reflns_av_R_equivalents  0.0464
_diffrn_reflns_av_unetI/netI     0.0581
_diffrn_reflns_Laue_measured_fraction_full 0.990
_diffrn_reflns_Laue_measured_fraction_max 0.990
_diffrn_reflns_limit_h_max       21
_diffrn_reflns_limit_h_min       -15
_diffrn_reflns_limit_k_max       26
_diffrn_reflns_limit_k_min       -26
_diffrn_reflns_limit_l_max       9
_diffrn_reflns_limit_l_min       -9
_diffrn_reflns_number            15114
_diffrn_reflns_point_group_measured_fraction_full 0.990
_diffrn_reflns_point_group_measured_fraction_max 0.990
_diffrn_reflns_theta_full        25.242
_diffrn_reflns_theta_max         26.000
_diffrn_reflns_theta_min         1.489
_exptl_absorpt_coefficient_mu    1.195
_exptl_absorpt_correction_type   none
_exptl_crystal_colour            colourless
_exptl_crystal_colour_primary    colourless
_exptl_crystal_density_diffrn    1.750
_exptl_crystal_density_method    'not measured'
_exptl_crystal_description       block
_exptl_crystal_F_000             1518
_refine_diff_density_max         1.040
_refine_diff_density_min         -0.438
_refine_diff_density_rms         0.086
_refine_ls_extinction_method     none
_refine_ls_goodness_of_fit_ref   1.028
_refine_ls_hydrogen_treatment    constr
_refine_ls_matrix_type           full
_refine_ls_number_parameters     432
_refine_ls_number_reflns         5497
_refine_ls_number_restraints     24
_refine_ls_restrained_S_all      1.035
_refine_ls_R_factor_all          0.0661
_refine_ls_R_factor_gt           0.0452
_refine_ls_shift/su_max          0.001
_refine_ls_shift/su_mean         0.000
_refine_ls_structure_factor_coef Fsqd
_refine_ls_weighting_details
'w=1/[\s^2^(Fo^2^)+(0.0520P)^2^+2.3743P] where P=(Fo^2^+2Fc^2^)/3'
_refine_ls_weighting_scheme      calc
_refine_ls_wR_factor_gt          0.1069
_refine_ls_wR_factor_ref         0.1203
_reflns_Friedel_coverage         0.000
_reflns_number_gt                4071
_reflns_number_total             5497
_reflns_threshold_expression     'I > 2\s(I)'
_cod_data_source_file            c7dt04696k1.cif
_cod_data_source_block           4
_cod_depositor_comments
'Adding full bibliography for 7045167--7045170.cif.'
_cod_database_code               7045170
_shelx_shelxl_version_number     2014/7
_shelx_space_group_comment
;
The symmetry employed for this shelxl refinement is uniquely defined
by the following loop, which should always be used as a source of
symmetry information in preference to the above space-group names.
They are only intended as comments.
;
_olex2_refinement_description
;
1. Fixed Uiso
 At 1.2 times of:
  All C(H) groups
 At 1.5 times of:
  All O(H,H) groups
2. Uiso/Uaniso restraints and constraints
Uanis(O18A) \\sim Ueq: with sigma of 0.01 and sigma for terminal atoms of 0.02
Uanis(O18) \\sim Ueq, Uanis(O19A) \\sim Ueq, Uanis(O19) \\sim Ueq: with sigma
of 0.01 and sigma for terminal atoms of 0.02
3. Others
 Sof(O19A)=Sof(H19C)=Sof(H19D)=1-FVAR(1)
 Sof(O19)=Sof(H19A)=Sof(H19B)=FVAR(1)
 Sof(O8A)=Sof(O18A)=Sof(H18A)=Sof(H18B)=1-FVAR(2)
 Sof(O8)=Sof(O18)=Sof(H18C)=Sof(H18D)=FVAR(2)
4.a Riding coordinates:
 O7(H7A,H7B), O12(H12A,H12B), O13(H13A,H13B), O14(H14A,H14B), O15(H15A,H15B),
 O16(H16A,H16B), O18A(H18A,H18B), O17(H17A,H17B), O18(H18C,H18D), O19(H19A,
 H19B), O19A(H19C,H19D)
4.b Aromatic/amide H refined with riding coordinates:
 C3(H3), C5(H5), C6(H6), C9(H9), C11(H11), C13(H13), C15(H15), C16(H16),
 C18(H18)
;
_shelx_res_file
;
    1.res created by SHELXL-2014/7

TITL 1 in P2(1)/c
CELL 0.71073 17.7147 21.6518 7.4062 90 95.5354 90
ZERR 2 0.008 0.0103 0.0035 0 0.008 0
LATT 1
SYMM -X,0.5+Y,0.5-Z
SFAC C H Mn O
UNIT 92 108 10 76
EQIV $1 +X,+Y,-1+Z
EQIV $2 -1+X,0.5-Y,-0.5+Z
EQIV $3 1-X,-0.5+Y,0.5-Z
EQIV $4 +X,0.5-Y,0.5+Z
EQIV $5 -1+X,0.5-Y,0.5+Z
EQIV $6 +X,+Y,1+Z
EQIV $7 1-X,-0.5+Y,1.5-Z
EQIV $8 +X,0.5-Y,-0.5+Z
EQIV $9 1-X,1-Y,2-Z
EQIV $10 2-X,1-Y,-Z
EQIV $11 2-X,1-Y,1-Z
EQIV $12 1-X,0.5+Y,0.5-Z
ISOR 0.01 0.02 O18A
ISOR 0.01 0.02 O18 O19A O19

L.S. 4
PLAN  40
TEMP -173.15
HTAB O7 O17
HTAB O12 O18
HTAB O12 O19
HTAB O12 O19A
HTAB O13 O8_$1
HTAB O13 O8A_$1
HTAB O13 O5_$12
HTAB O14 O9_$2
HTAB O14 O19_$3
HTAB O15 O6_$4
HTAB O15 O9_$5
HTAB O15 O14_$6
HTAB O16 O18A_$7
HTAB O16 O19A_$5
HTAB O16 O12_$7
HTAB O16 O18_$7
HTAB O18A O10_$8
HTAB O18A O8A
HTAB O17 O5_$4
HTAB O17 O4_$9
HTAB O18 O8
HTAB O18 O10_$8
HTAB O19 O19_$10
HTAB O19 O8_$11
BOND
htab
conf
fmap 2
acta
OMIT -3 52
OMIT 1 1 1
OMIT 1 0 0
OMIT 0 8 0
OMIT -1 1 3
OMIT -13 0 2
OMIT 1 8 0
OMIT -13 1 1
OMIT -1 8 1
OMIT -12 0 2
OMIT 0 2 0
OMIT 3 11 8
OMIT 2 0 0
OMIT 2 5 2
REM <olex2.extras>
REM <HklSrc "%.\\1.hkl">
REM </olex2.extras>

WGHT    0.052000    2.374300
FVAR       0.11795   0.56185   0.61794
MN1   3    0.500000    0.500000    1.000000    10.50000    0.01774    0.01540 =
         0.02049    0.00183   -0.00256   -0.00217
MN2   3    0.709877    0.496110    0.088783    11.00000    0.02198    0.01837 =
         0.02854    0.00096    0.00723    0.00173
MN3   3    0.102530    0.163720    0.871925    11.00000    0.01613    0.02198 =
         0.04176    0.00012    0.00464    0.00114
O1    4    0.460634    0.416666    0.870018    11.00000    0.03084    0.02189 =
         0.04717   -0.01214    0.00587   -0.00757
O2    4    0.334805    0.418230    0.850063    11.00000    0.03341    0.02099 =
         0.08479   -0.01162    0.01434    0.00492
O3    4    0.532526    0.441801    0.234457    11.00000    0.03375    0.04279 =
         0.03771    0.02389   -0.00555    0.00071
O4    4    0.656803    0.452046    0.293501    11.00000    0.03445    0.05104 =
         0.04197    0.02265    0.00713   -0.00850
O5    4    0.239549    0.142135    0.826502    11.00000    0.03197    0.02425 =
         0.06065   -0.00198    0.00957   -0.00901
O6    4    0.188009    0.234472    0.840179    11.00000    0.02043    0.02962 =
         0.05673    0.00265    0.01106   -0.00025
O7    4    0.390522    0.517781    1.135687    11.00000    0.03056    0.02571 =
         0.02510   -0.00185    0.00505    0.00187
AFIX   3
H7A   2    0.382762    0.500321    1.236857    11.00000   -1.50000
H7B   2    0.386742    0.555031    1.166657    11.00000   -1.50000
AFIX   0
PART 1
O8    4    0.847958    0.433285    0.844845    31.00000    0.01924    0.02590 =
         0.06875   -0.01070    0.00943   -0.00251
PART 0
PART 2
O8A   4    0.823589    0.436924    0.764032   -31.00000    0.05573    0.03214 =
         0.11917   -0.00517    0.04946   -0.00310
PART 0
O9    4    1.021729    0.248698    0.879560    11.00000    0.01582    0.04911 =
         0.06794   -0.01676    0.00295    0.00428
O10   4    0.973053    0.155973    0.879563    11.00000    0.02680    0.03624 =
         0.08076    0.00376    0.00347    0.01419
O11   4    0.743653    0.410966    0.971116    11.00000    0.03254    0.02627 =
         0.04389   -0.00535    0.00966    0.00703
O12   4    0.808034    0.504618    0.300915    11.00000    0.06898    0.12950 =
         0.09710   -0.03170   -0.04106   -0.00833
AFIX   3
H12A  2    0.811424    0.487318    0.404045    11.00000   -1.50000
H12B  2    0.849984    0.494968    0.267655    11.00000   -1.50000
AFIX   0
O13   4    0.788502    0.545648   -0.072889    11.00000    0.05187    0.03126 =
         0.08139    0.01087    0.03829    0.00562
AFIX   3
H13A  2    0.814802    0.518518   -0.119829    11.00000   -1.50000
H13B  2    0.787522    0.581968   -0.122259    11.00000   -1.50000
AFIX   0
O14   4    0.080268    0.153950    0.577646    11.00000    0.06483    0.04994 =
         0.04673    0.00037    0.00274    0.00829
AFIX   3
H14A  2    0.056428    0.181620    0.516606    11.00000   -1.50000
H14B  2    0.078878    0.117860    0.523396    11.00000   -1.50000
AFIX   0
O15   4    0.132645    0.160854    1.165608    11.00000    0.08573    0.07254 =
         0.04056   -0.00253    0.00923   -0.03524
AFIX   3
H15A  2    0.162665    0.189254    1.212278    11.00000   -1.50000
H15B  2    0.094735    0.167384    1.232818    11.00000   -1.50000
AFIX   0
O16   4    0.097018    0.062988    0.885054    11.00000    0.08324    0.02863 =
         0.12380    0.01368    0.02855    0.00598
AFIX   3
H16A  2    0.053508    0.050658    0.838464    11.00000   -1.50000
H16B  2    0.099628    0.048368    0.989004    11.00000   -1.50000
AFIX   0
PART 2
O18A  4    0.959528    0.441461    0.634135   -31.00000    0.14041    0.10427 =
         0.15827    0.00931    0.10829    0.02910
AFIX   3
H18A  2    0.967108    0.408371    0.580245   -31.00000   -1.50000
H18B  2    0.924198    0.436901    0.696025   -31.00000   -1.50000
AFIX   0
PART 0
C1    1    0.397759    0.392068    0.835085    11.00000    0.02476    0.01832 =
         0.02189    0.00067    0.00518   -0.00034
C2    1    0.393154    0.324803    0.781353    11.00000    0.01571    0.01698 =
         0.01737    0.00194   -0.00031    0.00073
C3    1    0.326144    0.294243    0.807639    11.00000    0.01458    0.02198 =
         0.02252   -0.00120    0.00213    0.00155
AFIX  43
H3    2    0.284186    0.317532    0.840856    11.00000   -1.20000
AFIX   0
C4    1    0.318545    0.230954    0.786988    11.00000    0.01638    0.02100 =
         0.02160   -0.00028    0.00000   -0.00255
C5    1    0.380111    0.196615    0.738072    11.00000    0.02071    0.01716 =
         0.02651   -0.00087    0.00125   -0.00097
AFIX  43
H5    2    0.376390    0.152989    0.726777    11.00000   -1.20000
AFIX   0
C6    1    0.446932    0.226667    0.705974    11.00000    0.01727    0.01981 =
         0.01933    0.00078    0.00351    0.00383
AFIX  43
H6    2    0.488149    0.203139    0.669731    11.00000   -1.20000
AFIX   0
C7    1    0.454991    0.290782    0.725751    11.00000    0.01409    0.01872 =
         0.01453    0.00198   -0.00206   -0.00078
C8    1    0.527546    0.318983    0.676625    11.00000    0.01417    0.02138 =
         0.01518   -0.00077    0.00200   -0.00104
C9    1    0.597388    0.295615    0.752501    11.00000    0.01855    0.02012 =
         0.02207    0.00557    0.00220    0.00053
AFIX  43
H9    2    0.598303    0.263883    0.841272    11.00000   -1.20000
AFIX   0
C10   1    0.665983    0.318534    0.698899    11.00000    0.01588    0.01784 =
         0.02158    0.00156    0.00124    0.00172
C11   1    0.663319    0.363528    0.563209    11.00000    0.01745    0.01939 =
         0.02122    0.00154    0.00558   -0.00155
AFIX  43
H11   2    0.709315    0.379242    0.525328    11.00000   -1.20000
AFIX   0
C12   1    0.593917    0.385860    0.482061    11.00000    0.02080    0.01815 =
         0.01346    0.00251    0.00151    0.00180
C13   1    0.526263    0.364215    0.541535    11.00000    0.01664    0.01691 =
         0.01778   -0.00024   -0.00346    0.00168
AFIX  43
H13   2    0.479143    0.380302    0.489953    11.00000   -1.20000
AFIX   0
C14   1    0.740750    0.292066    0.767416    11.00000    0.01691    0.02391 =
         0.01818    0.00390    0.00322    0.00343
C15   1    0.752311    0.228444    0.754667    11.00000    0.01841    0.02157 =
         0.03060   -0.00003    0.00041   -0.00084
AFIX  43
H15   2    0.710649    0.202317    0.717101    11.00000   -1.20000
AFIX   0
C16   1    0.823973    0.202712    0.796175    11.00000    0.02459    0.02289 =
         0.03321    0.00260    0.00363    0.00599
AFIX  43
H16   2    0.830461    0.159210    0.791252    11.00000   -1.20000
AFIX   0
C17   1    0.885883    0.240501    0.844688    11.00000    0.01743    0.03061 =
         0.02574   -0.00162    0.00077    0.00607
C18   1    0.875304    0.303415    0.859406    11.00000    0.01659    0.02938 =
         0.03188   -0.00648    0.00383    0.00242
AFIX  43
H18   2    0.917777    0.329215    0.892435    11.00000   -1.20000
AFIX   0
C19   1    0.803360    0.329866    0.826671    11.00000    0.01566    0.02381 =
         0.02817   -0.00228    0.00192    0.00212
C20   1    0.794640    0.396979    0.872323    11.00000    0.02354    0.02329 =
         0.05361   -0.00301    0.00703    0.00231
C21   1    0.964672    0.213602    0.871415    11.00000    0.02119    0.03650 =
         0.03522   -0.00505    0.00144    0.00814
C22   1    0.593371    0.430123    0.323302    11.00000    0.02949    0.01644 =
         0.02072    0.00109    0.00372    0.00197
C23   1    0.245270    0.200219    0.819877    11.00000    0.02413    0.02379 =
         0.02946   -0.00216    0.00155   -0.00464

O17   4    0.348450    0.451627    1.417823    11.00000    0.08384    0.04879 =
         0.03957   -0.01069    0.01841   -0.02318
AFIX   3
H17A  2    0.321740    0.419677    1.404043    11.00000   -1.50000
H17B  2    0.349210    0.472607    1.518463    11.00000   -1.50000
AFIX   0

PART 1
O18   4    0.898409    0.438699    0.511385    31.00000    0.09845    0.04888 =
         0.07439   -0.01044    0.01603    0.00503
AFIX   3
H18C  2    0.881649    0.439529    0.619795    31.00000   -1.50000
H18D  2    0.913069    0.403619    0.469365    31.00000   -1.50000
AFIX   0

O19   4    0.964234    0.551110    0.130003    21.00000    0.21549    0.18256 =
         0.25224    0.09869   -0.03000    0.07193
AFIX   3
H19A  2    0.975204    0.526710    0.048883    21.00000   -1.50000
H19B  2    1.006954    0.571990    0.148423    21.00000   -1.50000
AFIX   0
PART 0
PART 2
O19A  4    0.936430    0.454713    0.171846   -21.00000    0.10269    0.08677 =
         0.15152   -0.01295   -0.06405    0.02888
AFIX   3
H19C  2    0.924650    0.419633    0.126006   -21.00000   -1.50000
H19D  2    0.969680    0.478253    0.130136   -21.00000   -1.50000
AFIX   0
HKLF 4

REM  1 in P2(1)/c
REM R1 =  0.0452 for    4071 Fo > 4sig(Fo)  and  0.0661 for all    5497 data
REM    432 parameters refined using     24 restraints

END

WGHT      0.0520      2.3825

REM Instructions for potential hydrogen bonds
HTAB O7 O17
HTAB O12 O18
HTAB O12 O19
HTAB O12 O19A
HTAB O13 O8_$1
HTAB O13 O8A_$1
HTAB O13 O5_$12
HTAB O14 O9_$2
HTAB O14 O19_$3
HTAB O15 O6_$4
HTAB O15 O9_$5
HTAB O15 O14_$6
HTAB O16 O18A_$7
HTAB O16 O19A_$5
HTAB O16 O12_$7
HTAB O16 O18_$7
HTAB O18A O10_$8
HTAB O18A O8A
HTAB O17 O5_$4
HTAB O17 O4_$9
HTAB O18 O8
HTAB O18 O10_$8
HTAB O19 O19_$10
HTAB O19 O8_$11

REM Highest difference peak  1.040,  deepest hole -0.438,  1-sigma level  0.086
Q1    1   1.0086  0.5475 -0.0032  11.00000  0.05    1.04
Q2    1   0.9391  0.5455  0.0725  11.00000  0.05    0.55
Q3    1   0.6453  0.4195  0.2180  11.00000  0.05    0.44
Q4    1   0.9251  0.4463  0.2019  11.00000  0.05    0.41
Q5    1   0.8200  0.5033  0.2384  11.00000  0.05    0.40
Q6    1   0.9810  0.5739  0.2211  11.00000  0.05    0.39
Q7    1   0.6223  0.3783  0.5440  11.00000  0.05    0.35
Q8    1   0.8349  0.3113  0.8329  11.00000  0.05    0.33
Q9    1   0.3074  0.4804  1.3732  11.00000  0.05    0.31
Q10   1   0.6016  0.4000  0.4052  11.00000  0.05    0.31
Q11   1   0.1060  0.1635  1.0067  11.00000  0.05    0.31
Q12   1   1.0218  0.2393  0.8309  11.00000  0.05    0.30
Q13   1   0.4246  0.3142  0.7396  11.00000  0.05    0.30
Q14   1   0.3270  0.4621  0.8692  11.00000  0.05    0.29
Q15   1   0.6408  0.3210  0.7623  11.00000  0.05    0.29
Q16   1   0.7896  0.2184  0.7781  11.00000  0.05    0.29
Q17   1   0.3674  0.3097  0.8281  11.00000  0.05    0.29
Q18   1   0.9574  0.4910  0.0934  11.00000  0.05    0.29
Q19   1   0.4230  0.3104  0.7837  11.00000  0.05    0.28
Q20   1   0.1310  0.1242  1.2273  11.00000  0.05    0.28
Q21   1   0.3808  0.4506  0.8296  11.00000  0.05    0.28
Q22   1   0.1629  0.1588  1.1243  11.00000  0.05    0.28
Q23   1   0.9649  0.3590  0.0683  11.00000  0.05    0.28
Q24   1   0.2811  0.5100  1.4911  11.00000  0.05    0.27
Q25   1   0.8066  0.3565  0.8619  11.00000  0.05    0.27
Q26   1   0.9679  0.4909  0.1940  11.00000  0.05    0.27
Q27   1   0.6574  0.3551  0.6601  11.00000  0.05    0.27
Q28   1   0.9858  0.2900  0.8401  11.00000  0.05    0.27
Q29   1   0.5649  0.3906  0.5393  11.00000  0.05    0.27
Q30   1   0.7094  0.3088  0.7576  11.00000  0.05    0.27
Q31   1   0.8662  0.1266  0.8573  11.00000  0.05    0.26
Q32   1   0.8096  0.5894  0.1575  11.00000  0.05    0.26
Q33   1   0.4891  0.3039  0.7075  11.00000  0.05    0.26
Q34   1   0.8933  0.3731  0.7321  11.00000  0.05    0.26
Q35   1   0.7035  0.4981 -0.0726  11.00000  0.05    0.26
Q36   1   0.4285  0.2109  0.7907  11.00000  0.05    0.25
Q37   1   0.4955  0.4189  0.7948  11.00000  0.05    0.25
Q38   1   0.8449  0.2305  0.7635  11.00000  0.05    0.25
Q39   1   0.2902  0.2178  0.7519  11.00000  0.05    0.25
Q40   1   1.0117  0.1234  0.8822  11.00000  0.05    0.25
;
_shelx_res_checksum              98957
_shelx_hkl_file
;
   0   0   1   -0.66    0.14
   0   0   2  455.62   15.75
   0   0   3    0.15    0.31
   0   0   4  112.05    4.68
   0   0   5   -0.16    0.48
   0   0   6    3.07    0.95
   0   0   7    0.10    0.65
   0   0   8    3.95    1.14
   0   0  -9    0.62    0.86
   0   0   9   -0.16    0.79
   0  -1   0    0.00    0.01
   0  -1   1  112.60    4.05
   0   1   2  887.94   30.32
   0  -1   2  891.82   30.30
   0  -1   3   12.02    0.94
   0   1  -4   77.24    3.14
   0   1   4   74.80    3.45
   0  -1   4   75.41    3.41
   0   1  -5   12.97    1.15
   0   1   5   11.31    1.36
   0  -1   5   14.81    1.49
   0   1   6   32.48    2.33
   0  -1   6   37.33    2.42
   0   1   7   -0.47    0.56
   0  -1   7    0.10    0.62
   0   1   8    1.74    0.88
   0  -1   8    2.36    1.09
   0  -1  -9    4.49    1.39
   0  -1   9    4.98    1.43
   0  -2   0   -0.19    0.04
   0  -2   1    0.98    0.23
   0  -2  -1    0.16    0.20
   0   2   2  740.51   25.55
   0   2  -2  768.73   25.41
   0  -2   2  731.11   25.51
   0   2   3   23.53    1.41
   0   2  -3   24.81    1.23
   0  -2   3   19.98    1.30
   0   2   4    0.49    0.45
   0   2  -4   -0.05    0.28
   0  -2   4    0.95    0.44
   0   2  -5    0.37    0.41
   0   2   5    0.38    0.51
   0  -2   5    0.39    0.51
   0   2   6    5.83    1.13
   0   2  -6    5.48    0.99
   0  -2   6    4.95    1.02
   0   2   7   10.82    1.64
   0  -2   7   11.08    1.60
   0  -2  -8   -1.18    0.58
   0  -2   8    0.26    0.82
   0  -2  -9   -0.73    0.85
   0  -2   9    0.29    1.00
   0  -3   0   -0.43    0.11
   0   3  -1  815.31   27.39
   0  -3   1  800.02   27.40
   0   3  -2   23.87    1.24
   0  -3   2   28.84    1.38
   0  -3  -2   27.50    1.40
   0   3  -3   37.97    1.73
   0   3   3   36.30    1.89
   0  -3   3   32.46    1.81
   0  -3  -3   38.92    1.94
   0   3  -4    2.12    0.49
   0   3   4    1.87    0.57
   0  -3   4    1.85    0.55
   0   3  -5   20.62    1.39
   0   3   5   22.63    1.71
   0  -3   5   20.74    1.62
   0   3  -6    0.85    0.55
   0   3   6   -0.20    0.53
   0  -3  -6    0.24    0.64
   0  -3   6    0.48    0.59
   0  -3   7    9.83    1.53
   0  -3  -7    7.04    1.38
   0  -3  -8    0.54    0.82
   0  -3   8    1.03    0.87
   0  -3   9    2.60    1.13
   0  -3  -9    4.47    1.33
   0   4   0  147.41    5.24
   0   4  -1   -0.15    0.27
   0  -4  -1   -0.50    0.06
   0  -4   1   -0.34    0.26
   0   4  -2   58.46    2.42
   0  -4  -2   56.17    2.49
   0  -4   2   60.84    2.48
   0   4  -3   91.60    3.68
   0  -4  -3   92.49    3.88
   0  -4   3   95.51    3.85
   0   4  -4   11.89    1.07
   0  -4   4    9.99    1.13
   0  -4  -4   14.26    1.38
   0   4  -5   51.56    2.44
   0  -4   5   46.51    2.65
   0  -4  -5   44.78    2.65
   0   4  -6   11.90    1.31
   0  -4   6   13.46    1.65
   0  -4  -6   16.02    1.87
   0  -4   7    3.04    1.01
   0  -4  -7    4.45    1.13
   0  -4   8    0.87    0.87
   0  -4  -8    0.35    0.79
   0  -4   9    6.46    1.63
   0  -4  -9    5.78    1.48
   0   5   0   -0.02    0.25
   0  -5   0   -0.13    0.22
   0   5  -1   47.77    2.02
   0  -5   1   46.08    2.03
   0   5  -2   71.89    2.95
   0  -5   2   73.04    3.01
   0   5  -3  188.07    7.22
   0  -5  -3  205.90    7.46
   0  -5   3  197.22    7.37
   0   5  -4    0.20    0.38
   0  -5  -4    0.93    0.52
   0  -5   4    0.82    0.42
   0   5  -5    3.82    0.74
   0  -5  -5    5.21    1.07
   0  -5   5    3.72    0.84
   0   5  -6    9.96    1.23
   0  -5  -6    9.89    1.46
   0  -5   6    7.80    1.25
   0  -5   7    2.36    0.92
   0  -5  -7    2.71    1.03
   0  -5   8    0.11    0.79
   0  -5  -8    0.43    0.92
   0  -5   9    5.20    1.52
   0  -5  -9    1.19    1.13
   0   6   0  243.55    8.76
   0  -6   0  250.92    8.81
   0   6  -1   45.39    2.09
   0  -6   1   49.56    2.11
   0   6  -3   13.54    1.02
   0  -6   3   14.49    1.11
   0  -6  -3   14.56    1.15
   0   6  -4   28.38    1.63
   0  -6  -4   27.94    1.80
   0  -6   4   24.48    1.68
   0   6  -5    4.46    0.80
   0  -6  -5    4.87    1.06
   0  -6   5    5.18    0.97
   0   6  -6    3.76    0.85
   0  -6  -6    2.26    0.86
   0  -6   6    4.32    1.08
   0  -6   7   -0.19    0.59
   0  -6  -7   -0.07    0.66
   0  -6  -8    2.31    1.04
   0  -6   8    1.50    0.90
   0  -6  -9    1.40    1.05
   0  -6   9    0.46    0.93
   0   7   0   -0.35    0.25
   0  -7   0   -0.10    0.26
   0   7  -1   12.45    0.93
   0  -7   1   14.04    0.98
   0   7  -2   -0.37    0.28
   0  -7  -2    0.07    0.12
   0  -7   2    0.75    0.33
   0   7  -3   54.33    2.50
   0  -7  -3   52.72    2.59
   0  -7   3   49.97    2.50
   0   7  -4    0.56    0.43
   0  -7   4    0.55    0.42
   0  -7  -4    0.75    0.49
   0   7  -5    3.42    0.79
   0  -7   5    3.70    0.89
   0  -7  -5    2.46    0.83
   0   7  -6    3.91    0.91
   0  -7   6    3.25    0.93
   0  -7  -6    4.14    1.08
   0  -7   7    3.93    1.14
   0  -7  -7    3.75    1.13
   0  -7  -8    0.65    0.82
   0  -7   8    0.63    0.77
   0  -7  -9    4.91    1.40
   0  -7   9    2.89    1.29
   0   8   0   -0.43    0.19
   0  -8   0   -0.46    0.21
   0   8  -1   74.95    3.10
   0  -8  -1   71.20    3.11
   0   8  -2  331.32   11.97
   0  -8   2  338.71   12.03
   0   8  -3  106.86    4.45
   0  -8  -3  113.83    4.66
   0  -8   3  108.50    4.56
   0   8  -4    1.16    0.57
   0  -8   4    1.12    0.50
   0  -8  -4    0.74    0.53
   0   8  -5    1.82    0.70
   0  -8   5    1.09    0.68
   0  -8  -5    2.69    0.86
   0   8  -6    0.61    0.62
   0  -8  -6   -0.59    0.62
   0  -8   6    0.43    0.60
   0  -8  -7   13.14    1.84
   0  -8   7   13.56    1.82
   0  -8  -8    0.30    0.75
   0  -8   8    0.65    0.90
   0  -8   9   -0.09    0.89
   0  -8  -9   -0.06    0.93
   0   9   0   -0.07    0.41
   0  -9   0   -0.32    0.34
   0  -9  -1  300.22   10.69
   0  -9   1  288.79   10.62
   0   9  -2   16.25    1.21
   0  -9   2   17.44    1.29
   0   9  -3   16.65    1.30
   0  -9   3   18.51    1.37
   0   9  -4   12.94    1.29
   0  -9  -4   10.02    1.31
   0  -9   4   13.30    1.40
   0   9  -5   26.55    1.87
   0  -9  -5   24.00    2.21
   0  -9   5   27.47    2.04
   0   9  -6    2.69    0.86
   0  -9  -6    3.58    1.04
   0  -9   6    3.50    1.02
   0  -9  -7    7.26    1.51
   0  -9   7    5.09    1.24
   0  -9   8    1.54    0.95
   0  -9  -8    0.14    0.84
   0  -9   9    2.82    1.28
   0  10   0   -0.11    0.37
   0 -10   0    0.30    0.42
   0 -10   1   65.33    2.92
   0 -10  -1   60.53    2.88
   0  10  -2    3.79    0.72
   0 -10  -2    3.51    0.68
   0  10  -3   10.34    1.14
   0 -10   3    8.78    1.11
   0  10  -4   46.01    2.48
   0 -10   4   40.07    2.44
   0  10  -5    0.03    0.58
   0 -10   5    0.97    0.66
   0 -10  -5   -0.29    0.56
   0  10  -6    0.58    0.67
   0 -10  -6    0.03    0.73
   0 -10   6    0.31    0.62
   0 -10  -7    4.47    1.22
   0 -10   7    4.28    1.17
   0 -10   8    1.55    0.89
   0 -10  -8    1.15    0.97
   0 -10   9    0.52    1.01
   0  11   0    0.24    0.40
   0 -11   0    0.13    0.42
   0 -11  -1  325.78   11.82
   0 -11   1  320.79   11.77
   0  11  -2   86.48    3.83
   0 -11   2   88.63    3.87
   0 -11  -2   84.92    3.84
   0  11  -3    0.10    0.47
   0 -11  -3    0.12    0.24
   0 -11   3   -0.13    0.37
   0  11  -4    0.54    0.62
   0 -11  -4   -0.23    0.24
   0 -11   4   -0.21    0.53
   0  11  -5    0.97    0.76
   0 -11  -5    0.42    0.64
   0 -11   5    0.55    0.62
   0  11  -6    9.67    1.36
   0 -11   6    8.48    1.43
   0 -11  -6    9.65    1.58
   0 -11   7   -0.45    0.60
   0 -11  -7   -0.32    0.72
   0 -11  -8    0.95    1.04
   0 -11   8    0.34    0.87
   0 -11   9    2.68    1.28
   0  12   0  247.80    9.22
   0 -12   0  244.56    9.26
   0 -12  -1  245.13    9.13
   0 -12   1  236.01    9.07
   0  12  -2   47.63    2.62
   0 -12   2   51.15    2.65
   0 -12  -2   50.47    2.66
   0  12  -3    2.70    0.76
   0 -12   3    2.13    0.68
   0  12  -4  107.88    4.76
   0 -12   4  105.90    4.87
   0  12  -5    9.79    1.36
   0 -12   5   10.96    1.50
   0 -12  -5   12.68    1.66
   0  12  -6    8.20    1.37
   0 -12  -6    5.01    1.28
   0 -12   6    8.72    1.49
   0 -12   7   -0.77    0.65
   0 -12  -7    0.24    0.86
   0 -12   8    5.16    1.50
   0 -12  -8    2.83    1.25
   0  13   0    0.41    0.49
   0 -13   0    0.27    0.50
   0 -13  -1   23.64    1.70
   0 -13   1   26.67    1.75
   0  13  -2   21.66    1.67
   0 -13  -2   23.22    1.73
   0 -13   2   24.21    1.73
   0  13  -3   61.13    3.14
   0 -13   3   59.00    3.14
   0  13  -4    3.04    0.91
   0 -13  -4    4.62    1.06
   0 -13   4    4.75    0.99
   0  13  -5    0.43    0.66
   0 -13   5    1.44    0.78
   0 -13  -5    1.22    0.83
   0  13  -6    4.90    1.16
   0 -13  -6    1.91    0.98
   0 -13   6    3.59    1.08
   0 -13   7    5.40    1.37
   0 -13  -7    4.90    1.40
   0 -13  -8    0.77    1.05
   0 -13   8    1.93    1.17
   0  14   0  178.69    7.07
   0 -14   0  174.92    7.12
   0 -14   1   11.69    1.34
   0 -14  -1   14.92    1.56
   0  14  -2    5.63    1.01
   0 -14   2    4.33    0.88
   0 -14  -2    3.39    0.84
   0  14  -3    8.33    1.25
   0 -14   3    9.35    1.29
   0  14  -4    7.02    1.21
   0 -14   4    5.49    1.10
   0 -14  -4    6.82    1.23
   0  14  -5    1.77    0.83
   0 -14   5    0.55    0.72
   0 -14  -5    0.77    0.79
   0  14  -6    7.53    1.46
   0 -14   6   10.73    1.68
   0 -14  -6   10.12    1.67
   0  14  -7    3.96    1.60
   0 -14   7    2.49    1.14
   0 -14  -7    2.46    1.14
   0 -14  -8   -0.73    0.92
   0 -14   8   -0.31    0.79
   0  15   0   -0.13    0.54
   0 -15   0    0.41    0.61
   0 -15  -1   59.94    3.14
   0 -15   1   56.43    3.06
   0 -15  -2    5.15    1.11
   0 -15   2    3.87    0.91
   0  15  -3    7.20    1.28
   0 -15   3    6.46    1.14
   0 -15  -3    4.89    1.05
   0  15  -4    7.68    1.28
   0 -15   4    6.73    1.22
   0 -15  -4    5.24    1.14
   0  15  -5    6.52    1.26
   0 -15  -5    7.55    1.46
   0 -15   5   10.13    1.59
   0  15  -6    2.80    1.00
   0 -15  -6    4.07    1.28
   0 -15   6    0.85    0.77
   0  15  -7    0.36    0.84
   0 -15  -7    3.43    1.22
   0 -15   7    2.06    1.07
   0 -15   8    1.83    1.17
   0  16   0   30.24    2.14
   0 -16   0   32.95    2.26
   0 -16   1   34.32    2.27
   0 -16  -1   33.22    2.26
   0  16  -2   10.75    1.52
   0 -16   2   13.21    1.61
   0 -16  -2   15.17    1.70
   0  16  -3    2.38    0.89
   0 -16   3    2.06    0.76
   0 -16  -3    2.56    0.94
   0  16  -4   11.69    1.58
   0 -16  -4   11.48    1.61
   0 -16   4   14.36    1.76
   0  16  -5    0.25    0.74
   0 -16   5    1.78    0.88
   0 -16  -5    1.42    0.88
   0  16  -6    1.52    0.90
   0 -16  -6   -0.33    0.70
   0 -16   6   -0.18    0.70
   0  16  -7    0.94    1.07
   0 -16  -7    0.68    0.96
   0 -16   7    4.27    1.30
   0 -16   8   -1.04    0.71
   0  17   0    0.31    0.67
   0 -17   0    0.04    0.66
   0  17  -1    3.06    0.90
   0 -17   1    1.74    0.76
   0 -17  -1    2.50    0.87
   0  17  -2   15.36    1.78
   0 -17   2   14.24    1.70
   0 -17  -2   15.58    1.81
   0  17  -3    5.83    1.26
   0 -17  -3    6.73    1.33
   0 -17   3    6.23    1.20
   0  17  -4    5.43    1.27
   0 -17  -4    4.98    1.17
   0 -17   4    6.29    1.27
   0  17  -5    0.53    0.89
   0 -17   5    0.08    0.63
   0 -17  -5    0.67    0.80
   0  17  -6    1.14    1.02
   0 -17  -6    0.86    0.87
   0 -17   6   -0.77    0.59
   0  17  -7    2.74    1.26
   0 -17  -7    1.09    1.12
   0 -17   7    0.94    0.89
   0 -18   0  121.53    5.59
   0  18  -1    0.88    0.78
   0 -18  -1   -0.57    0.53
   0 -18   1    0.46    0.60
   0  18  -2    5.16    1.16
   0 -18  -2    6.97    1.29
   0 -18   2    7.07    1.29
   0  18  -3    1.40    0.88
   0 -18  -3    3.47    1.01
   0 -18   3    1.08    0.70
   0  18  -4    0.83    0.82
   0 -18  -4   -0.35    0.79
   0 -18   4    1.03    0.88
   0  18  -5    2.02    1.01
   0 -18  -5    3.48    1.13
   0 -18   5    3.80    1.10
   0  18  -6    0.74    1.08
   0 -18  -6    1.89    1.00
   0 -18   6    1.34    0.85
   0  18  -7    0.68    1.03
   0 -18   7    0.74    0.92
   0 -18  -7    1.73    1.33
   0 -19   0    0.92    0.71
   0  19  -1   10.58    1.60
   0 -19   1   15.19    1.81
   0 -19  -1   17.70    1.98
   0  19  -2    0.39    0.66
   0 -19   2   -0.43    0.59
   0 -19  -2    0.46    0.68
   0  19  -3   10.69    1.63
   0 -19   3   10.92    1.64
   0 -19  -3   13.57    1.87
   0  19  -4   -0.83    0.61
   0 -19  -4    0.00    0.69
   0 -19   4   -0.77    0.63
   0  19  -5    1.60    0.97
   0 -19   5    1.69    1.01
   0 -19  -5    1.51    1.02
   0  19  -6    0.70    0.95
   0 -19  -6    1.18    0.96
   0 -19   6    0.53    0.84
   0  19  -7    2.26    1.30
   0 -19   7    2.44    1.18
   0 -20   0   62.90    3.68
   0  20  -1    1.60    0.93
   0 -20   1    4.23    1.12
   0 -20  -1    3.16    1.06
   0  20  -2   13.23    1.86
   0 -20  -2   13.01    1.86
   0 -20   2   17.27    2.12
   0  20  -3   44.59    3.10
   0 -20  -3   48.78    3.29
   0 -20   3   48.07    3.15
   0  20  -4   -0.01    0.89
   0 -20   4    0.82    0.83
   0 -20  -4   -0.60    0.68
   0  20  -5   -0.30    0.85
   0 -20  -5   -0.69    0.80
   0 -20   5   -0.29    0.76
   0  20  -6    3.57    1.33
   0 -20  -6    2.70    1.23
   0 -20   6    2.80    1.15
   0  20  -7    2.20    1.32
   0 -20   7    0.13    1.00
   0 -21   0    1.23    0.83
   0  21  -1   45.35    3.09
   0 -21  -1   52.16    3.30
   0 -21   1   42.95    3.06
   0  21  -2    8.22    1.52
   0 -21   2    5.40    1.29
   0 -21  -2    5.55    1.34
   0  21  -3    3.75    1.21
   0 -21  -3    4.99    1.27
   0 -21   3    4.26    1.20
   0  21  -4    4.99    1.46
   0 -21   4    7.23    1.47
   0 -21  -4    3.96    1.33
   0  21  -5   13.37    2.03
   0 -21  -5    7.12    1.65
   0 -21   5    5.94    1.45
   0  21  -6    1.46    1.21
   0 -21  -6   -1.08    1.28
   0 -21   6    0.73    1.11
   0 -22   0    2.83    1.09
   0  22  -1    9.84    1.71
   0 -22   1   10.14    1.67
   0 -22  -1   12.72    1.87
   0  22  -2   20.01    2.36
   0 -22   2   21.57    2.46
   0 -22  -2   19.61    2.33
   0  22  -3    2.31    1.05
   0 -22   3    0.48    0.74
   0 -22  -3    0.46    0.83
   0  22  -4    7.19    1.63
   0 -22   4    8.20    1.64
   0 -22  -4    7.04    1.58
   0  22  -5    6.76    1.58
   0 -22   5    6.28    1.57
   0 -22  -5    6.07    1.58
   0  22  -6    1.71    1.33
   0 -22   6    2.95    1.30
   0 -23   0    0.31    0.73
   0 -23   1   28.68    2.81
   0 -23  -1   25.91    2.74
   0  23  -2   32.28    3.13
   0 -23   2   34.73    3.23
   0 -23  -2   34.42    3.13
   0  23  -3    1.97    1.13
   0 -23   3    2.14    1.06
   0 -23  -3    1.97    1.15
   0  23  -4    1.42    1.05
   0 -23  -4    1.78    1.19
   0 -23   4    1.00    0.82
   0  23  -5    0.55    1.08
   0 -23   5   -1.12    0.74
   0 -23  -5    0.22    1.05
   0 -24   0   42.78    3.16
   0 -24   1    4.80    1.26
   0 -24  -1    3.66    1.26
   0  24  -2    9.14    1.79
   0 -24   2    8.69    1.75
   0 -24  -2   10.10    1.81
   0  24  -3    0.69    1.01
   0 -24  -3   -1.09    0.67
   0 -24   3    0.61    0.84
   0  24  -4    1.03    1.21
   0 -24  -4    1.37    1.07
   0 -24   4    2.13    1.02
   0  24  -5   -0.59    0.96
   0 -24   5    0.59    0.97
   0 -25   0    1.18    0.98
   0 -25   1   10.11    1.87
   0 -25  -1    8.06    1.68
   0  25  -2   -0.39    0.85
   0 -25  -2    0.88    0.99
   0 -25   2   -0.24    0.86
   0  25  -3    8.87    1.88
   0 -25   3    8.00    1.73
   0 -25  -3    8.03    1.74
   0  25  -4    2.70    1.50
   0 -25   4    2.83    1.25
   0 -25  -4    0.70    1.55
   0 -26   0    5.76    1.57
   0 -26   1    7.22    1.63
   0 -26  -1    7.22    1.70
   0 -26   2    3.63    1.40
   0 -26  -2    3.95    1.46
   0  26  -3    9.16    1.90
   0 -26  -3    7.16    1.75
   0 -26   3   11.03    2.01
   0  26  -4    0.53    1.26
   0 -26   4   -0.40    0.93
   0 -27   0   -0.86    0.86
   0 -27  -1   15.64    2.43
   0 -27   1   17.06    2.46
   0 -27  -2    0.65    1.07
   0 -27   2   -0.22    0.83
   0  27  -3   -0.77    0.92
   0 -27   3   -1.10    0.80
   0 -28   0    3.56    1.32
   0 -28   1    3.46    1.44
  -1   0   9    0.03    0.73
   1   0  -9    0.35    0.92
  -1   0   8   15.53    2.08
  -1   0   7   -0.19    0.66
  -1   0   6    7.33    1.19
   1   0  -6    7.68    1.02
  -1   0   5   -0.41    0.36
  -1   0   4  531.79   18.76
  -1   0   3   -0.21    0.24
  -1   0   2   26.64    1.30
  -1   0   1   -0.20    0.16
   1   0   0    0.00    0.03
   1   0   1    0.01    0.06
   1   0   2  298.65   10.52
   1   0   3   -0.38    0.25
   1   0   4  185.19    7.10
  -1   0  -4  180.49    6.63
  -1   0  -5    0.11    0.32
   1   0   5    0.15    0.49
   1   0   6    8.23    1.32
   1   0   7    0.23    0.69
   1   0   8    3.72    1.17
   1   0   9   -0.04    0.96
   1  -1  -9   -0.31    0.81
  -1  -1   9    0.27    0.76
  -1   1   8   -0.75    0.69
   1  -1  -8    0.46    0.75
  -1  -1   8    0.21    0.75
  -1   1   7    4.95    1.13
  -1  -1   7    7.75    1.32
  -1   1   6    1.72    0.71
   1   1  -6    1.54    0.55
  -1  -1   6    1.76    0.75
   1   1  -5    1.04    0.48
  -1   1   5    0.32    0.49
  -1  -1   5    0.09    0.44
  -1   1   4   97.76    4.10
  -1  -1   4   92.94    4.03
  -1  -1   3   -0.09    0.19
  -1   1   2  181.18    6.61
  -1  -1   2  185.21    6.59
   1  -1  -1  105.72    3.70
  -1  -1   1  101.84    3.67
   1  -1   0   29.10    1.14
  -1  -1   0   32.19    1.11
   1  -1   1   -0.09    0.03
  -1   1  -3    1.71    0.35
   1   1   3    1.53    0.50
   1  -1   3    1.12    0.48
  -1   1  -4   15.41    0.98
   1   1   4   13.86    1.35
   1  -1   4   14.03    1.36
   1   1   5    4.15    0.90
  -1   1  -5    3.09    0.59
   1  -1   5    2.53    0.73
   1   1   6   15.62    1.76
   1  -1   6   15.12    1.80
   1   1   7   23.77    2.39
   1  -1   7   19.42    2.17
   1   1   8    2.23    0.99
   1  -1   8    0.59    0.81
   1   1   9   30.22    3.23
   1  -1   9   27.65    3.04
  -1  -2   9    0.73    1.01
   1  -2  -9    1.57    1.03
  -1  -2   8    0.69    0.79
   1  -2  -8   -1.17    0.56
  -1   2   7    2.13    0.95
   1  -2  -7    2.25    0.93
  -1  -2   7    3.64    1.07
  -1   2   6    3.33    0.92
   1   2  -6    1.68    0.64
  -1  -2   6    1.70    0.70
   1   2  -5   29.26    1.74
  -1   2   5   31.07    2.01
  -1  -2   5   32.04    2.03
   1   2  -4    0.24    0.34
  -1   2   4    0.01    0.39
  -1  -2   4    0.18    0.35
   1   2  -3   16.25    1.02
  -1   2   3   13.83    1.03
   1   2  -2  115.34    4.51
  -1  -2   2  127.91    4.56
   1  -2  -2  124.99    4.59
   1  -2  -1  255.64    8.84
  -1  -2   1  255.38    8.78
   1  -2   0  235.02    8.13
  -1  -2   0  237.56    8.07
  -1   2  -2   71.95    2.70
   1  -2   2   70.29    2.88
   1   2   3  266.52    9.58
  -1   2  -3  260.24    9.22
   1  -2   3  259.61    9.53
  -1   2  -4  283.10   10.18
   1   2   4  285.99   10.65
   1  -2   4  292.17   10.63
  -1   2  -5    0.84    0.42
   1   2   5    0.89    0.59
   1  -2   5    1.03    0.66
   1   2   6   21.23    2.10
   1  -2   6   23.32    2.19
   1   2   7   14.68    1.87
   1  -2   7   12.92    1.78
   1   2   8   35.76    2.84
   1  -2   8   36.63    3.31
   1  -2   9   -1.77    0.69
  -1  -2  -9    0.54    1.00
   1  -3  -9    1.70    1.16
  -1  -3   9    0.80    0.95
  -1  -3   8   -0.36    0.74
   1  -3  -8   -0.30    0.65
  -1  -3   7    5.53    1.20
   1  -3  -7    4.42    1.09
   1   3  -6    1.83    0.68
   1  -3  -6    1.95    0.79
  -1  -3   6    1.29    0.69
   1   3  -5   15.14    1.36
  -1   3   5   14.81    1.60
  -1  -3   5   18.86    1.47
   1  -3  -5   17.38    1.65
   1   3  -4    0.14    0.35
  -1   3   4    0.26    0.42
   1  -3  -4    0.24    0.42
  -1  -3   4   -0.12    0.36
   1   3  -3  373.91   13.07
   1  -3  -3  370.51   13.21
   1   3  -2  236.45    8.33
   1  -3  -2  233.47    8.38
  -1  -3   2  233.90    8.32
   1   3  -1  525.54   17.77
   1  -3  -1  523.95   17.79
  -1  -3   1  511.64   17.71
   1   3   1  161.44    5.84
  -1  -3  -1  167.53    5.87
   1   3   3   41.34    2.07
  -1   3  -3   38.84    1.80
   1  -3   3   41.73    2.06
  -1   3  -4   52.06    2.35
   1   3   4   55.82    2.75
   1  -3   4   49.93    2.64
  -1   3  -5   15.01    1.10
   1   3   5   12.06    1.46
   1  -3   5   13.22    1.47
   1   3   6    8.80    1.38
   1  -3   6    9.43    1.43
   1   3   7    5.22    1.27
  -1  -3  -7    1.69    0.87
   1  -3   7    5.27    1.26
  -1  -3  -8    2.68    1.12
   1  -3   8    2.70    1.11
   1  -3   9    0.94    1.10
  -1  -3  -9    4.64    1.54
  -1  -4   9    1.41    0.93
   1  -4  -9   -0.05    0.83
   1  -4  -8   -0.73    0.56
  -1  -4   8   -0.55    0.60
   1  -4  -7    4.52    1.24
  -1  -4   7    2.45    0.87
   1   4  -6    0.92    0.58
  -1  -4   6    1.19    0.67
   1  -4  -6   -0.04    0.57
   1   4  -5    4.28    0.79
  -1  -4   5    5.45    0.97
   1  -4  -5    4.85    0.96
   1   4  -4   68.33    3.03
  -1  -4   4   70.84    3.18
   1  -4  -4   67.41    3.20
   1   4  -3   55.89    2.32
  -1  -4   3   39.18    2.19
   1  -4  -3   57.05    2.45
   1   4  -2    4.27    0.56
  -1  -4   2    4.14    0.52
   1  -4  -2    5.10    0.64
   1   4  -1  348.83   11.80
  -1  -4   1  332.74   11.74
   1  -4  -1  338.40   11.82
   1   4   1  185.84    6.61
  -1   4  -1  185.22    6.60
  -1  -4  -1  186.61    6.65
   1  -4   1  186.35    6.68
  -1   4  -2    3.24    0.48
   1  -4   2    4.24    0.59
  -1   4  -3   39.55    1.81
  -1  -4  -3   39.41    2.02
   1  -4   3   36.74    1.97
  -1   4  -4   33.66    1.74
   1   4   4   36.14    2.07
   1  -4   4   34.38    2.00
  -1  -4  -4   31.44    2.02
   1   4   5    1.81    0.70
  -1   4  -5    1.59    0.54
  -1  -4  -5    1.00    0.65
   1  -4   5    1.03    0.69
  -1  -4  -6    0.30    0.68
   1  -4   6   -0.38    0.43
   1  -4   7   10.56    1.68
  -1  -4  -7   13.09    1.78
  -1  -4  -8   19.58    2.36
   1  -4   8   17.67    2.24
  -1  -4  -9    0.11    0.94
   1  -4   9   -0.84    0.82
  -1  -5   9   -0.22    0.85
   1  -5  -9   -0.13    0.86
   1  -5  -8    8.88    1.67
  -1  -5   8    9.36    1.65
   1  -5  -7   -0.05    0.65
  -1  -5   7    0.13    0.58
   1   5  -6    0.04    0.48
  -1  -5   6    1.04    0.72
   1  -5  -6    0.98    0.79
   1   5  -5   39.11    2.13
   1  -5  -5   38.93    2.36
  -1  -5   5   35.99    2.28
   1   5  -4    0.10    0.33
  -1  -5   4    0.40    0.41
   1  -5  -4    0.95    0.52
   1   5  -3  102.31    4.10
  -1  -5   3  102.16    4.13
   1  -5  -3  103.27    4.22
   1   5  -2    0.82    0.34
  -1  -5   2    0.43    0.29
   1  -5  -2    0.75    0.37
   1  -5  -1  110.96    4.22
  -1  -5   1  111.87    4.16
  -1   5  -1  124.22    4.57
   1   5   1  116.74    4.53
   1  -5   1  121.91    4.63
  -1  -5  -1  129.27    4.63
  -1   5  -3   19.66    1.22
  -1  -5  -3   19.41    1.34
   1  -5   3   21.93    1.39
  -1   5  -4    2.22    0.52
   1  -5   4    2.80    0.67
  -1  -5  -4    1.81    0.63
  -1   5  -5    9.08    1.04
  -1  -5  -5    7.66    1.24
   1  -5   5    7.96    1.17
   1  -5   6    8.92    1.34
  -1  -5  -6    9.27    1.46
  -1  -5  -7   11.96    1.76
   1  -5   7   11.17    1.69
   1  -5   8    1.02    0.95
  -1  -5  -8    1.59    0.97
   1  -5   9   17.53    2.41
  -1  -5  -9   13.78    2.16
   1  -6  -9   -0.61    0.80
  -1  -6   9   -1.24    0.63
   1  -6  -8    1.57    0.99
  -1  -6   8    3.45    1.17
   1  -6  -7    0.15    0.69
  -1  -6   7   -0.40    0.59
   1   6  -6    0.13    0.55
  -1  -6   6   -0.20    0.50
   1  -6  -6    0.58    0.71
   1   6  -5   18.77    1.44
  -1  -6   5   20.37    1.82
   1  -6  -5   19.59    1.85
   1   6  -4  184.41    6.97
  -1  -6   4  175.53    7.03
   1  -6  -4  185.63    7.17
   1   6  -3   -0.14    0.33
   1   6  -3   -0.02    0.19
   1  -6  -3    0.50    0.39
  -1  -6   3   -0.13    0.32
   1   6  -2  170.86    6.39
  -1  -6   2  175.41    6.39
   1  -6  -2  170.84    6.45
   1   6  -1   -0.05    0.11
  -1  -6   1    1.81    0.38
   1  -6  -1    0.10    0.21
   1   6   0    8.95    0.79
   1   6   0    8.78    0.64
  -1  -6   0   10.12    0.82
  -1   6  -1   24.58    1.35
   1  -6   1   25.40    1.39
  -1  -6  -1   30.15    1.46
  -1   6  -2   -0.33    0.28
   1  -6   2    0.25    0.27
  -1  -6  -2    0.10    0.22
  -1   6  -3    8.21    0.85
   1  -6   3    8.91    1.01
  -1   6  -4    1.60    0.52
   1  -6   4    0.37    0.44
  -1  -6  -4    1.32    0.59
  -1   6  -5    0.92    0.52
  -1  -6  -5    1.75    0.76
   1  -6   5    0.62    0.54
  -1   6  -6    3.17    0.92
   1  -6   6    3.56    0.97
  -1  -6  -6    2.76    0.97
   1  -6   7    0.18    0.63
  -1  -6  -7   -0.11    0.69
  -1  -6  -8    4.44    1.31
   1  -6   8    6.77    1.47
  -1  -6  -9   -1.06    0.89
   1  -6   9   -0.88    0.71
  -1  -7   9    0.17    0.92
   1  -7  -9    1.07    1.03
  -1  -7   8    3.65    1.14
   1  -7  -8    4.02    1.23
   1  -7  -7    0.71    0.84
  -1  -7   7    0.00    0.72
   1   7  -6   12.27    1.46
   1  -7  -6    9.81    1.52
  -1  -7   6    9.58    1.43
   1   7  -5   23.67    1.66
   1  -7  -5   24.71    1.92
  -1  -7   5   21.53    1.70
   1   7  -4    3.24    0.74
   1   7  -4    4.35    0.52
  -1  -7   4    2.53    0.65
   1  -7  -4    4.06    0.82
   1   7  -3   15.23    1.14
   1  -7  -3   15.07    1.34
  -1  -7   3   14.70    1.11
   1   7  -2  115.96    4.59
   1  -7  -2  117.72    4.65
  -1   7  -1    1.01    0.40
   1   7   1    1.17    0.37
  -1  -7  -1    0.28    0.25
   1  -7   1   -0.05    0.22
  -1   7  -2   16.63    1.13
  -1  -7  -2   15.69    1.14
   1  -7   2   15.73    1.15
  -1   7  -3   36.00    1.91
   1  -7   3   38.86    2.06
  -1   7  -4    0.59    0.48
   1  -7   4   -0.03    0.39
  -1  -7  -4   -0.33    0.38
  -1   7  -5   11.35    1.24
  -1  -7  -5   13.03    1.60
   1  -7   5   14.41    1.60
  -1   7  -6    0.30    0.57
  -1  -7  -6    0.34    0.68
   1  -7   6   -0.40    0.51
   1  -7   7   30.87    2.38
  -1  -7  -7   19.34    2.28
  -1  -7  -8   -0.43    0.84
   1  -7   8    0.79    0.93
  -1  -7  -9    9.61    1.88
   1  -7   9   10.41    1.99
   1  -8  -9    0.04    0.84
  -1  -8   9   -0.08    0.86
   1  -8  -8   -0.45    0.83
  -1  -8   8    0.15    0.76
  -1  -8   7    3.66    1.03
   1  -8  -7    5.23    1.26
   1   8  -6   10.92    1.40
   1  -8  -6   11.70    1.63
  -1  -8   6   12.35    1.57
   1   8  -5    7.28    1.09
  -1  -8   5    8.58    1.20
   1  -8  -5    9.54    1.36
   1   8  -4   13.36    1.31
   1  -8  -4   10.77    1.26
  -1  -8   4   11.04    1.23
   1   8  -3    3.17    0.67
   1  -8  -3    5.16    0.86
  -1  -8   3    3.54    0.69
   1   8  -2  413.61   14.74
  -1  -8   2  424.38   14.75
   1  -8  -2  413.37   14.82
   1   8  -1    0.01    0.10
   1  -8  -1    0.03    0.09
  -1  -8   1    0.52    0.25
  -1   8   0   -0.21    0.15
   1   8   0   -0.02    0.24
   1  -8   0    0.20    0.23
   1   8   1    0.43    0.32
  -1   8  -1    0.08    0.36
  -1  -8  -1    1.02    0.40
   1  -8   1    0.49    0.35
  -1   8  -2   94.10    3.85
  -1  -8  -2   93.55    3.91
   1  -8   2   91.96    3.90
  -1   8  -3  144.45    5.68
   1  -8   3  147.79    5.88
  -1   8  -4   17.08    1.33
   1  -8   4   16.80    1.57
  -1   8  -5    2.16    0.70
   1  -8   5    1.03    0.68
  -1  -8  -5    0.65    0.59
  -1   8  -6    4.33    0.93
   1  -8   6    4.32    1.07
  -1  -8  -6    4.51    1.12
  -1  -8  -7    6.04    1.44
   1  -8   7    9.91    1.64
   1  -8   8   13.64    2.02
  -1  -8  -8    9.48    1.80
  -1  -8  -9    0.32    1.02
   1  -8   9    0.15    0.94
   1  -9  -9    3.99    1.38
  -1  -9   9    7.73    1.74
   1  -9  -8    0.38    0.89
  -1  -9   8    1.23    0.98
   1   9  -7    6.97    1.44
   1  -9  -7    7.89    1.51
  -1  -9   7    9.14    1.56
   1   9  -6   -0.52    0.56
  -1  -9   6    0.41    0.53
   1  -9  -6    0.78    0.70
   1   9  -5   12.32    1.42
   1  -9  -5   10.56    1.44
  -1  -9   5   12.31    1.49
   1   9  -4    8.83    1.15
  -1  -9   4    7.10    1.04
   1  -9  -4   11.75    1.41
   1   9  -3  189.79    7.28
  -1  -9   3  186.94    7.28
   1  -9  -3  192.56    7.41
   1   9  -2    3.34    0.65
  -1  -9   2    4.08    0.71
   1  -9  -2    3.38    0.64
   1   9   0   26.44    1.50
  -1   9   0   26.98    1.53
   1  -9   0   29.56    1.61
  -1  -9   0   24.39    1.48
  -1   9  -1   26.27    1.45
   1   9   1   17.00    1.25
   1  -9   1   25.84    1.48
  -1  -9  -1   21.72    1.38
  -1   9  -2   15.34    1.17
   1  -9   2   14.34    1.33
  -1  -9  -2   17.55    1.28
  -1   9  -3   92.50    3.79
  -1  -9  -3   76.99    3.80
   1  -9   3   90.60    3.92
  -1   9  -4   -0.12    0.50
  -1  -9  -4    0.12    0.24
   1  -9   4    0.29    0.53
  -1   9  -5   10.48    1.28
  -1  -9  -5   10.30    1.45
   1  -9   5   12.70    1.56
  -1   9  -6    2.46    0.80
   1  -9   6    3.74    1.04
  -1  -9  -6    3.82    1.03
   1  -9   7    3.03    1.09
  -1  -9  -7    1.23    0.96
   1  -9   8   -0.04    0.67
  -1  -9  -8   -0.10    0.79
   1  -9   9    0.53    0.95
  -1 -10   8    0.90    0.81
   1 -10  -8    2.52    1.20
   1  10  -7   -0.19    0.73
   1 -10  -7    0.28    0.90
  -1 -10   7   -0.39    0.67
   1  10  -6   10.36    1.40
  -1 -10   6    6.51    1.26
   1 -10  -6    5.32    1.20
   1  10  -5    4.51    0.94
  -1 -10   5    4.70    1.02
   1 -10  -5    4.56    1.10
   1  10  -4    0.85    0.64
   1 -10  -4    0.49    0.57
  -1 -10   4    0.32    0.49
   1  10  -3   18.22    1.58
  -1 -10   3   15.86    1.50
   1 -10  -3   15.07    1.49
   1  10  -2   27.70    1.70
  -1 -10   2   25.97    1.63
  -1 -10   1   14.28    1.10
   1 -10  -1   13.89    1.11
  -1  10   0  547.09   18.93
   1  10   0  531.00   18.87
   1 -10   0  544.47   18.99
  -1 -10   0  537.39   18.91
   1  10   1   -0.44    0.29
  -1  10  -1    0.01    0.36
   1 -10   1   -0.44    0.29
  -1 -10  -1   -0.43    0.36
  -1  10  -2    2.77    0.65
   1 -10   2    3.41    0.71
  -1 -10  -2    2.75    0.64
  -1  10  -3   -0.46    0.38
  -1 -10  -3    0.48    0.49
   1 -10   3    0.00    0.40
  -1  10  -4   25.64    1.76
   1 -10   4   29.24    1.98
  -1  10  -5    0.29    0.55
   1 -10   5    0.23    0.52
  -1 -10  -5    1.09    0.68
  -1  10  -6    4.06    0.98
  -1 -10  -6    3.78    1.09
  -1 -10  -7    9.05    1.73
   1 -10   7    8.94    1.62
  -1 -10  -8   15.73    2.24
   1 -10   9    0.96    0.94
   1 -11  -8   11.54    1.99
  -1 -11   8   12.01    1.94
   1  11  -7    1.76    0.80
   1 -11  -7    0.72    0.92
  -1 -11   7    1.57    0.89
   1  11  -6   23.34    2.15
   1 -11  -6   23.63    2.43
  -1 -11   6   22.09    2.24
   1  11  -5    5.71    1.09
  -1 -11   5    4.02    0.93
   1 -11  -5    3.72    1.05
   1  11  -4   29.22    1.97
  -1 -11   4   34.10    2.11
   1 -11  -4   26.42    2.02
   1  11  -3  127.88    5.36
  -1 -11   3  124.26    5.35
   1 -11  -3  136.01    5.52
   1  11  -2   63.75    3.04
  -1 -11   2   63.82    3.02
   1  11  -1  227.25    8.45
   1 -11  -1  229.13    8.50
  -1 -11   1  216.49    8.39
   1  11   0  100.38    4.13
  -1  11   0   94.45    4.11
  -1 -11   0   98.57    4.15
   1 -11   0   99.09    4.21
  -1  11  -1   13.70    1.30
   1 -11   1   15.76    1.42
  -1 -11  -1   16.13    1.25
  -1  11  -2   21.90    1.52
   1 -11   2   19.08    1.49
  -1 -11  -2   16.51    1.54
  -1  11  -3   14.12    1.41
   1 -11   3   15.22    1.55
  -1 -11  -3   17.35    1.64
  -1  11  -4   20.96    1.85
   1 -11   4   18.81    1.85
  -1  11  -5    2.74    0.87
  -1 -11  -5    2.70    0.86
   1 -11   5    2.66    0.89
  -1  11  -6    0.97    0.75
   1 -11   6    2.69    0.93
  -1 -11  -6    1.30    0.83
   1 -11   7    2.54    1.02
  -1 -11  -7    1.63    1.05
  -1 -11  -8    0.78    0.99
   1 -11   8    0.39    0.90
  -1 -12   8    9.29    1.71
   1 -12  -8   12.44    2.11
   1  12  -7    0.22    0.78
  -1 -12   7    0.10    0.70
   1 -12  -7    0.45    0.81
   1  12  -6    0.11    0.69
   1 -12  -6   -0.90    0.65
  -1 -12   6   -0.09    0.61
   1  12  -5    7.30    1.19
   1 -12  -5    5.58    1.22
  -1 -12   5    4.57    1.00
   1  12  -4   32.37    2.10
  -1 -12   4   30.95    2.10
   1 -12  -4   26.86    2.14
   1  12  -3    9.28    1.24
  -1 -12   3    9.60    1.22
   1  12  -2  153.57    6.04
  -1 -12   2  143.86    5.99
   1  12  -1   22.56    1.54
   1 -12  -1   21.72    1.54
  -1 -12   1   19.31    1.45
  -1  12   0   31.51    1.91
   1  12   0   31.73    1.88
  -1 -12   0   32.73    1.90
   1 -12   0   31.87    1.95
  -1  12  -1   -0.01    0.38
  -1 -12  -1    2.10    0.65
   1 -12   1    1.15    0.53
  -1  12  -2    7.86    1.08
   1 -12   2    6.27    0.97
  -1 -12  -2    6.92    1.05
  -1  12  -3   86.60    4.01
   1 -12   3   90.46    4.17
  -1 -12  -3   87.11    4.14
  -1  12  -4    0.73    0.63
   1 -12   4   -0.10    0.57
  -1 -12  -4    0.07    0.37
  -1  12  -5    5.38    1.13
   1 -12   5    5.72    1.14
  -1 -12  -5    6.40    1.23
  -1  12  -6   21.07    2.09
  -1 -12  -6   17.73    2.15
   1 -12   6   18.76    2.19
  -1 -12  -7    1.87    1.06
   1 -12   7    1.42    0.93
  -1 -12  -8   10.38    1.94
   1 -12   8   13.18    2.10
   1 -13  -8    4.11    1.31
  -1 -13   8    3.10    1.17
   1  13  -7    0.73    0.85
   1 -13  -7    0.03    0.77
  -1 -13   7   -0.02    0.71
   1  13  -6    5.60    1.20
  -1 -13   6    7.34    1.32
   1 -13  -6    5.70    1.35
   1  13  -5    6.64    1.24
  -1 -13   5    6.21    1.14
   1 -13  -5    5.29    1.22
   1  13  -4    2.70    0.86
  -1 -13   4    1.36    0.65
   1 -13  -4    0.68    0.64
   1  13  -3    2.07    0.81
  -1 -13   3    1.70    0.67
   1  13  -2    5.11    0.93
   1 -13  -2    2.72    0.65
  -1 -13   2    3.91    0.80
   1  13  -1  216.84    8.26
  -1 -13   1  214.46    8.25
   1 -13  -1  210.44    8.29
  -1  13   0    0.05    0.50
   1  13   0   -0.20    0.50
  -1 -13   0    0.37    0.44
   1 -13   0   -0.55    0.33
  -1 -13  -1   96.02    4.23
   1 -13   1   92.98    4.21
  -1  13  -2   23.31    1.68
   1 -13   2   19.89    1.83
  -1 -13  -2   22.09    1.67
  -1  13  -3   35.15    2.28
   1 -13   3   34.96    2.32
  -1 -13  -3   34.64    2.28
  -1  13  -4    1.31    0.70
   1 -13   4    0.89    0.64
  -1 -13  -4    1.00    0.70
  -1  13  -5    1.69    0.88
   1 -13   5    3.30    0.93
  -1 -13  -5    3.51    1.03
  -1  13  -6    2.25    0.96
   1 -13   6    2.84    0.97
  -1 -13  -6    2.28    0.99
   1 -13   7   36.67    3.31
  -1 -13  -7   28.57    3.01
   1 -13   8    0.85    1.11
  -1 -13  -8    1.70    1.14
  -1 -14   8   -0.14    1.05
   1 -14  -8    0.52    0.92
   1  14  -7    4.09    1.23
   1 -14  -7    4.14    1.33
  -1 -14   7    5.11    1.32
   1  14  -6    0.17    0.81
  -1 -14   6   -0.14    0.64
   1 -14  -6    0.35    0.81
   1  14  -5   10.50    1.51
   1 -14  -5   11.82    1.72
  -1 -14   5    8.95    1.44
   1  14  -4   31.35    2.20
  -1 -14   4   30.20    2.18
   1 -14  -4   29.75    2.24
   1  14  -3    9.40    1.31
  -1 -14   3   12.06    1.44
   1  14  -1  167.46    6.66
   1 -14  -1  161.74    6.72
  -1 -14   1  164.38    6.68
   1  14   0   36.00    2.19
  -1 -14   0   35.90    2.19
   1 -14   0   38.32    2.34
  -1  14  -1    0.28    0.27
  -1 -14  -1    0.61    0.56
   1 -14   1    0.19    0.50
  -1  14  -2    7.07    1.15
  -1 -14  -2    9.22    1.26
   1 -14   2    9.64    1.32
  -1  14  -3   37.28    2.38
   1 -14   3   41.21    2.50
  -1 -14  -3   34.39    2.40
  -1  14  -4    6.78    1.24
  -1 -14  -4    6.20    1.22
   1 -14   4    6.05    1.13
  -1  14  -5    7.25    1.29
  -1 -14  -5   10.44    1.57
   1 -14   5    9.44    1.45
  -1  14  -6    0.02    0.69
   1 -14   6    0.79    0.74
  -1 -14  -6    1.92    0.96
  -1 -14  -7    3.30    1.14
   1 -14   7    2.96    1.23
   1 -14   8    5.59    1.51
  -1 -14  -8    6.18    1.90
   1  15  -7    4.80    1.29
  -1 -15   7    4.18    1.22
   1 -15  -7    3.61    1.41
   1  15  -6   12.94    1.85
  -1 -15   6   17.09    2.09
   1 -15  -6   21.88    2.52
   1  15  -5    0.36    0.76
   1 -15  -5    1.70    0.92
  -1 -15   5    3.38    1.01
   1  15  -4   -0.59    0.58
   1 -15  -4    1.37    0.77
  -1 -15   4    1.49    0.68
   1  15  -3  153.68    6.39
   1 -15  -3  127.15    6.28
  -1 -15   3  166.66    6.45
   1  15  -1   12.81    1.43
   1 -15  -1   13.87    1.59
  -1 -15   1   12.47    1.45
   1  15   0   -0.54    0.54
   1 -15   0   -0.18    0.50
  -1 -15   0   -0.76    0.40
  -1 -15  -1   16.63    1.68
   1 -15   1   13.39    1.53
  -1  15  -2    7.53    1.23
  -1 -15  -2    7.09    1.18
   1 -15   2    8.53    1.29
  -1  15  -3   -0.01    0.62
   1 -15   3    0.68    0.61
  -1 -15  -3    0.46    0.64
  -1  15  -4    0.45    0.68
   1 -15   4    1.83    0.78
  -1 -15  -4    0.90    0.82
  -1  15  -5   13.41    1.74
   1 -15   5   13.90    1.88
  -1 -15  -5   14.60    1.93
  -1  15  -6    4.20    1.19
  -1 -15  -6    2.70    1.03
   1 -15   6    3.82    1.17
   1 -15   7    0.49    0.82
  -1 -15  -7    0.48    0.89
   1 -15   8    0.46    1.06
   1  16  -7    0.44    0.90
   1 -16  -7    0.03    0.97
  -1 -16   7    2.11    1.03
   1  16  -6    5.39    1.27
   1 -16  -6    2.83    1.12
  -1 -16   6    4.73    1.19
   1  16  -5   10.68    1.61
  -1 -16   5   10.12    1.60
   1 -16  -5   10.87    1.72
   1  16  -4   16.06    1.87
   1 -16  -4   20.29    2.12
  -1 -16   4   20.12    2.08
   1  16  -3    0.55    0.71
   1 -16  -3   -0.35    0.48
  -1 -16   3    0.21    0.55
  -1 -16   2   39.09    2.50
   1 -16  -2   40.82    2.64
   1  16  -1    0.65    0.65
   1 -16  -1    1.21    0.70
  -1 -16   1    1.49    0.65
   1  16   0   59.34    3.23
   1 -16   0   64.44    3.38
  -1 -16   0   61.82    3.30
  -1  16  -1   -0.27    0.21
  -1 -16  -1   -0.63    0.47
   1 -16   1    0.02    0.52
  -1  16  -2    0.86    0.69
  -1 -16  -2    1.24    0.73
   1 -16   2    0.13    0.55
  -1  16  -3    6.61    1.27
  -1 -16  -3    7.01    1.31
   1 -16   3    4.36    1.08
  -1  16  -4    8.96    1.44
   1 -16   4    9.58    1.53
  -1 -16  -4    9.75    1.52
  -1  16  -5    2.81    1.03
  -1 -16  -5    4.17    1.15
   1 -16   5    4.21    1.13
  -1  16  -6   -0.14    0.73
   1 -16   6   -0.28    0.67
  -1 -16  -6   -0.72    0.76
   1 -16   7    1.97    1.13
  -1 -16  -7    0.83    0.99
   1 -16   8    9.29    1.90
   1  17  -7    2.85    1.26
  -1 -17   7    4.13    1.28
   1 -17  -7    4.30    1.41
   1  17  -6   11.56    1.81
  -1 -17   6   12.17    1.86
   1 -17  -6   15.36    2.22
   1  17  -5   12.20    1.77
   1 -17  -5   15.36    2.03
  -1 -17   5   14.79    1.88
   1  17  -4   24.75    2.42
   1 -17  -4   29.59    2.71
  -1 -17   4   25.07    2.41
   1  17  -3   26.81    2.43
   1 -17  -3   27.68    2.17
  -1 -17   3   22.49    2.17
   1  17  -2   18.05    1.89
  -1 -17   2   19.99    2.03
   1 -17  -2   19.67    2.01
   1  17  -1   29.55    2.15
  -1 -17   1   24.98    2.26
   1 -17  -1   27.70    2.12
   1  17   0   42.23    2.64
  -1 -17   0   46.17    2.78
   1 -17   0   40.47    2.67
  -1  17  -1    2.61    0.88
   1 -17   1    4.10    0.97
  -1 -17  -1    3.36    0.97
  -1  17  -2    0.37    0.66
  -1 -17  -2    0.09    0.62
   1 -17   2    0.73    0.68
  -1  17  -3   -0.48    0.59
  -1 -17  -3   -0.24    0.62
   1 -17   3   -0.72    0.46
  -1  17  -4    8.56    1.49
   1 -17   4    6.60    1.35
  -1 -17  -4    8.50    1.45
  -1  17  -5    5.32    1.33
  -1 -17  -5    4.97    1.30
   1 -17   5    8.69    1.50
  -1  17  -6    2.85    1.12
   1 -17   6    3.26    1.11
  -1 -17  -6    5.06    1.36
  -1 -17  -7    3.45    1.30
   1 -17   7    5.05    1.49
   1  18  -7   -0.61    0.83
   1 -18  -7   -0.10    0.96
   1  18  -6   -0.69    0.86
   1 -18  -6    1.79    1.00
  -1 -18   6    1.03    0.93
   1  18  -5    6.62    1.48
  -1 -18   5    3.82    1.14
   1 -18  -5    3.98    1.22
   1  18  -4   70.13    3.96
  -1 -18   4   68.10    3.86
   1 -18  -4   66.01    3.90
   1  18  -3    0.21    0.69
  -1 -18   3    0.83    0.67
   1 -18  -3    1.34    0.79
   1  18  -2   32.95    2.38
   1 -18  -2   30.97    2.36
  -1 -18   2   34.39    2.45
   1  18  -1    0.79    0.73
   1 -18  -1    1.42    0.82
  -1 -18   1    0.61    0.66
   1  18   0    2.97    0.97
   1 -18   0    4.05    1.04
  -1 -18   0    3.00    0.93
  -1  18  -1    9.25    1.45
   1 -18   1   11.94    1.60
  -1 -18  -1    9.78    1.45
  -1  18  -2    2.56    1.03
   1 -18   2    4.29    1.08
  -1 -18  -2    3.92    1.06
  -1  18  -3   -0.30    0.75
   1 -18   3   -0.01    0.61
  -1 -18  -3    1.28    0.86
  -1  18  -4    2.35    0.99
  -1 -18  -4    4.75    1.18
   1 -18   4    3.92    1.16
  -1  18  -5    0.26    0.87
   1 -18   5    0.86    0.83
  -1 -18  -5    0.34    0.88
  -1  18  -6    7.81    1.61
  -1 -18  -6    6.09    1.53
   1 -18   6    9.42    1.68
   1 -18   7    5.23    1.48
  -1 -18  -7    2.84    1.54
   1  19  -7    6.56    1.71
   1  19  -6   -0.11    0.77
   1 -19  -6   -0.43    0.69
  -1 -19   6    0.07    0.74
   1  19  -5    4.54    1.29
  -1 -19   5    2.61    1.12
   1 -19  -5    2.61    1.13
   1  19  -4   -0.40    0.75
  -1 -19   4   -0.11    0.59
   1 -19  -4   -0.58    0.59
   1  19  -3    3.58    1.08
  -1 -19   3    2.32    0.93
   1 -19  -3    2.92    1.03
   1  19  -2    4.85    1.10
  -1 -19   2    4.13    1.05
   1 -19  -2    5.18    1.19
   1  19  -1   46.98    2.93
   1 -19  -1   39.38    2.78
  -1 -19   1   46.09    2.85
   1  19   0    8.05    1.36
   1 -19   0    7.82    1.45
  -1 -19   0    5.87    1.21
  -1  19  -1    8.76    1.45
  -1 -19  -1   13.46    1.73
   1 -19   1   11.55    1.65
  -1  19  -2    4.53    1.16
  -1 -19  -2    5.66    1.23
   1 -19   2    2.36    0.96
  -1  19  -3    0.26    0.87
  -1 -19  -3    1.68    0.91
   1 -19   3    3.15    0.98
  -1  19  -4    0.92    0.88
  -1 -19  -4    2.38    1.02
   1 -19   4    0.15    0.63
  -1  19  -5    0.69    0.79
   1 -19   5   -0.23    0.65
  -1 -19  -5    0.94    0.88
  -1  19  -6    3.03    1.22
   1 -19   6    2.39    1.05
  -1 -19  -6    0.61    0.89
   1 -19   7    2.10    1.21
   1  20  -7    8.37    1.89
   1  20  -6    1.18    1.25
   1 -20  -6    0.87    1.01
  -1 -20   6    1.88    1.05
   1  20  -5   18.20    2.36
   1 -20  -5   18.20    2.42
  -1 -20   5   22.41    2.47
   1  20  -4   25.40    2.61
   1 -20  -4   20.87    2.45
  -1 -20   4   23.54    2.44
   1  20  -3    6.57    1.38
  -1 -20   3    4.49    1.17
   1 -20  -3    5.25    1.29
   1  20  -2   18.61    2.12
   1 -20  -2   14.46    1.91
  -1 -20   2   13.75    1.81
   1  20  -1   22.57    2.31
   1 -20  -1   25.23    2.49
  -1 -20   1   23.01    2.29
   1  20   0   -0.06    0.67
  -1 -20   0    0.03    0.71
   1 -20   0    0.41    0.79
  -1  20  -1    3.35    1.08
  -1 -20  -1    1.75    0.87
   1 -20   1    4.51    1.19
  -1  20  -2    0.77    0.80
  -1 -20  -2    0.74    0.78
   1 -20   2   -0.16    0.70
  -1  20  -3   12.81    1.83
  -1 -20  -3    8.37    1.53
   1 -20   3   10.07    1.63
  -1  20  -4    1.13    0.85
   1 -20   4    1.64    0.89
  -1 -20  -4   -0.37    0.86
  -1  20  -5    2.44    1.14
   1 -20   5    1.15    0.92
  -1 -20  -5    1.22    0.99
  -1  20  -6   -0.61    0.91
  -1 -20  -6   -0.09    0.84
   1 -20   6    2.42    1.11
   1 -20   7    2.75    1.31
   1  21  -6    0.21    0.96
  -1 -21   6    1.73    1.16
   1 -21  -6   -0.73    0.82
   1  21  -5    3.66    1.28
  -1 -21   5    3.79    1.25
   1 -21  -5    3.71    1.34
   1  21  -4   -0.90    0.76
  -1 -21   4    0.75    0.78
   1 -21  -4   -0.42    0.65
   1  21  -3   47.07    3.18
  -1 -21   3   38.93    2.94
   1 -21  -3   47.30    3.21
   1  21  -2    4.64    1.30
   1 -21  -2    3.30    1.16
  -1 -21   2    3.91    1.19
   1  21  -1    1.47    1.02
  -1 -21   1    1.35    0.78
   1 -21  -1    1.57    0.88
  -1 -21   0    3.96    1.20
   1 -21   0    3.92    1.16
  -1 -21  -1    3.70    1.09
   1 -21   1    2.38    0.97
  -1  21  -2    1.95    0.99
   1 -21   2    3.90    1.19
  -1 -21  -2    4.09    1.15
  -1  21  -3    1.85    1.01
  -1 -21  -3    2.72    1.03
   1 -21   3    0.66    0.73
  -1  21  -4    0.37    0.88
  -1 -21  -4    0.64    1.00
   1 -21   4    0.04    0.80
  -1  21  -5    7.67    1.63
   1 -21   5    9.48    1.77
  -1 -21  -5    7.93    1.76
  -1  21  -6    9.43    1.90
  -1 -21  -6   12.63    3.21
   1 -21   6    6.94    1.71
   1  22  -6    1.31    1.15
   1  22  -5    2.03    1.16
   1 -22  -5    1.38    1.04
  -1 -22   5    2.05    1.14
   1  22  -4   -0.34    0.87
   1 -22  -4    1.80    1.13
  -1 -22   4    0.59    0.76
   1  22  -3    2.67    1.09
   1 -22  -3    2.43    1.17
  -1 -22   3    1.85    0.89
   1  22  -2   25.70    2.72
   1 -22  -2   30.70    2.88
  -1 -22   2   28.44    2.80
   1  22  -1   -0.43    0.73
   1 -22  -1   -0.12    0.72
  -1 -22   1    1.56    0.89
  -1 -22   0   50.86    3.40
   1 -22   0   57.73    3.56
   1 -22   1   17.65    2.18
  -1 -22  -1   17.54    2.15
  -1  22  -2   -0.35    0.77
   1 -22   2    0.47    0.81
  -1 -22  -2   -0.64    0.72
  -1  22  -3    0.98    0.99
  -1 -22  -3    2.06    1.13
   1 -22   3    4.07    1.19
  -1  22  -4    7.06    1.72
  -1 -22  -4    6.28    1.67
   1 -22   4    6.59    1.53
  -1  22  -5   -1.07    0.78
  -1 -22  -5    0.85    1.15
   1 -22   5   -0.33    0.88
  -1  22  -6    1.07    1.22
   1 -22   6    0.36    1.01
   1  23  -5   -0.43    1.03
   1 -23  -5   -0.47    0.79
  -1 -23   5    0.36    0.88
   1  23  -4    6.11    1.49
  -1 -23   4    5.52    1.47
   1 -23  -4    7.65    1.61
   1  23  -3   14.11    2.19
   1 -23  -3   14.66    2.19
  -1 -23   3   13.30    1.94
   1  23  -2    6.11    1.42
  -1 -23   2    3.85    1.29
   1 -23  -2    5.31    1.36
   1  23  -1   18.02    2.24
   1 -23  -1   14.14    2.09
  -1 -23   1   18.75    2.30
   1 -23   0   17.41    2.23
  -1 -23   0   12.02    1.86
  -1 -23  -1    1.96    1.03
   1 -23   1    0.92    0.81
  -1  23  -2    0.31    0.89
   1 -23   2    0.24    0.81
  -1 -23  -2    0.63    0.89
  -1  23  -3    1.22    1.15
  -1 -23  -3   -0.21    0.81
   1 -23   3   -0.40    0.65
  -1  23  -4    6.67    1.64
   1 -23   4    8.12    1.71
  -1 -23  -4    6.99    1.62
  -1  23  -5    0.84    1.13
  -1 -23  -5   -0.91    0.89
   1 -23   5    0.94    0.98
   1  24  -5    0.12    0.95
   1  24  -4   20.23    2.61
   1 -24  -4   22.71    2.80
  -1 -24   4   24.88    2.83
   1  24  -3   -0.63    0.90
  -1 -24   3    0.36    0.88
   1 -24  -3   -0.56    0.82
   1  24  -2   28.96    2.95
  -1 -24   2   27.25    2.92
   1 -24  -2   31.55    3.12
   1 -24  -1    1.09    0.95
  -1 -24   1    0.99    0.92
  -1 -24   0    0.26    0.81
   1 -24   0    1.35    0.92
   1 -24   1    0.66    0.93
  -1 -24  -1   -0.13    0.87
   1 -24   2    1.10    0.85
  -1 -24  -2    1.48    0.96
  -1  24  -3    3.34    1.29
  -1 -24  -3    2.74    1.19
   1 -24   3    0.97    1.00
  -1  24  -4   -0.68    0.87
   1 -24   4    0.57    0.92
  -1 -24  -4    1.19    1.04
  -1  24  -5    1.02    1.36
   1 -24   5    2.21    1.28
   1  25  -4   -2.22    0.91
  -1 -25   4    0.15    0.92
   1  25  -3    1.77    1.23
   1 -25  -3    1.68    1.20
  -1 -25   3    1.94    1.03
   1  25  -2   -0.51    0.78
   1 -25  -2    1.55    1.02
  -1 -25   2    0.93    0.96
   1 -25  -1   29.18    3.06
  -1 -25   1   31.17    3.04
   1 -25   0    3.43    1.26
  -1 -25   0    1.03    1.00
  -1 -25  -1    4.08    1.37
   1 -25   1    3.86    1.31
   1 -25   2    2.27    1.12
  -1 -25  -2    2.10    1.23
  -1  25  -3    2.49    1.29
   1 -25   3    5.28    1.42
  -1 -25  -3    5.65    1.52
  -1  25  -4    0.21    1.06
  -1 -25  -4   -1.08    1.28
   1 -25   4    0.75    1.09
   1  26  -4    1.91    1.36
  -1 -26   4    0.74    0.92
   1  26  -3   -0.39    1.12
  -1 -26   3    0.61    0.96
   1 -26  -3    0.91    1.00
   1  26  -2   11.95    2.11
   1 -26  -2   12.03    2.12
  -1 -26   2   14.06    2.23
   1 -26  -1   17.05    2.41
  -1 -26   1   19.24    2.47
   1 -26   0    4.12    1.42
  -1 -26   0    3.98    1.34
  -1 -26  -1    0.39    0.92
   1 -26   1    0.42    0.86
   1 -26   2   -0.15    0.79
  -1 -26  -2    0.22    0.97
   1 -26   3    2.52    1.26
  -1  26  -4    0.57    1.23
   1 -26   4   -0.09    1.22
   1  27  -3   29.71    3.24
  -1 -27   3   27.76    3.09
  -1 -27   2    1.78    1.01
   1 -27  -2    1.15    1.34
   1 -27  -1    7.54    1.74
  -1 -27   1    4.51    1.51
  -1 -27   0    1.91    1.12
   1 -27   0    1.87    1.17
   1 -27   1    6.89    1.76
  -1 -27  -1    7.71    1.71
  -1 -27  -2    2.04    1.34
   1 -27   2    0.83    0.96
   1 -27   3   -0.25    1.41
  -1 -28   2    3.05    1.39
  -1 -28   1    2.19    1.30
  -1 -28   0   16.64    2.42
   1 -28   1    2.73    1.80
   2   0  -9    1.06    0.99
  -2   0   8    5.68    1.37
  -2   0   7    0.44    0.63
  -2   0   6   87.04    4.23
  -2   0   5   -0.49    0.39
  -2   0   4    8.46    1.01
  -2   0   3    0.10    0.26
  -2   0   2  403.28   13.93
   2   0  -1    0.00    0.14
  -2   0   1   -0.13    0.13
   2   0   0    8.43    0.38
   2   0   1   -1.20    0.20
  -2   0  -3    0.23    0.20
   2   0   3    0.09    0.30
   2   0   4    1.11    0.51
  -2   0  -4    1.27    0.33
   2   0   5   -0.44    0.41
   2   0   6    1.50    0.79
   2   0   7   -0.84    0.56
   2   0   8   27.04    2.82
   2   0   9   -0.60    0.76
   2   1  -9    0.91    0.94
  -2  -1   9    0.38    0.94
   2  -1  -9    1.28    0.90
  -2  -1   8    1.10    0.77
   2  -1  -8    4.11    1.18
  -2  -1   7    3.00    0.97
   2  -1  -7    4.65    1.13
   2   1  -6   39.45    2.26
  -2   1   6   39.20    2.48
  -2  -1   6   40.27    2.50
  -2   1   5   42.11    2.42
  -2  -1   5   42.35    2.39
  -2   1   4    6.50    0.89
  -2  -1   4    6.20    0.85
  -2   1   2   32.59    1.51
  -2  -1   2   33.51    1.48
  -2  -1   1   25.30    0.95
   2  -1  -1   20.91    1.12
   2  -1  -1   23.55    1.00
   2   1   0   10.66    0.46
   2  -1   0   10.63    0.53
   2   1   1  384.76   13.16
   2   1   1  389.52   13.15
   2  -1   1  372.40   13.16
   2   1   2  116.52    4.39
   2  -1   2  118.25    4.33
  -2   1  -3   33.14    1.46
   2  -1   3   35.83    1.87
   2   1   4  121.08    5.07
  -2   1  -4  120.54    4.52
  -2  -1  -4  124.54    4.48
   2  -1   4  117.96    5.03
  -2   1  -5  107.99    4.24
   2   1   5  104.35    4.84
   2  -1   5  112.89    4.91
   2   1   6   29.27    2.22
   2  -1   6   29.90    2.27
   2   1   7   13.19    1.86
   2  -1   7   10.83    1.66
   2   1   8    1.03    0.92
   2  -1   8    0.12    0.77
   2   1   9    1.66    1.10
   2  -1   9    1.85    1.11
  -2  -1  -9    1.32    1.04
   2  -2  -9    0.64    0.90
  -2  -2   9    2.36    1.06
  -2  -2   8   -0.51    0.56
   2  -2  -8   -0.50    0.75
   2  -2  -7    3.72    1.03
  -2  -2   7    3.44    0.97
   2   2  -6   14.59    1.44
  -2   2   6   16.54    1.77
  -2  -2   6   19.30    1.87
   2  -2  -6   14.39    1.69
  -2   2   5    4.75    0.91
   2   2  -5    6.34    0.90
   2  -2  -5    4.17    0.91
  -2  -2   5    4.68    0.90
  -2   2   4  328.60   11.48
  -2  -2   4  299.96   11.35
  -2  -2   3  124.75    4.78
   2   2  -2   36.62    1.59
   2  -2  -2   38.95    1.71
  -2  -2   2   38.37    1.64
   2  -2  -1  300.38   10.28
  -2  -2   1  296.71   10.17
  -2  -2   0   23.17    0.91
   2  -2   0   21.33    0.99
   2   2   1  150.69    5.35
   2  -2   1  146.92    5.36
   2   2   2   45.50    2.08
   2   2   2   47.14    2.02
   2  -2   2   45.06    1.88
  -2   2  -3  341.50   11.65
   2  -2   3  328.93   12.03
   2   2   4   16.21    1.49
  -2   2  -4   17.31    1.02
   2  -2   4   14.13    1.39
  -2   2  -5    3.29    0.58
   2   2   5    4.86    0.98
   2  -2   5    4.36    0.90
   2   2   6   75.11    4.00
   2  -2   6   78.67    4.03
   2   2   7   15.42    1.94
   2  -2   7    8.13    1.49
   2   2   8   13.26    1.96
   2  -2   8   12.13    1.89
  -2  -2  -9    0.66    1.02
   2  -2   9    0.30    1.00
  -2  -3   9    1.38    1.01
   2  -3  -9    1.23    1.05
  -2  -3   8    4.35    1.23
   2  -3  -8    2.97    1.08
   2  -3  -7   36.90    2.67
  -2  -3   7   39.55    2.70
   2   3  -6    0.28    0.49
   2  -3  -6    2.08    0.77
  -2  -3   6    0.33    0.56
   2   3  -5  165.75    6.57
   2  -3  -5  165.69    6.77
  -2  -3   5  174.98    6.79
   2   3  -4    0.36    0.37
  -2  -3   4    0.19    0.35
   2  -3  -4    0.07    0.39
   2   3  -3   19.10    1.18
   2  -3  -3   15.76    1.12
   2   3  -2    3.79    0.55
   2   3  -2    3.49    0.41
   2  -3  -2    2.72    0.49
  -2  -3   2    4.89    0.51
  -2  -3   1    0.65    0.21
   2  -3  -1    0.68    0.29
   2  -3   0   60.15    2.33
  -2   3  -1   23.91    1.18
   2   3   1   20.11    1.10
  -2  -3  -1   24.55    1.16
  -2   3  -3   64.02    2.60
   2  -3   3   64.75    2.92
  -2   3  -4   46.57    2.09
   2   3   4   48.58    2.53
   2  -3   4   44.55    2.45
  -2   3  -5    0.71    0.41
   2   3   5   -0.67    0.41
   2  -3   5   -0.18    0.48
   2   3   6    1.82    0.80
   2  -3   6    3.82    0.99
   2   3   7   16.11    2.00
   2  -3   7   18.37    2.12
  -2  -3  -8    0.46    0.76
   2  -3   8    0.43    0.86
  -2  -3  -9    7.06    1.74
   2  -3   9   12.02    2.02
  -2  -4   9   -0.85    0.76
   2  -4  -9    0.60    0.82
   2  -4  -8    0.93    0.92
  -2  -4   8    1.79    0.95
   2  -4  -7    1.54    0.77
  -2  -4   7    1.89    0.79
   2   4  -6   27.37    1.86
   2  -4  -6   25.44    2.03
  -2  -4   6   24.16    2.16
   2   4  -5   17.66    1.55
   2  -4  -5   16.60    1.61
  -2  -4   5   15.16    1.48
   2   4  -4   79.73    3.47
  -2  -4   4   77.21    3.46
   2  -4  -4   81.36    3.57
   2   4  -3   37.76    1.93
   2   4  -3   41.42    1.75
   2  -4  -3   40.13    2.01
   2   4  -2    1.13    0.31
   2   4  -2    2.05    0.47
  -2  -4   2    2.18    0.40
   2  -4  -2    1.78    0.42
  -2  -4   1   43.66    1.75
   2  -4  -1   42.32    1.84
   2   4   0   66.41    2.56
   2  -4   0   65.82    2.63
  -2  -4   0   66.57    2.53
   2   4   1   82.46    3.16
  -2   4  -1   81.34    3.11
  -2  -4  -1   81.21    3.16
  -2   4  -4    5.54    0.70
   2   4   4    4.51    0.82
   2  -4   4    5.10    0.85
   2   4   5    0.12    0.50
  -2   4  -5   -0.23    0.35
   2  -4   5    0.84    0.64
   2   4   6   61.07    3.47
   2  -4   6   61.45    3.45
  -2  -4  -7    5.25    1.22
   2  -4   7    5.86    1.28
   2  -4   8   11.38    1.78
  -2  -4  -8    8.44    1.58
   2  -4   9   -0.70    0.79
  -2  -4  -9   -0.07    0.81
   2  -5  -9    0.07    0.81
  -2  -5   9    2.19    1.11
  -2  -5   8    0.70    0.84
   2  -5  -8   -0.16    0.71
   2   5  -7    6.48    1.14
   2  -5  -7    5.70    1.30
  -2  -5   7    5.72    1.18
   2   5  -6    2.00    0.68
  -2  -5   6    3.29    0.89
   2  -5  -6    3.24    0.93
   2   5  -5  109.19    4.65
  -2  -5   5  114.10    4.80
   2  -5  -5  103.51    4.77
   2   5  -4   63.67    2.66
   2   5  -4   64.25    2.94
  -2  -5   4   61.52    2.92
   2  -5  -4   62.16    3.04
   2   5  -3  211.32    7.55
   2   5  -3  216.24    7.89
   2  -5  -3  213.15    7.96
   2   5  -2    8.92    0.83
   2  -5  -2    7.37    0.79
  -2  -5   2    9.41    0.71
   2  -5  -1   77.06    3.14
  -2  -5   1   81.15    3.03
   2   5   0  204.76    7.08
   2   5   0  201.72    7.15
  -2  -5   0  200.11    7.12
   2  -5   0  198.96    7.24
  -2   5  -1  167.91    6.02
   2   5   1  166.44    6.04
   2   5   1  165.82    5.91
  -2  -5  -1  164.77    6.05
   2   5   2   19.04    1.15
  -2   5  -3    0.23    0.31
   2  -5   3    0.02    0.32
  -2  -5  -3    0.11    0.20
  -2   5  -4    3.41    0.60
   2  -5   4    3.23    0.71
  -2  -5  -4    1.48    0.55
  -2   5  -5   70.12    3.10
   2  -5   5   69.61    3.58
   2  -5   6    0.28    0.60
  -2  -5  -6    1.05    0.85
   2  -5   7   26.64    2.63
  -2  -5  -7   27.98    2.65
  -2  -5  -8    4.28    1.34
   2  -5   8    3.45    1.21
  -2  -5  -9    4.40    1.45
   2  -5   9    2.94    1.35
   2  -6  -9   -0.69    0.80
  -2  -6   9    0.58    0.96
  -2  -6   8    1.38    0.85
   2  -6  -8    0.72    0.94
   2   6  -7   -0.55    0.46
   2  -6  -7   -0.90    0.55
  -2  -6   7   -0.06    0.60
   2   6  -6  110.95    4.91
  -2  -6   6  117.43    5.12
   2  -6  -6  103.06    5.08
   2   6  -5    3.17    0.76
   2   6  -5    3.23    0.62
  -2  -6   5    2.49    0.76
   2  -6  -5    2.95    0.82
   2   6  -4   62.48    2.95
   2   6  -4   61.95    2.59
  -2  -6   4   60.39    2.93
   2  -6  -4   67.50    3.13
   2   6  -3   75.30    2.87
   2   6  -3   74.11    3.25
  -2  -6   3   75.74    3.20
   2  -6  -3   75.57    3.32
   2   6  -2   43.54    2.02
  -2  -6   2   41.24    1.90
   2  -6  -2   40.00    2.00
   2  -6  -1   86.26    3.42
  -2  -6   1   84.45    3.29
   2   6   0    2.92    0.41
   2   6   0    4.03    0.53
   2  -6   0    1.71    0.42
  -2  -6   0    4.25    0.54
   2  -6   0    3.57    0.40
   2   6   1   15.23    0.94
   2   6   1   13.18    0.85
  -2   6  -1   13.75    0.94
  -2  -6  -1   13.48    0.93
   2   6   2   35.34    1.79
  -2   6  -2   34.18    1.70
   2  -6   2   34.30    1.83
  -2  -6  -2   36.23    1.83
  -2   6  -3   -0.07    0.34
   2  -6   3   -0.61    0.26
  -2  -6  -3    0.20    0.34
  -2   6  -4   25.67    1.52
   2  -6   4   26.07    1.77
  -2   6  -5   10.39    1.13
   2  -6   5   12.17    1.52
  -2  -6  -6    1.74    0.91
   2  -6   6    1.58    0.84
  -2  -6  -7   -0.78    0.75
   2  -6   7   -0.42    0.55
   2  -6   8   18.06    2.31
  -2  -6  -8   25.94    2.77
  -2  -6  -9   -0.18    0.88
   2  -6   9   -0.62    0.70
   2  -7  -9   -0.22    0.89
   2  -7  -8   -0.35    0.62
  -2  -7   8   -0.16    0.67
   2   7  -7   -0.17    0.63
  -2  -7   7   -0.68    0.48
   2  -7  -7    0.22    0.69
   2   7  -6    0.34    0.61
  -2  -7   6   -0.27    0.48
   2  -7  -6   -0.28    0.64
   2   7  -5   82.72    3.98
   2  -7  -5   87.42    4.23
  -2  -7   5   95.09    4.14
   2   7  -4   18.52    1.42
   2   7  -4   17.41    1.02
   2  -7  -4   18.87    1.67
  -2  -7   4   17.20    1.31
   2   7  -3   70.03    3.11
   2   7  -3   68.00    2.62
  -2  -7   3   68.16    3.03
   2  -7  -3   71.19    3.20
   2   7  -2    9.48    0.95
  -2  -7   2    7.98    0.79
   2  -7  -2    7.63    0.88
  -2  -7   1   11.28    0.81
   2  -7  -1    9.86    0.94
   2   7   0  145.22    5.29
   2   7   0  143.19    5.13
  -2  -7   0  135.93    5.25
   2   7   2   36.46    1.87
  -2   7  -2   38.88    1.85
   2  -7   2   34.49    1.90
  -2  -7  -2   34.17    1.88
  -2   7  -3    5.93    0.78
  -2  -7  -3    4.19    0.75
   2  -7   3    6.30    0.89
  -2   7  -4   98.87    4.17
   2  -7   4  104.46    4.54
  -2   7  -5   14.60    1.37
   2  -7   5   14.09    1.64
  -2  -7  -6    2.81    1.04
   2  -7   6    4.15    1.09
   2  -7   7   40.11    3.04
  -2  -7  -7   50.49    3.23
  -2  -7  -8    1.05    0.89
   2  -7   8    1.66    0.95
  -2  -7  -9    1.62    1.61
   2  -7   9    0.85    0.98
   2  -8  -9    0.58    0.90
   2  -8  -8   -0.43    0.66
  -2  -8   8   -0.12    0.71
   2   8  -7    0.52    0.76
  -2  -8   7    1.33    0.83
   2  -8  -7    0.93    0.77
   2   8  -6   23.64    2.14
   2  -8  -6   25.61    2.35
  -2  -8   6   25.92    2.31
   2   8  -5   -0.48    0.49
   2  -8  -5    0.01    0.56
  -2  -8   5   -0.04    0.51
   2   8  -4  107.44    4.38
   2  -8  -4   90.20    4.33
  -2  -8   4   97.63    4.25
   2   8  -3   45.01    2.36
   2  -8  -3   47.48    2.47
  -2  -8   3   48.58    2.34
   2   8  -2   60.68    2.77
   2  -8  -2   61.35    2.81
   2   8  -1    0.25    0.32
   2  -8  -1    0.46    0.39
  -2  -8   1    0.98    0.36
  -2   8  -1   15.52    1.08
   2   8   1   15.68    1.01
   2   8   1   14.15    0.95
  -2  -8  -1    9.59    1.01
   2  -8   1   15.47    1.10
  -2   8  -2   12.98    1.14
   2  -8   2   14.35    1.13
  -2  -8  -2   13.91    1.25
  -2   8  -3    1.59    0.50
  -2  -8  -3    0.24    0.43
   2  -8   3    0.53    0.45
  -2   8  -4    7.03    0.93
   2  -8   4    4.38    0.89
  -2   8  -5    7.95    1.08
   2  -8   5    8.03    1.26
  -2  -8  -5    2.19    0.84
  -2  -8  -6   38.95    2.74
   2  -8   6   41.59    2.77
   2  -8   7    3.15    1.04
  -2  -8  -7    1.15    0.89
  -2  -8  -8    2.45    1.14
   2  -8   8    3.58    1.30
   2  -8   9   -1.31    0.72
   2  -9  -9    2.61    1.18
  -2  -9   8    1.24    0.88
   2  -9  -8    1.37    0.96
   2   9  -7   31.59    2.73
  -2  -9   7   35.96    2.63
   2  -9  -7   33.89    2.65
   2   9  -6    0.87    0.69
   2  -9  -6    0.28    0.65
  -2  -9   6    0.78    0.63
   2   9  -5   63.78    3.28
   2  -9  -5   60.46    3.39
  -2  -9   5   68.48    3.37
   2   9  -4   11.42    1.29
   2  -9  -4   11.56    1.35
  -2  -9   4   10.00    1.17
   2   9  -3    0.46    0.45
   2  -9  -3    0.29    0.46
  -2  -9   3    1.12    0.49
   2   9  -2   15.55    1.23
  -2  -9   2   16.90    1.17
   2  -9  -2   17.28    1.27
   2   9  -1  102.35    3.59
   2   9  -1   94.96    3.99
   2  -9  -1   94.32    4.04
   2   9   0  240.53    8.78
   2   9   0  241.48    8.53
  -2   9  -1  141.77    5.51
   2   9   1  142.40    5.36
  -2  -9  -1  141.32    5.48
   2  -9   1  139.91    5.55
  -2   9  -2   20.13    1.40
   2  -9   2   22.45    1.52
  -2  -9  -2   22.11    1.46
  -2   9  -3    6.97    0.89
   2  -9   3    4.52    0.83
  -2  -9  -3    5.57    0.90
  -2   9  -4   16.37    1.48
   2  -9   4   13.53    1.55
  -2   9  -5   13.50    1.40
   2  -9   5   10.76    1.50
  -2  -9  -5   14.17    1.70
   2  -9   6    0.17    0.72
  -2  -9  -6    0.48    0.70
  -2  -9  -7    8.70    1.62
   2  -9   7   11.10    1.80
  -2  -9  -8    1.66    1.12
   2  -9   8    2.04    1.05
   2  -9   9    3.27    1.30
   2 -10  -9    0.39    1.10
  -2 -10   8   -0.13    0.68
   2 -10  -8    0.04    0.74
   2  10  -7    3.19    1.05
  -2 -10   7    2.06    0.99
   2 -10  -7    3.18    1.07
   2  10  -6    4.61    1.03
  -2 -10   6    5.35    1.11
   2 -10  -6    4.35    1.11
   2  10  -5    2.84    0.91
  -2 -10   5    0.61    0.60
   2 -10  -5    1.00    0.81
   2  10  -4    8.38    1.16
  -2 -10   4   10.20    1.23
   2 -10  -4    9.29    1.26
   2  10  -3  103.80    4.48
   2 -10  -3  106.10    4.55
  -2 -10   3  101.44    4.39
   2  10  -2  101.72    4.21
   2 -10  -2   98.44    4.25
  -2 -10   2   97.77    4.12
   2  10  -1  214.59    8.27
   2  10  -1  228.87    7.81
  -2 -10   1  224.55    8.27
   2  10   0  104.06    4.14
   2  10   0   96.71    3.82
  -2 -10   0  103.99    4.15
   2 -10   0   96.89    4.19
   2  10   1    1.00    0.43
  -2  10  -1    0.68    0.47
   2 -10   1    0.42    0.42
  -2 -10  -1    0.84    0.47
  -2  10  -2   63.12    2.99
   2 -10   2   68.88    3.18
  -2 -10  -2   62.96    3.05
  -2  10  -3  156.72    6.16
   2 -10   3  151.02    6.32
  -2 -10  -3  156.10    6.35
  -2  10  -4   75.79    3.55
   2 -10   4   77.54    3.81
  -2  10  -5    4.00    0.87
  -2 -10  -5    5.21    1.07
   2 -10   5    5.40    1.14
  -2  10  -6   49.13    3.09
  -2 -10  -6   62.92    3.59
   2 -10   6   52.43    3.37
  -2 -10  -7    2.79    1.10
   2 -10   7    2.87    1.14
   2 -10   8    4.33    1.35
  -2 -10  -8    5.53    1.51
  -2 -11   8    0.66    0.99
   2 -11  -8    0.06    0.91
   2  11  -7    4.59    1.19
   2 -11  -7    7.38    1.52
  -2 -11   7    3.85    1.15
   2  11  -6    1.23    0.76
   2 -11  -6   -0.24    0.63
  -2 -11   6   -0.76    0.48
   2  11  -5    6.92    1.20
  -2 -11   5    7.42    1.18
   2 -11  -5    7.51    1.32
   2  11  -4   58.87    3.02
  -2 -11   4   55.27    2.93
   2 -11  -4   55.45    3.09
   2  11  -3  171.43    6.67
   2 -11  -3  159.29    6.69
  -2 -11   3  168.31    6.60
   2  11  -2    0.87    0.52
   2 -11  -2    1.07    0.54
  -2 -11   2    0.77    0.42
   2  11  -1    0.02    0.39
   2  11  -1    0.03    0.20
  -2 -11   1    0.23    0.38
   2 -11  -1   -0.07    0.12
   2  11   0   59.63    2.55
   2  11   0   63.36    2.87
   2 -11   0   60.75    2.95
  -2 -11   0   61.11    2.87
  -2  11  -1   59.89    2.95
   2  11   1   63.02    2.88
  -2 -11  -1   66.72    3.02
   2 -11   1   62.84    3.02
  -2  11  -2   35.05    2.05
   2 -11   2   35.65    2.15
  -2 -11  -2   38.55    2.14
  -2  11  -3    0.61    0.55
   2 -11   3   -0.09    0.44
  -2 -11  -3    0.58    0.53
  -2  11  -4    8.05    1.17
   2 -11   4    7.38    1.18
  -2 -11  -4    3.92    0.92
  -2  11  -5   20.43    1.83
  -2 -11  -5   15.64    1.85
   2 -11   5   18.23    1.97
  -2  11  -6    1.18    0.76
   2 -11   6    1.57    0.94
  -2 -11  -6    2.15    0.89
  -2 -11  -7   22.20    2.53
   2 -11   7   20.73    2.42
   2 -11   8   -0.92    0.83
  -2 -11  -8    0.86    0.98
   2 -12  -8    0.53    1.05
   2  12  -7    1.28    0.92
  -2 -12   7   -0.87    0.54
   2 -12  -7    0.93    0.91
   2  12  -6   55.64    3.29
   2 -12  -6   54.80    3.45
  -2 -12   6   56.30    3.33
   2  12  -5    5.91    1.17
  -2 -12   5    5.93    1.08
   2 -12  -5    6.66    1.24
   2  12  -4   -0.29    0.49
   2 -12  -4    0.03    0.57
  -2 -12   4    0.48    0.49
   2  12  -3    0.35    0.55
   2 -12  -3    0.25    0.47
  -2 -12   3    0.39    0.43
   2  12  -2    1.71    0.59
  -2 -12   2    2.01    0.59
   2 -12  -2    1.46    0.59
   2  12  -1    4.08    0.81
  -2 -12   1    6.53    0.93
   2  12   0    3.54    0.73
  -2 -12   0    3.72    0.75
   2 -12   0    3.32    0.75
  -2  12  -1    0.66    0.53
   2  12   1    1.17    0.58
  -2 -12  -1    0.59    0.47
   2 -12   1    0.48    0.26
   2 -12   1    0.03    0.41
  -2  12  -2    0.40    0.55
   2 -12   2    0.83    0.52
  -2 -12  -2    0.08    0.45
  -2  12  -3   15.69    1.60
  -2 -12  -3   14.63    1.62
   2 -12   3   13.41    1.55
  -2  12  -4    4.11    0.90
   2 -12   4    4.54    0.98
  -2 -12  -4    4.99    1.11
  -2  12  -5    1.62    0.77
  -2 -12  -5    1.86    0.86
   2 -12   5    1.31    0.71
  -2  12  -6   -0.66    0.65
  -2 -12  -6    0.94    0.74
   2 -12   6    1.45    0.80
   2 -12   7    0.49    0.76
  -2 -12  -7    0.83    0.88
  -2 -12  -8    8.85    1.79
   2 -12   8   12.65    2.21
   2 -13  -8   -0.67    0.72
   2  13  -7   -0.96    0.72
  -2 -13   7   -0.12    0.72
   2 -13  -7    0.27    0.82
   2  13  -6    3.69    1.06
  -2 -13   6    4.48    1.14
   2 -13  -6    3.56    1.10
   2  13  -5   31.08    2.34
  -2 -13   5   33.33    2.32
   2 -13  -5   34.49    2.54
   2  13  -4   25.77    1.99
   2 -13  -4   28.14    2.14
  -2 -13   4   29.33    2.04
   2  13  -3   64.25    3.29
  -2 -13   3   63.92    3.20
   2  13  -1   18.77    1.66
  -2 -13   1   17.41    1.58
   2  13   0   28.79    1.86
   2 -13   0   32.46    2.05
  -2 -13   0   29.53    1.89
  -2  13  -1   48.51    2.57
   2  13   1   46.52    2.44
   2 -13   1   43.70    2.52
  -2 -13  -1   45.53    2.51
  -2  13  -2   18.11    1.71
  -2 -13  -2   16.13    1.61
   2 -13   2   20.99    1.88
  -2  13  -3    9.54    1.30
   2 -13   3    8.97    1.28
  -2 -13  -3    7.75    1.23
  -2  13  -4    4.77    1.08
   2 -13   4    6.17    1.17
  -2 -13  -4    5.41    1.20
  -2  13  -5   41.70    2.56
   2 -13   5   39.04    2.75
  -2 -13  -5   40.07    2.78
  -2  13  -6   -0.76    0.62
  -2 -13  -6    0.37    0.82
   2 -13   6    0.38    0.72
  -2 -13  -7   29.41    3.10
   2 -13   7   24.72    2.73
  -2 -13  -8   10.37    2.05
   2 -13   8    5.46    1.56
   2 -14  -8    1.31    1.13
   2  14  -7    6.91    1.51
  -2 -14   7   10.46    1.68
   2 -14  -7    6.51    1.56
   2  14  -6    4.76    1.23
   2 -14  -6    3.59    1.29
  -2 -14   6    4.57    1.09
   2  14  -5    4.81    1.13
   2 -14  -5    5.10    1.23
  -2 -14   5    5.10    1.13
   2  14  -4   57.96    3.20
   2 -14  -4   56.63    3.26
  -2 -14   4   56.84    3.11
   2  14  -3   -0.13    0.64
  -2 -14   3    0.49    0.52
   2 -14  -3   -0.19    0.44
   2  14  -1    6.61    1.03
  -2 -14   1    4.95    0.92
   2 -14  -1    4.27    0.83
   2  14   0    4.37    0.88
   2 -14   0    3.56    0.87
  -2 -14   0    4.17    0.84
  -2  14  -1    3.55    0.80
   2  14   1    1.58    0.64
  -2 -14  -1    1.74    0.67
   2 -14   1    0.67    0.53
  -2  14  -2   -0.20    0.57
   2 -14   2    0.40    0.52
  -2 -14  -2    0.37    0.58
  -2  14  -3   22.67    2.01
  -2 -14  -3   20.34    1.99
   2 -14   3   19.59    2.00
  -2  14  -4    0.56    0.63
  -2 -14  -4   -0.86    0.49
   2 -14   4    0.30    0.58
  -2  14  -5    0.14    0.76
  -2 -14  -5    0.85    0.81
   2 -14   5    0.21    0.73
  -2  14  -6   20.29    2.10
   2 -14   6   18.77    2.24
  -2 -14  -6   19.57    2.38
   2 -14   7    0.83    0.88
  -2 -14  -7   -0.28    0.81
   2 -14   8    3.64    1.34
   2 -15  -8    0.54    1.24
   2  15  -7   29.12    2.79
  -2 -15   7   18.59    3.39
   2 -15  -7   29.35    3.10
   2 -15  -6   12.04    1.90
  -2 -15   6   10.80    1.61
   2  15  -5   17.05    2.02
  -2 -15   5   15.08    1.84
   2 -15  -5   21.65    2.36
   2  15  -4    3.02    0.93
   2 -15  -4    1.58    0.88
  -2 -15   4    2.18    0.78
   2  15  -3    2.01    0.82
   2 -15  -3    1.83    0.80
  -2 -15   2    7.92    1.14
   2  15  -1    0.97    0.65
   2 -15  -1   -0.30    0.27
  -2 -15   1   -0.29    0.46
   2  15   0    2.35    0.77
   2 -15   0    5.02    1.00
  -2 -15   0    2.58    0.79
   2  15   1    2.16    0.76
  -2 -15  -1    2.65    0.79
   2 -15   1    2.33    0.79
  -2  15  -2    0.48    0.71
  -2 -15  -2   -0.03    0.54
   2 -15   2   -0.29    0.49
  -2  15  -3    5.18    1.12
   2 -15   3    2.32    0.89
  -2 -15  -3    3.39    0.93
  -2  15  -4    9.32    1.37
   2 -15   4    7.36    1.37
  -2  15  -5   10.55    1.58
   2 -15   5    8.50    1.52
  -2 -15  -5    9.15    1.61
  -2  15  -6    1.43    0.93
   2 -15   6    1.30    0.86
  -2 -15  -6    1.51    0.92
  -2 -15  -7    7.80    1.66
   2 -15   7    8.64    1.82
   2 -15   8    0.25    1.02
   2  16  -7   -0.41    0.93
   2 -16  -7    0.48    0.97
   2  16  -6   10.26    1.70
   2 -16  -6   11.74    1.92
  -2 -16   6    9.52    1.59
   2  16  -5    0.64    0.83
   2 -16  -5    0.69    0.81
  -2 -16   5   -0.57    0.50
   2  16  -4   36.31    2.55
   2 -16  -4   40.51    2.73
  -2 -16   4   35.77    2.47
   2  16  -3    3.13    0.98
  -2 -16   3    2.73    0.85
   2 -16  -3    3.68    0.98
   2  16  -1   23.37    2.07
  -2 -16   1   25.61    1.89
   2 -16  -1   17.22    1.83
   2  16   0    0.59    0.64
   2 -16   0   -0.11    0.54
  -2 -16   0    0.93    0.65
  -2  16  -1   -0.21    0.28
   2 -16   1    0.72    0.63
  -2 -16  -1    0.45    0.59
  -2  16  -2    6.02    1.19
   2 -16   2    6.86    1.21
  -2 -16  -2    7.53    1.23
  -2  16  -3   25.47    2.30
  -2 -16  -3   24.30    2.26
   2 -16   3   26.29    2.38
  -2  16  -4   38.21    2.58
  -2 -16  -4   39.23    2.79
   2 -16   4   38.33    2.75
  -2  16  -5    0.35    0.81
   2 -16   5    1.89    0.96
  -2 -16  -5    0.72    0.95
  -2  16  -6   23.39    2.40
   2 -16   6   24.51    2.64
  -2 -16  -6   23.58    2.64
  -2 -16  -7    1.12    1.13
   2 -16   7    1.85    1.03
   2  17  -7   -0.88    0.89
   2 -17  -7   -1.00    0.80
   2  17  -6    0.90    0.81
  -2 -17   6   -0.72    0.66
   2 -17  -6    0.78    0.90
   2  17  -5   44.05    3.07
   2 -17  -5   50.21    3.31
  -2 -17   5   48.91    3.12
   2  17  -4    6.06    1.35
  -2 -17   4    6.72    1.23
   2 -17  -4    8.01    1.42
   2  17  -3   22.63    2.21
  -2 -17   3   19.46    1.97
   2 -17  -3   24.42    2.31
   2  17  -2    0.84    0.70
   2 -17  -2    1.53    0.80
  -2 -17   2    0.99    0.62
   2  17  -1    6.94    1.22
   2 -17  -1    4.72    1.07
  -2 -17   1    7.21    1.22
   2  17   0    2.90    0.89
   2 -17   0    4.08    1.04
  -2 -17   0    6.46    1.13
  -2  17  -1   21.61    2.10
  -2 -17  -1   20.62    2.06
   2 -17   1   20.33    2.08
  -2  17  -2    0.27    0.70
  -2 -17  -2    0.17    0.60
   2 -17   2   -0.12    0.62
  -2  17  -3    2.62    0.97
   2 -17   3    1.17    0.74
  -2 -17  -3    3.32    1.02
  -2  17  -4    1.26    0.86
   2 -17   4    0.58    0.72
  -2 -17  -4    1.88    0.92
  -2  17  -5   18.70    2.12
   2 -17   5   19.17    2.31
  -2 -17  -5   17.56    2.17
  -2  17  -6    0.45    0.88
   2 -17   6    0.40    0.83
  -2 -17  -6    1.48    1.04
  -2 -17  -7    4.34    1.47
   2 -17   7    6.78    1.63
   2  18  -7    0.12    0.97
   2 -18  -7    0.98    1.06
   2  18  -6   33.41    3.16
   2 -18  -6   33.44    3.24
  -2 -18   6   33.54    3.11
   2  18  -5    0.68    0.97
   2 -18  -5    1.59    1.05
  -2 -18   5    2.33    1.00
   2  18  -4   18.79    2.13
   2 -18  -4   16.64    2.04
  -2 -18   4   19.74    2.10
   2  18  -3    3.24    1.05
   2 -18  -3    3.97    1.15
  -2 -18   3    2.57    0.88
   2  18  -2    6.03    1.19
   2 -18  -2    6.33    1.24
  -2 -18   2    5.31    1.09
   2  18  -1    1.88    0.91
   2 -18  -1    1.87    0.87
  -2 -18   1    2.51    0.83
   2  18   0    0.28    0.82
  -2 -18   0    1.72    0.78
   2 -18   0    0.39    0.67
  -2 -18  -1    1.90    0.84
   2 -18   1    1.84    0.78
  -2  18  -2   10.41    1.58
  -2 -18  -2    8.26    1.41
   2 -18   2   11.10    1.60
  -2  18  -3    6.77    1.34
  -2 -18  -3   10.31    1.63
   2 -18   3    8.80    1.48
  -2  18  -4    7.20    1.41
  -2 -18  -4    6.27    1.36
   2 -18   4    4.58    1.26
  -2  18  -5    1.33    0.98
  -2 -18  -5    2.63    1.08
   2 -18   5    2.24    0.97
  -2  18  -6    6.99    1.48
   2 -18   6    7.46    1.58
  -2 -18  -6    9.64    1.84
   2 -18   7    4.72    1.42
   2  19  -7    3.80    1.48
   2  19  -6   -0.94    0.73
   2 -19  -6    0.22    0.90
   2  19  -5   12.08    1.86
   2 -19  -5   14.34    2.13
  -2 -19   5   14.53    1.93
   2  19  -4    7.52    1.48
   2 -19  -4    5.79    1.36
  -2 -19   4    6.06    1.27
   2  19  -3   59.05    3.57
   2 -19  -3   65.64    3.72
  -2 -19   3   58.62    3.51
   2  19  -2    9.00    1.45
   2 -19  -2    8.62    1.49
  -2 -19   2    6.82    1.30
   2  19  -1    2.82    0.96
  -2 -19   1    3.06    0.93
   2 -19  -1    3.05    1.02
   2  19   0   24.26    2.32
  -2 -19   0   27.22    2.47
   2 -19   0   27.75    2.55
   2 -19   1   33.71    2.49
  -2 -19  -1   36.40    2.50
  -2  19  -2    4.50    1.15
  -2 -19  -2    4.76    1.15
   2 -19   2    3.90    1.08
  -2  19  -3    2.42    1.01
  -2 -19  -3    1.32    0.84
   2 -19   3    1.77    0.84
  -2  19  -4   19.58    2.27
   2 -19   4   15.25    2.08
  -2 -19  -4   18.53    2.28
  -2  19  -5   23.60    2.53
   2 -19   5   19.27    2.39
  -2 -19  -5   25.00    2.75
  -2  19  -6   -0.02    0.88
  -2 -19  -6    0.02    0.88
   2 -19   6   -0.05    0.85
   2 -19   7    6.53    1.64
   2  20  -7    3.53    1.44
   2  20  -6   -0.05    0.99
   2 -20  -6    0.36    0.98
   2  20  -5    3.56    1.28
  -2 -20   5    4.64    1.30
   2 -20  -5    5.30    1.45
   2  20  -4   29.00    2.88
  -2 -20   4   34.24    2.57
   2 -20  -4   34.76    3.16
   2  20  -3    7.55    1.44
  -2 -20   3    8.48    1.46
   2 -20  -3    7.17    1.43
   2  20  -2   18.30    2.11
   2 -20  -2   15.51    2.01
  -2 -20   2   18.29    2.06
   2  20  -1   19.68    2.17
   2 -20  -1   22.70    2.43
  -2 -20   1   20.10    2.17
   2  20   0    6.37    1.31
  -2 -20   0    6.00    1.26
   2 -20   0    6.33    1.32
  -2 -20  -1    3.34    1.06
   2 -20   1    2.95    1.00
  -2  20  -2    8.10    1.45
   2 -20   2    7.79    1.47
  -2 -20  -2    6.83    1.37
  -2  20  -3    2.50    1.02
  -2 -20  -3    2.16    0.97
   2 -20   3    1.56    0.89
  -2  20  -4    1.46    0.99
   2 -20   4    1.22    0.83
  -2 -20  -4    3.54    1.19
  -2  20  -5    1.12    1.05
   2 -20   5    3.20    1.17
  -2 -20  -5    3.57    1.33
  -2  20  -6    9.22    1.71
   2 -20   6    9.08    1.82
  -2 -20  -6   12.90    2.11
   2  21  -6    1.56    1.11
   2 -21  -6    2.66    1.29
   2  21  -5   24.76    2.73
  -2 -21   5   21.14    2.50
   2 -21  -5   16.64    2.34
   2  21  -4    0.37    0.83
  -2 -21   4    0.08    0.69
   2 -21  -4   -0.15    0.78
   2  21  -3    0.21    0.74
   2 -21  -3   -0.14    0.75
  -2 -21   3    0.33    0.66
   2  21  -2    8.58    1.54
   2 -21  -2    4.47    1.27
  -2 -21   2    6.08    1.35
   2  21  -1    5.31    1.24
  -2 -21   1    7.39    1.34
   2 -21  -1    6.37    1.40
   2  21   0    5.11    1.28
  -2 -21   0    8.53    1.54
   2 -21   0    5.42    1.28
  -2 -21  -1   13.39    1.89
   2 -21   1   13.84    1.88
  -2  21  -2    3.88    1.31
   2 -21   2    4.49    1.25
  -2 -21  -2    6.23    1.34
  -2  21  -3    0.86    1.08
   2 -21   3    1.65    0.88
  -2 -21  -3    0.29    0.77
  -2  21  -4    5.55    1.41
  -2 -21  -4    4.67    1.32
   2 -21   4    4.76    1.35
  -2  21  -5   10.54    1.83
  -2 -21  -5    6.51    1.67
   2 -21   5    9.39    1.83
  -2  21  -6    1.45    1.06
   2 -21   6    0.59    1.03
   2  22  -6    4.97    1.71
   2  22  -5    2.09    1.19
   2 -22  -5    0.80    0.96
   2  22  -4   31.66    3.11
  -2 -22   4   30.48    3.02
   2 -22  -4   35.20    3.25
   2  22  -3   -0.39    0.76
   2 -22  -3    1.96    1.10
  -2 -22   3    0.03    0.73
   2  22  -2   18.02    2.21
   2 -22  -2   17.13    2.26
  -2 -22   2   20.47    2.32
   2  22  -1   20.62    2.34
   2 -22  -1   20.31    2.37
  -2 -22   1   26.00    2.60
   2 -22   0   19.60    2.38
  -2 -22   0   19.88    2.32
  -2 -22  -1   -0.02    0.79
   2 -22   1    2.04    0.97
  -2 -22  -2   17.57    2.18
   2 -22   2   16.67    2.16
  -2  22  -3    9.05    1.68
  -2 -22  -3    9.62    1.72
   2 -22   3    9.55    1.74
  -2  22  -4    2.18    1.22
   2 -22   4    0.59    0.86
  -2 -22  -4    1.49    1.03
  -2  22  -5   -1.82    0.71
   2 -22   5    0.59    0.94
  -2 -22  -5    0.04    0.87
  -2  22  -6   15.35    2.38
   2 -22   6   15.83    2.61
   2  23  -5    6.85    1.62
   2 -23  -5    7.15    1.73
   2  23  -4    2.42    1.20
  -2 -23   4    4.64    1.31
   2 -23  -4    2.97    1.27
   2  23  -3    3.09    1.19
   2 -23  -3    2.95    1.17
  -2 -23   3    2.81    1.14
   2  23  -2    0.16    0.91
  -2 -23   2   -0.12    0.79
   2 -23  -2    0.47    0.92
   2  23  -1    0.12    0.81
  -2 -23   1    0.23    0.77
   2 -23  -1    1.08    0.90
   2 -23   0    0.10    0.87
  -2 -23   0    0.77    0.93
  -2 -23  -1    3.25    1.23
   2 -23   1    6.46    1.45
  -2 -23  -2    1.14    0.89
   2 -23   2    1.59    0.92
  -2  23  -3    5.24    1.54
   2 -23   3    7.23    1.58
  -2 -23  -3    6.88    1.54
  -2  23  -4   -0.05    0.96
  -2 -23  -4    0.72    0.98
   2 -23   4    1.43    1.04
  -2  23  -5    1.95    1.30
  -2 -23  -5    1.01    1.35
   2 -23   5    1.43    1.14
   2  24  -5    1.26    1.31
   2  24  -4    6.15    1.56
   2 -24  -4    5.76    1.54
  -2 -24   4    5.31    1.37
   2  24  -3    4.15    1.40
  -2 -24   3    2.13    0.99
   2 -24  -3    0.80    1.04
   2  24  -2    1.12    1.06
   2 -24  -2   -0.45    0.78
  -2 -24   2   -0.77    0.69
   2  24  -1    7.52    1.72
  -2 -24   1   12.90    1.91
   2 -24  -1    9.94    1.81
  -2 -24   0   -0.54    0.80
   2 -24   0   -0.24    0.84
   2 -24   1    1.36    0.90
  -2 -24  -1    1.27    1.02
  -2 -24  -2   -1.60    0.61
   2 -24   2    0.16    0.86
  -2 -24  -3   11.76    2.02
   2 -24   3    9.69    1.82
  -2  24  -4    0.05    0.96
  -2 -24  -4    1.11    1.10
   2 -24   4   -0.08    0.93
  -2  24  -5    0.41    1.05
   2 -24   5    1.65    1.20
   2  25  -4    0.15    1.11
   2  25  -3   28.09    3.09
   2 -25  -3   31.42    3.26
  -2 -25   3   29.56    3.06
   2  25  -2    0.70    0.97
  -2 -25   2    3.45    1.33
   2 -25  -2    3.55    1.28
   2  25  -1    1.33    1.08
  -2 -25   1   -0.29    0.82
   2 -25  -1    3.03    1.23
   2 -25   0    3.49    1.26
  -2 -25   0    8.24    1.64
   2 -25   1    4.35    1.33
  -2 -25  -1    6.03    1.53
  -2 -25  -2    5.22    1.49
   2 -25   2    1.79    1.10
   2 -25   3    4.77    1.42
  -2 -25  -3    5.20    1.51
  -2  25  -4    8.92    2.00
   2 -25   4    3.74    1.43
   2  26  -4    8.01    1.86
   2  26  -3    2.74    1.37
  -2 -26   3    2.90    1.17
   2 -26  -3    3.43    1.60
   2  26  -2    8.15    1.76
   2 -26  -2    5.65    1.61
  -2 -26   2    7.64    1.79
   2 -26  -1    1.14    1.09
  -2 -26   1    3.15    1.28
  -2 -26   0    1.72    1.12
   2 -26   0    1.77    1.11
  -2 -26  -1   -0.09    0.92
   2 -26   1    0.01    0.97
  -2 -26  -2   -0.73    0.70
   2 -26   2    0.69    1.03
  -2 -26  -3    0.42    0.96
   2 -26   3    0.20    1.02
   2  27  -3   -0.59    1.02
   2  27  -2    9.37    1.98
  -2 -27   2    5.28    1.46
   2 -27  -1    0.21    1.00
  -2 -27   1   -0.53    0.93
   2 -27   0    1.65    1.08
  -2 -27   0    1.96    1.19
   2 -27   1    0.05    0.93
  -2 -27  -1   -1.22    0.76
   2 -27   2    1.95    1.22
  -2 -27  -2    2.15    1.21
  -2 -28   2   11.33    2.03
  -2 -28   1    9.75    1.99
  -2 -28   0   -0.82    0.78
  -2 -28  -1   -0.68    0.82
   3   0  -9    0.02    0.73
  -3   0   8   19.53    2.20
  -3   0   7    0.25    0.65
  -3   0   6   44.42    2.63
  -3   0   5    0.07    0.41
  -3   0   4   32.03    1.81
  -3   0   3   -0.01    0.27
  -3   0   2    8.82    0.63
   3   0  -2   10.08    0.75
   3   0  -1   -0.16    0.23
   3   0  -1   -0.16    0.13
   3   0   0    3.30    0.27
   3   0   1   -0.34    0.24
   3   0   1   -0.13    0.25
   3   0   2    4.76    0.60
   3   0   2    3.10    0.46
   3   0   3    0.21    0.28
   3   0   3    0.14    0.17
  -3   0  -4   11.93    0.72
   3   0   4    9.84    1.18
   3   0   5    0.38    0.48
   3   0   6   89.61    4.48
   3   0   7   -0.48    0.69
   3   0   8    1.80    1.08
   3   0   9    0.33    0.91
   3   1  -9    4.00    1.27
   3  -1  -9    3.06    1.22
   3  -1  -8    1.29    0.87
  -3  -1   8    0.41    0.74
   3   1  -7   34.98    2.25
   3  -1  -7   35.69    2.49
  -3  -1   7   33.26    2.40
  -3   1   6    1.34    0.70
  -3  -1   6    1.25    0.67
   3  -1  -6    1.29    0.69
  -3   1   5   18.41    1.47
  -3  -1   5   21.01    1.55
  -3   1   4    2.42    0.60
  -3  -1   4    2.31    0.56
  -3   1   3   13.18    0.94
   3   1  -2    3.13    0.49
  -3  -1   2    3.23    0.41
   3  -1  -2    3.98    0.48
   3   1  -1    2.63    0.37
  -3  -1   1    1.95    0.19
   3  -1  -1    1.65    0.25
   3   1   0  145.26    5.04
   3  -1   0  147.48    5.13
   3   1   1    4.10    0.49
   3   1   1    3.47    0.48
   3  -1   1    3.43    0.42
   3  -1   1    2.79    0.42
   3   1   2   20.14    1.23
   3   1   2   20.79    1.17
   3  -1   2   22.50    1.27
   3  -1   2   21.77    1.14
  -3   1  -4    0.30    0.26
   3   1   4   -0.07    0.17
  -3  -1  -4    0.03    0.20
   3  -1   4   -0.37    0.33
   3   1   5   18.77    1.80
   3  -1   5   18.47    1.78
   3   1   6   30.50    2.29
   3  -1   6   28.88    2.22
   3   1   7    2.73    0.98
   3  -1   7    2.76    1.06
   3   1   8    7.65    1.58
   3  -1   8    5.78    1.43
   3   1   9   -0.57    0.82
   3  -1   9    0.25    0.99
   3   2  -9    1.14    0.98
  -3  -2   9    2.93    1.15
   3  -2  -9    1.14    0.99
   3  -2  -8   18.34    2.10
   3   2  -7    2.76    0.84
   3  -2  -7    2.96    0.92
  -3  -2   7    3.56    1.05
   3   2  -6   34.30    2.06
   3  -2  -6   27.74    2.12
  -3  -2   6   33.89    2.24
  -3  -2   5   45.19    2.45
   3  -2  -5   44.08    2.47
  -3  -2   4   29.26    1.65
   3  -2  -4   28.86    1.69
   3   2  -3    0.49    0.31
  -3  -2   3    0.89    0.32
   3  -2  -3    0.78    0.37
   3   2  -2   15.30    0.89
  -3  -2   2   15.65    0.83
   3  -2  -2   14.74    0.91
   3   2  -1   43.26    1.70
  -3  -2   1   40.90    1.47
   3  -2  -1   37.58    1.62
   3   2   0   14.78    0.83
   3  -2   0   16.19    0.81
  -3  -2   0   16.42    0.71
   3   2   1   98.13    3.72
   3  -2   1  100.50    3.65
   3  -2   1   99.22    3.74
   3   2   2    1.42    0.40
   3   2   2    0.93    0.38
   3  -2   2    0.74    0.32
   3  -2   2    1.48    0.35
   3   2   3   17.25    1.20
  -3   2  -3   17.20    0.87
   3   2   3   15.23    1.09
   3  -2   3   12.21    0.92
  -3   2  -4  184.31    6.60
   3  -2   4  186.22    7.27
  -3  -2  -4  180.29    6.44
   3  -2   5   20.98    1.95
   3   2   6   -0.32    0.54
   3  -2   6    0.80    0.63
   3   2   7    0.05    0.65
   3  -2   7    1.41    0.91
   3   2   8    0.93    0.95
   3  -2   8    1.39    1.08
  -3  -2  -9   -0.09    0.88
   3  -2   9   -0.40    0.89
   3  -3  -9    8.14    1.63
  -3  -3   9    9.09    1.96
  -3  -3   8   -0.72    0.74
   3  -3  -8    1.84    0.87
   3   3  -7    5.21    1.07
   3  -3  -7    5.06    1.12
  -3  -3   7    3.69    1.00
   3   3  -6    8.49    1.16
   3  -3  -6    7.21    1.20
  -3  -3   6    7.28    1.13
   3   3  -5   57.00    2.90
  -3  -3   5   60.73    2.99
   3  -3  -5   62.96    3.06
   3   3  -4   61.61    2.84
   3   3  -4   59.28    2.66
   3  -3  -4   63.83    2.89
  -3  -3   4   58.18    2.75
   3   3  -3    0.74    0.32
  -3  -3   3    0.99    0.33
   3  -3  -3    1.23    0.43
   3   3  -2   42.09    1.79
   3  -3  -2   40.89    1.88
  -3  -3   2   43.36    1.77
   3   3  -1    3.04    0.46
   3   3  -1    3.92    0.49
  -3  -3   1    4.25    0.35
   3  -3  -1    3.96    0.51
   3  -3  -1    4.63    0.52
   3   3   0    2.01    0.36
  -3  -3   0    0.50    0.21
   3  -3   0    1.15    0.29
   3  -3   0    1.36    0.31
   3   3   1   25.56    1.25
  -3  -3  -1   24.64    1.24
   3  -3   1   25.70    1.30
  -3   3  -2   19.93    1.00
   3   3   2   17.61    1.17
   3  -3   2   20.59    1.03
  -3   3  -3    6.41    0.62
   3   3   3    5.82    0.83
   3   3   3    7.12    0.86
   3  -3   3    3.57    0.64
   3  -3   3    6.90    0.69
  -3   3  -4   34.41    1.63
   3  -3   4   33.18    2.04
   3   3   6   -0.60    0.46
   3  -3   6   -0.12    0.56
   3   3   7   11.98    1.75
   3  -3   7   12.10    1.83
   3   3   8    0.86    0.95
  -3  -3  -8    0.55    0.98
   3  -3   8    1.72    0.98
  -3  -3  -9    0.58    0.98
   3  -3   9   -0.05    1.01
   3  -4  -9    3.15    1.24
  -3  -4   8    3.40    1.09
   3  -4  -8    4.40    1.31
   3   4  -7   13.59    1.66
  -3  -4   7   15.68    1.83
   3  -4  -7   12.96    1.71
   3   4  -6   63.95    3.05
   3   4  -6   61.37    3.17
   3  -4  -6   59.49    3.30
  -3  -4   6   61.79    3.26
   3   4  -5    3.63    0.77
   3   4  -5    4.29    0.74
   3  -4  -5    3.55    0.87
  -3  -4   5    3.41    0.77
   3   4  -4   69.42    3.14
   3   4  -4   69.57    2.93
   3  -4  -4   68.68    3.18
  -3  -4   4   68.90    3.10
   3   4  -3    1.74    0.39
   3   4  -3    1.70    0.50
  -3  -4   3    1.77    0.42
   3  -4  -3    2.01    0.50
   3   4  -2  139.41    5.02
   3   4  -2  141.53    5.25
  -3  -4   2  138.84    5.04
   3  -4  -2  136.22    5.19
   3   4  -1    0.29    0.28
   3   4  -1    0.34    0.29
   3  -4  -1    0.64    0.33
   3  -4  -1    0.21    0.27
  -3  -4   1    0.18    0.19
   3   4   0   26.47    1.22
   3   4   0   24.53    1.22
  -3  -4   0   27.37    1.18
   3  -4   0   26.56    1.19
   3  -4   0   23.89    1.26
   3   4   1   22.98    1.24
  -3  -4  -1   24.03    1.22
   3  -4   1   24.36    1.28
   3   4   3    0.28    0.35
   3   4   3   -0.04    0.39
  -3   4  -3    0.13    0.30
   3  -4   3   -0.09    0.23
   3  -4   3    0.49    0.34
  -3   4  -4   73.01    3.07
   3  -4   4   78.34    3.59
   3   4   5    0.11    0.35
   3  -4   5    4.04    0.94
   3   4   6    5.11    1.11
   3  -4   6    3.72    1.01
   3   4   7   12.85    1.85
   3  -4   7   12.47    1.81
   3  -4   8    0.40    0.84
  -3  -4  -8   -0.93    0.74
  -3  -4  -9    1.56    1.15
   3  -4   9    2.15    1.13
   3  -5  -9   -0.97    0.75
  -3  -5   8   11.07    1.73
   3  -5  -8    8.07    1.59
   3   5  -7   37.85    2.46
   3  -5  -7   35.85    2.63
  -3  -5   7   34.35    2.46
   3   5  -6    1.02    0.62
   3  -5  -6    0.94    0.72
  -3  -5   6   -0.39    0.40
   3   5  -5   30.66    1.94
   3   5  -5   27.63    1.62
  -3  -5   5   27.19    1.82
   3  -5  -5   25.25    1.89
   3   5  -4   29.60    1.56
   3   5  -4   29.98    1.81
  -3  -5   4   29.45    1.70
   3  -5  -4   33.31    1.93
   3   5  -3    1.40    0.46
   3   5  -3    0.26    0.27
   3  -5  -3    1.09    0.44
  -3  -5   3    1.02    0.33
   3   5  -2   70.16    3.01
   3   5  -2   73.47    2.75
   3  -5  -2   71.63    3.00
  -3  -5   2   70.63    2.82
   3   5  -1  280.40   10.30
   3   5  -1  303.79   10.13
  -3  -5   1  292.89   10.13
   3  -5  -1  291.51   10.32
   3   5   0  163.06    5.85
   3   5   0  162.34    5.87
  -3  -5   0  161.37    5.82
   3  -5   0  162.29    5.99
   3  -5   0  166.25    5.80
   3   5   1   93.21    3.38
  -3   5  -1   91.24    3.52
   3   5   1   91.16    3.57
   3  -5   1   92.34    3.66
  -3  -5  -1   86.32    3.52
  -3   5  -2   11.32    0.82
  -3  -5  -2   12.97    1.10
   3  -5   2   11.08    0.68
   3   5   3  279.21   10.17
  -3   5  -3  277.66    9.87
  -3  -5  -3  280.62   10.22
   3  -5   3  276.47    9.73
   3  -5   3  274.45   10.24
  -3   5  -4   29.79    1.54
  -3  -5  -4   21.29    1.67
   3  -5   4   31.40    1.95
  -3   5  -5   15.91    1.18
   3  -5   5   17.93    1.81
  -3  -5  -6    3.91    1.03
   3  -5   6    8.96    1.46
   3  -5   7    3.60    1.07
  -3  -5  -7    4.67    1.21
   3  -5   8    0.45    0.74
  -3  -5  -8   -0.15    0.76
  -3  -5  -9    1.69    1.06
   3  -5   9    0.09    0.86
   3  -6  -9   -1.37    0.80
  -3  -6   8    8.59    1.52
   3  -6  -8   12.20    1.83
   3   6  -7   -0.54    0.48
  -3  -6   7    0.14    0.56
   3  -6  -7    0.65    0.69
   3   6  -6   31.19    2.16
  -3  -6   6   34.53    2.21
   3  -6  -6   31.95    2.32
   3   6  -5    0.35    0.41
   3   6  -5    1.17    0.60
   3  -6  -5    1.20    0.69
  -3  -6   5    0.25    0.46
   3   6  -4   10.92    1.22
   3   6  -4   13.95    0.91
   3  -6  -4   12.11    1.27
  -3  -6   4   11.47    1.17
   3   6  -3    5.73    0.58
   3   6  -3    3.27    0.66
   3  -6  -3    4.18    0.74
   3   6  -2   37.16    1.53
   3   6  -2   37.00    1.83
  -3  -6   2   33.13    1.63
   3  -6  -2   34.43    1.79
   3   6  -1   46.10    1.85
   3  -6  -1   45.53    2.09
  -3  -6   1   44.48    1.91
   3   6   0    5.83    0.66
   3   6   0    7.54    0.66
   3  -6   0    7.46    0.61
   3  -6   0    6.40    0.77
  -3  -6   0    5.84    0.61
   3   6   1   45.67    1.91
  -3   6  -1   43.78    2.03
   3   6   1   43.19    2.02
  -3  -6  -1   47.73    2.07
   3   6   2   41.73    2.06
  -3   6  -2   42.71    1.99
  -3  -6  -2   43.99    2.12
  -3   6  -3    0.33    0.37
   3   6   3    0.01    0.15
   3  -6   3   -0.09    0.33
   3  -6   3   -0.20    0.19
  -3  -6  -3   -0.13    0.36
  -3   6  -4  105.87    4.29
   3  -6   4  108.79    4.73
  -3  -6  -4  106.41    4.71
  -3   6  -5    2.09    0.59
   3  -6   5    2.23    0.80
  -3  -6  -5    0.30    0.32
   3  -6   6   46.35    3.01
  -3  -6  -6   44.89    2.90
  -3  -6  -7    2.32    1.06
   3  -6   7    4.25    1.15
   3  -6   8    0.77    0.84
  -3  -6  -8    0.45    0.93
   3  -6   9   -0.08    0.98
   3  -7  -9    1.27    1.01
   3  -7  -8    0.82    0.77
   3   7  -7   20.94    2.10
  -3  -7   7   17.02    1.93
   3  -7  -7   20.01    2.18
   3   7  -6    0.30    0.66
  -3  -7   6   -0.31    0.45
   3  -7  -6    0.23    0.62
   3   7  -5   51.97    2.78
   3  -7  -5   50.66    2.85
  -3  -7   5   51.30    2.71
   3   7  -4    5.38    0.62
   3   7  -4    3.73    0.76
   3  -7  -4    1.79    0.65
  -3  -7   4    4.58    0.74
   3   7  -3    8.62    0.71
   3   7  -3    9.88    1.08
   3  -7  -3    8.87    1.03
  -3  -7   3    8.29    0.88
   3   7  -2    3.99    0.64
   3   7  -2    4.63    0.47
  -3  -7   2    4.00    0.56
   3  -7  -2    5.07    0.71
   3   7  -1  166.78    5.96
   3  -7  -1  164.24    6.27
  -3  -7   1  170.47    6.11
   3   7   0    3.79    0.55
   3   7   0    3.32    0.47
   3  -7   0    3.44    0.46
  -3  -7   0    4.57    0.58
   3  -7   0    4.20    0.65
  -3   7  -1   18.95    1.22
   3   7   2    0.91    0.40
  -3   7  -2    1.10    0.45
  -3  -7  -2    0.87    0.42
   3  -7   2    0.58    0.32
  -3   7  -3  262.46    9.53
  -3  -7  -3  262.18    9.82
   3  -7   3  261.76    9.15
   3  -7   3  264.40    9.84
  -3   7  -4    5.26    0.79
   3  -7   4    5.43    0.96
  -3  -7  -4    6.23    1.04
  -3   7  -5   38.37    2.06
   3  -7   5   33.16    2.40
   3  -7   6    1.69    0.79
  -3  -7  -6    1.11    0.74
  -3  -7  -7    0.40    0.79
   3  -7   7    0.54    0.83
  -3  -7  -8    0.53    0.89
   3  -7   8    0.84    0.94
   3  -7   9    1.90    1.10
   3  -8  -9    2.26    1.14
   3  -8  -8    7.17    1.51
   3   8  -7   41.42    2.72
   3  -8  -7   43.60    2.94
  -3  -8   7   36.50    2.62
   3   8  -6   27.06    2.05
   3  -8  -6   32.29    2.33
  -3  -8   6   32.70    2.23
   3   8  -5    1.42    0.67
   3  -8  -5    0.01    0.53
  -3  -8   5    1.83    0.62
   3   8  -4   14.34    0.93
   3   8  -4   14.11    1.46
  -3  -8   4   14.58    1.33
   3  -8  -4   13.93    1.49
   3   8  -3   61.20    2.44
   3   8  -3   63.13    2.98
   3  -8  -3   61.15    2.99
  -3  -8   3   63.96    2.82
   3   8  -2  146.75    4.87
   3   8  -2  112.46    5.23
   3  -8  -2  143.75    5.39
   3   8  -1  169.02    6.54
   3   8  -1  177.57    6.22
  -3  -8   1  178.52    6.45
   3  -8  -1  173.09    6.60
   3   8   0    9.95    0.74
   3  -8   0    8.72    0.66
   3  -8   0   11.41    1.05
  -3  -8   0    8.57    0.84
   3   8   1   36.86    1.70
   3   8   1   38.47    1.80
  -3   8  -1   37.10    1.83
  -3  -8  -1   27.25    1.68
  -3   8  -2  142.16    5.41
   3   8   2  134.93    5.44
   3  -8   2  142.44    5.60
  -3  -8  -2  138.03    5.49
  -3   8  -3   21.68    1.46
  -3  -8  -3   23.84    1.62
   3  -8   3   22.85    1.65
  -3   8  -4  122.95    4.82
   3  -8   4  116.53    5.15
  -3  -8  -4  110.38    5.07
  -3   8  -5    0.43    0.55
   3  -8   5   -0.30    0.58
  -3  -8  -5    0.67    0.68
  -3  -8  -6   11.09    1.61
   3  -8   6   10.07    1.53
  -3  -8  -7    2.08    0.97
   3  -8   7    0.64    0.84
  -3  -8  -8    0.18    0.76
   3  -8   8    0.21    0.86
   3  -9  -9   14.89    2.19
   3  -9  -8    0.05    0.79
   3  -9  -7   31.16    2.85
  -3  -9   7   31.00    2.40
   3   9  -6    0.67    0.69
   3  -9  -6    2.19    0.89
  -3  -9   6    1.53    0.70
   3   9  -5    2.22    0.83
   3  -9  -5    1.75    0.80
  -3  -9   5    2.90    0.75
   3   9  -4    1.82    0.70
  -3  -9   4    1.95    0.60
   3  -9  -4    2.75    0.76
   3   9  -3  117.41    4.19
   3   9  -3  111.92    4.80
   3  -9  -3  113.46    4.83
  -3  -9   3  114.39    4.65
  -3  -9   2    4.84    0.68
   3  -9  -2   12.27    1.19
   3   9  -1   11.28    1.09
   3   9  -1   11.84    0.74
   3  -9  -1    9.98    1.08
   3   9   0   28.15    1.44
   3   9   0   28.02    1.60
   3  -9   0   27.74    1.68
   3  -9   0   32.14    1.41
   3   9   1    2.03    0.48
  -3   9  -1    2.02    0.54
  -3  -9  -1    2.45    0.55
   3   9   2    2.27    0.54
  -3   9  -2    1.75    0.55
   3  -9   2    2.27    0.59
  -3  -9  -2    1.19    0.52
  -3   9  -3    2.26    0.65
  -3  -9  -3    1.03    0.52
   3  -9   3    1.76    0.60
  -3   9  -4    4.01    0.80
   3  -9   4    2.18    0.75
  -3  -9  -4    0.89    0.60
  -3   9  -5   54.46    2.87
   3  -9   5   57.77    3.28
  -3  -9  -5   60.99    3.32
   3  -9   6    0.27    0.67
  -3  -9  -6   -0.84    0.55
   3  -9   7   13.78    2.03
  -3  -9  -7   17.58    2.21
   3  -9   8    0.98    0.93
  -3  -9  -8    1.57    1.06
   3 -10  -9    1.02    1.11
   3 -10  -8    9.40    1.77
   3  10  -7    8.45    1.48
   3 -10  -7    4.31    1.19
  -3 -10   7    5.65    1.24
   3  10  -6   26.90    2.11
   3 -10  -6   25.18    2.45
  -3 -10   6   29.38    2.12
   3  10  -5   17.75    1.86
  -3 -10   5   20.82    1.89
   3 -10  -5   26.21    1.98
   3  10  -4    0.09    0.59
  -3 -10   4   -0.03    0.39
   3 -10  -4    0.86    0.66
   3  10  -3   15.65    1.52
   3 -10  -3   13.60    1.40
  -3 -10   3   16.25    1.25
   3  10  -2   23.53    1.08
   3 -10  -2   21.47    1.55
  -3 -10   2   22.50    1.42
   3  10  -1   23.33    1.16
   3  10  -1   21.28    1.45
  -3 -10   1   22.82    1.41
   3 -10  -1   23.37    1.53
   3  10   0    2.10    0.56
   3  10   0    1.66    0.41
  -3 -10   0    2.75    0.57
   3 -10   0    0.38    0.36
   3 -10   0    2.36    0.42
   3  10   1   10.47    1.00
   3  10   1   11.06    1.06
  -3  10  -1   13.07    1.21
   3 -10   1    6.17    0.89
  -3 -10  -1   12.38    1.15
   3 -10   1   11.96    0.68
  -3  10  -2   98.24    4.16
   3  10   2  100.73    4.17
  -3 -10  -2   96.07    4.21
   3 -10   2   98.28    4.31
  -3  10  -3   10.45    1.18
  -3 -10  -3   13.62    1.46
   3 -10   3   10.79    1.31
  -3  10  -4   60.61    3.01
   3 -10   4   62.28    3.32
  -3 -10  -4   57.52    3.19
  -3  10  -5    0.10    0.56
  -3 -10  -5    0.36    0.66
   3 -10   5    0.84    0.71
  -3 -10  -6    0.86    0.77
   3 -10   6    1.21    0.85
   3 -10   7    0.71    0.82
  -3 -10  -7    0.77    0.81
   3 -10   8   -0.68    0.72
  -3 -10  -8   -1.06    0.64
   3 -11  -8    1.63    0.98
   3  11  -7   51.19    3.27
  -3 -11   7   49.72    3.21
   3 -11  -7   53.50    3.54
   3  11  -6    3.46    0.98
  -3 -11   6    5.15    1.14
   3 -11  -6    4.41    1.17
   3  11  -5   39.43    2.52
  -3 -11   5   41.18    2.46
   3 -11  -5   37.43    2.62
   3  11  -4   16.81    1.68
  -3 -11   4   16.99    1.60
   3 -11  -4   18.48    1.85
   3  11  -3    0.14    0.58
  -3 -11   3    1.27    0.50
   3 -11  -3    0.34    0.53
   3  11  -2    4.51    0.46
  -3 -11   2    5.63    0.81
   3 -11  -2    3.97    0.78
   3  11  -1   63.81    3.02
   3  11  -1   66.50    2.61
  -3 -11   1   66.64    2.99
   3 -11  -1   62.40    3.08
   3  11   0   51.34    2.28
   3  11   0   53.62    2.55
   3 -11   0   53.88    2.24
  -3 -11   0   49.25    2.48
  -3  11  -1    2.80    0.69
   3  11   1    3.81    0.63
   3  11   1    3.99    0.71
  -3 -11  -1    4.24    0.77
   3 -11   1    2.79    0.64
   3 -11   1    4.10    0.45
  -3  11  -2    5.44    0.92
   3 -11   2    7.08    1.04
  -3 -11  -2    7.55    1.08
  -3  11  -3   80.34    3.71
   3 -11   3   78.91    3.91
  -3 -11  -3   86.71    3.94
  -3  11  -4   46.79    2.62
   3 -11   4   52.43    2.97
  -3 -11  -4   49.37    2.88
  -3  11  -5    8.97    1.25
  -3 -11  -5    6.59    1.28
   3 -11   5    7.72    1.40
  -3 -11  -6    1.36    0.87
   3 -11   6   -0.37    0.66
   3 -11   7   10.62    1.83
  -3 -11  -7    9.32    1.69
  -3 -11  -8   50.34    4.53
   3 -12  -8   10.01    1.80
   3  12  -7   -0.27    0.70
   3 -12  -7   -0.08    0.79
   3  12  -6   14.86    1.85
  -3 -12   6   16.75    1.89
   3 -12  -6   20.05    2.20
   3  12  -5    0.30    0.67
  -3 -12   5    0.16    0.50
   3 -12  -5   -0.70    0.65
   3  12  -4    5.50    1.06
   3 -12  -4    4.43    1.02
  -3 -12   4    5.00    0.94
   3  12  -3    0.78    0.61
   3 -12  -3   -0.50    0.45
  -3 -12   3    0.22    0.44
   3 -12  -2    4.38    0.86
  -3 -12   2    2.88    0.67
   3  12  -1    0.44    0.28
   3  12  -1   -0.51    0.43
   3 -12  -1    0.14    0.39
  -3 -12   1   -0.03    0.36
   3  12   0   13.13    1.28
   3  12   0   12.23    0.93
  -3 -12   0   16.68    1.45
   3 -12   0   14.00    0.91
  -3  12  -1    2.74    0.74
   3  12   1    3.12    0.62
   3  12   1    2.92    0.67
   3 -12   1    3.08    0.41
   3 -12   1    1.08    0.53
  -3 -12  -1    3.64    0.72
  -3  12  -2    4.23    0.85
   3 -12   2    3.72    0.83
  -3 -12  -2    3.40    0.79
  -3  12  -3    5.68    1.03
   3 -12   3    5.97    1.10
  -3 -12  -3    5.90    1.04
  -3  12  -4   35.33    2.26
  -3 -12  -4   39.73    2.61
   3 -12   4   41.35    2.59
  -3  12  -5   -0.09    0.52
  -3 -12  -5   -0.30    0.55
   3 -12   5    0.01    0.60
  -3 -12  -6   40.06    2.89
   3 -12   6   37.12    2.84
   3 -12   7    1.16    0.88
  -3 -12  -7    1.80    1.00
  -3 -12  -8   -1.34    0.74
   3 -12   8    0.30    0.93
   3 -13  -8    2.04    1.17
   3  13  -7   12.32    1.87
   3 -13  -7   14.68    2.16
   3  13  -6   -0.22    0.64
   3 -13  -6   -0.38    0.66
  -3 -13   6    0.38    0.65
   3  13  -5   18.24    1.98
   3 -13  -5   22.95    2.28
  -3 -13   5   20.74    1.98
   3  13  -4    9.89    1.38
   3 -13  -4   10.98    1.50
  -3 -13   4   11.00    1.31
   3  13  -3    3.22    0.91
   3 -13  -3    3.86    0.93
  -3 -13   3    4.29    0.85
  -3 -13   2    3.93    0.79
   3 -13  -2    5.11    0.99
   3  13  -1   54.84    2.23
   3  13  -1   51.35    2.73
  -3 -13   1   49.88    2.65
   3  13   0  112.23    4.44
   3  13   0  117.45    4.82
  -3 -13   0  111.14    4.75
   3  13   1    4.02    0.80
   3 -13   1    2.64    0.71
  -3 -13  -1    2.54    0.74
  -3  13  -2   13.66    1.50
   3 -13   2   16.53    1.69
  -3 -13  -2   14.85    1.52
  -3  13  -3  103.87    4.61
  -3 -13  -3  104.93    4.76
   3 -13   3   99.07    4.76
  -3  13  -4    7.21    1.19
   3 -13   4    8.07    1.38
  -3 -13  -4    8.02    1.35
  -3  13  -5   48.31    2.83
   3 -13   5   52.05    3.20
  -3 -13  -5   48.86    3.21
   3 -13   6    1.64    0.90
  -3 -13  -6    1.25    0.92
  -3 -13  -7    1.45    1.06
   3 -13   7   -0.65    0.87
   3 -13   8   -0.43    0.72
  -3 -13  -8    0.16    1.18
   3 -14  -8   11.67    2.12
   3  14  -7    8.82    1.62
   3 -14  -7    8.00    1.71
   3  14  -6   17.97    2.09
   3 -14  -6   23.24    2.47
  -3 -14   6   13.28    1.79
   3  14  -5    1.95    0.87
  -3 -14   5    2.67    0.87
   3 -14  -5    2.65    0.95
   3  14  -4   39.84    2.64
  -3 -14   4   45.81    2.63
   3 -14  -4   43.37    2.80
   3  14  -3    5.19    1.09
  -3 -14   3    4.66    0.87
   3 -14  -3    6.06    1.11
   3  14  -1    0.95    0.62
   3  14  -1    1.69    0.41
  -3 -14   1    1.39    0.59
   3 -14  -1    0.26    0.25
   3  14   0    0.84    0.60
  -3 -14   0    0.38    0.49
   3 -14   0    0.06    0.22
   3 -14   0    0.77    0.46
   3  14   1   -0.20    0.52
   3 -14   1   -0.20    0.49
  -3 -14  -1    0.01    0.50
  -3  14  -2   74.24    3.58
   3 -14   2   69.02    3.59
  -3 -14  -2   68.81    3.52
  -3  14  -3    3.49    1.00
  -3 -14  -3    3.41    0.93
   3 -14   3    2.65    0.84
  -3  14  -4   29.72    2.18
   3 -14   4   28.12    2.23
  -3 -14  -4   30.32    2.28
  -3  14  -5    6.05    1.12
  -3 -14  -5    2.45    1.00
   3 -14   5    5.01    1.19
  -3  14  -6    5.81    1.83
   3 -14   6    6.55    1.44
  -3 -14  -6    5.13    1.32
  -3 -14  -7    6.38    1.58
   3 -14   7    7.96    1.70
   3 -14   8    0.92    1.08
   3  15  -8    1.00    1.61
   3 -15  -8   -0.40    0.96
   3  15  -7   25.05    2.61
   3 -15  -7   20.98    2.62
   3  15  -6    1.74    0.94
  -3 -15   6    0.93    0.81
   3 -15  -6    1.94    0.94
   3  15  -5   -0.74    0.58
   3 -15  -5    0.84    0.82
  -3 -15   5    0.61    0.69
   3  15  -4    3.24    1.01
  -3 -15   4    2.47    0.81
   3 -15  -4    3.41    1.01
   3  15  -3    0.73    0.68
  -3 -15   3    1.68    0.70
   3 -15  -3    1.69    0.77
   3  15  -2   -0.35    0.23
   3 -15  -2   -0.36    0.27
  -3 -15   2    0.89    0.59
   3  15  -1    0.59    0.68
   3 -15  -1   -0.07    0.20
  -3 -15   1   -0.07    0.42
   3  15   0   22.90    1.72
   3 -15   0   19.34    1.25
  -3 -15   0   22.67    1.67
   3  15   1    0.30    0.56
  -3 -15  -1   -0.25    0.47
   3 -15   1   -0.13    0.52
  -3  15  -2   10.19    1.39
  -3 -15  -2    9.23    1.38
   3 -15   2    9.14    1.35
  -3  15  -3   18.26    1.90
   3 -15   3   22.47    2.19
  -3 -15  -3   22.88    2.08
  -3  15  -4   13.18    1.60
  -3 -15  -4   13.51    1.76
   3 -15   4   12.32    1.71
  -3  15  -5   15.97    1.89
  -3 -15  -5   18.22    2.15
   3 -15   5   15.86    2.04
  -3  15  -6    0.75    0.87
  -3 -15  -6    0.84    0.89
   3 -15   6    1.98    1.00
  -3 -15  -7   18.71    2.55
   3 -15   7   18.27    2.51
   3  16  -8    2.57    1.24
   3  16  -7    2.09    1.12
   3 -16  -7    2.33    1.18
   3  16  -6   29.82    2.84
   3 -16  -6   44.01    3.11
   3  16  -5    8.76    1.56
  -3 -16   5    8.35    1.36
   3 -16  -5   10.29    1.68
   3  16  -4    6.44    1.30
  -3 -16   4    6.79    1.20
   3 -16  -4    3.69    1.07
   3  16  -3    8.33    1.34
  -3 -16   3    7.02    1.12
   3 -16  -3    7.59    1.35
   3  16  -2    9.88    1.39
  -3 -16   2   11.06    1.37
   3 -16  -2    7.63    1.26
   3  16  -1   11.44    1.50
  -3 -16   1   10.46    1.36
   3  16   0    0.98    0.63
   3 -16   0    0.82    0.54
  -3 -16   0   -0.38    0.53
   3  16   1   14.42    1.60
  -3 -16  -1   17.29    1.75
   3 -16   1   18.38    1.84
  -3  16  -2   27.91    2.14
  -3 -16  -2   27.12    2.04
   3 -16   2   29.37    2.22
  -3  16  -3   -0.02    0.64
  -3 -16  -3    0.63    0.71
   3 -16   3   -0.08    0.54
  -3  16  -4   31.12    2.34
  -3 -16  -4   33.30    2.51
   3 -16   4   33.89    2.59
  -3  16  -5    6.80    1.38
  -3 -16  -5    7.35    1.50
   3 -16   5    4.59    1.22
  -3  16  -6    2.18    0.98
   3 -16   6    2.94    1.12
  -3 -16  -6    4.20    1.28
   3 -16   7    2.84    1.17
  -3 -16  -7    2.58    1.28
   3  17  -7    4.28    1.35
   3 -17  -7    0.76    1.03
   3  17  -6   15.89    2.10
   3 -17  -6   15.82    2.23
   3  17  -5   36.04    2.75
  -3 -17   5   39.11    2.73
   3 -17  -5   43.13    3.05
   3  17  -4    8.32    1.43
  -3 -17   4    6.53    1.22
   3 -17  -4    7.35    1.39
   3  17  -3    5.59    1.15
  -3 -17   3    6.63    1.16
   3 -17  -3    4.05    1.08
   3  17  -2    0.83    0.80
  -3 -17   2    0.73    0.56
   3 -17  -2    2.22    0.82
   3  17  -1    6.91    1.25
   3 -17  -1    9.29    1.35
  -3 -17   1    8.36    1.30
   3  17   0   52.37    2.97
   3 -17   0   51.41    3.07
  -3 -17   0   50.27    2.95
   3  17   1   11.76    1.55
  -3 -17  -1    9.97    1.44
   3 -17   1   11.26    1.51
  -3  17  -2   21.13    2.08
  -3 -17  -2   17.02    1.87
   3 -17   2   16.50    1.91
  -3  17  -3   32.27    2.36
  -3 -17  -3   28.86    2.28
   3 -17   3   30.00    2.39
  -3  17  -4   12.22    1.75
   3 -17   4   14.22    1.93
  -3 -17  -4   13.99    1.88
  -3  17  -5   42.07    2.81
  -3 -17  -5   40.16    2.99
   3 -17   5   35.33    2.84
  -3  17  -6    2.56    1.08
   3 -17   6    1.53    0.95
  -3 -17  -6    1.57    1.16
   3 -17   7    0.77    0.99
  -3 -17  -7    1.09    1.09
   3  18  -7    0.38    1.09
   3 -18  -7    1.79    1.11
   3  18  -6    1.18    1.00
   3 -18  -6    0.36    0.98
   3  18  -5    0.67    0.87
   3 -18  -5   -0.84    0.70
  -3 -18   5    0.37    0.76
   3  18  -4    3.56    1.17
   3 -18  -4    2.92    1.03
  -3 -18   4    1.89    0.81
   3  18  -3    2.62    0.94
   3 -18  -3    1.29    0.80
   3  18  -2    6.35    1.26
  -3 -18   2    7.49    1.28
   3 -18  -2    7.37    1.32
   3  18  -1    2.84    0.96
  -3 -18   1    2.90    0.88
   3 -18  -1    1.23    0.78
   3  18   0    6.81    1.25
  -3 -18   0    8.52    1.35
   3 -18   0    7.28    1.31
   3  18   1    0.08    0.71
  -3 -18  -1    1.16    0.78
   3 -18   1    0.28    0.61
  -3  18  -2    6.97    1.35
  -3 -18  -2    7.11    1.32
   3 -18   2    8.97    1.51
  -3  18  -3   -0.12    0.71
   3 -18   3   -0.22    0.63
  -3 -18  -3    0.16    0.76
  -3  18  -4   41.53    2.81
  -3 -18  -4   36.87    2.82
   3 -18   4   35.74    2.86
  -3  18  -5    0.20    0.79
   3 -18   5    1.76    0.96
  -3 -18  -5    0.70    0.90
  -3  18  -6   19.19    2.29
  -3 -18  -6   18.07    2.48
   3 -18   6   18.92    2.46
   3 -18   7    0.68    1.02
   3  19  -7   16.15    2.33
   3  19  -6   -0.66    0.81
   3 -19  -6   -1.30    0.70
   3  19  -5   12.09    1.91
   3 -19  -5   13.16    1.99
   3  19  -4   20.38    2.37
  -3 -19   4   23.01    2.30
   3 -19  -4   23.19    2.52
   3  19  -3    2.69    1.02
  -3 -19   3    3.95    1.02
   3 -19  -3    3.70    1.05
   3  19  -2   19.86    2.14
  -3 -19   2   17.27    1.94
   3 -19  -2   19.01    2.09
   3  19  -1    2.20    0.98
   3 -19  -1    3.15    1.04
  -3 -19   1    2.08    0.85
   3  19   0   22.36    2.18
  -3 -19   0   20.42    2.15
   3 -19   0   19.79    2.13
   3 -19   1   11.14    1.61
  -3 -19  -1    9.63    1.46
  -3 -19  -2    0.00    0.62
   3 -19   2   -0.23    0.57
  -3  19  -3   45.10    3.07
   3 -19   3   49.63    3.20
  -3 -19  -3   47.45    3.10
  -3  19  -4    0.84    0.95
  -3 -19  -4    1.35    0.93
   3 -19   4    0.10    0.71
  -3  19  -5    2.42    1.17
   3 -19   5    1.75    0.98
  -3 -19  -5    1.46    0.97
  -3  19  -6    3.63    1.23
   3 -19   6    2.13    1.19
  -3 -19  -6    4.19    1.50
   3  20  -7    1.30    1.15
   3  20  -6    5.08    1.51
   3 -20  -6    8.18    1.78
   3  20  -5    0.97    1.04
   3 -20  -5   -0.86    0.58
   3  20  -4    7.20    1.55
  -3 -20   4    5.54    1.26
   3 -20  -4    5.80    1.40
   3  20  -3    3.94    1.14
  -3 -20   3    4.25    1.07
   3 -20  -3    3.14    1.12
   3  20  -2    4.24    1.15
   3 -20  -2    3.62    1.10
  -3 -20   2    5.52    1.19
   3  20  -1    8.96    1.52
  -3 -20   1    7.14    1.29
   3 -20  -1    7.03    1.39
   3  20   0    0.56    0.76
  -3 -20   0    1.17    0.79
   3 -20   0    0.59    0.75
   3 -20   1    2.70    1.02
  -3 -20  -1    1.10    0.81
   3 -20   2   13.86    1.94
  -3 -20  -2   14.65    1.89
  -3  20  -3   22.73    2.42
  -3 -20  -3   15.44    2.03
   3 -20   3   18.92    2.28
  -3  20  -4   18.98    2.25
   3 -20   4   17.63    2.30
  -3 -20  -4   20.60    2.49
  -3  20  -5    0.16    0.85
  -3 -20  -5    0.06    0.81
   3 -20   5    1.02    1.00
  -3  20  -6    4.58    1.40
   3 -20   6    3.86    1.31
  -3 -20  -6    4.02    1.39
   3  21  -6    1.21    1.12
   3 -21  -6    1.98    1.38
   3  21  -5   -1.14    0.78
   3 -21  -5    1.08    1.04
   3  21  -4   12.32    1.93
   3 -21  -4    8.99    1.67
  -3 -21   4    9.00    1.56
   3  21  -3    8.44    1.57
   3 -21  -3    7.21    1.52
  -3 -21   3    6.19    1.29
   3  21  -2   -1.52    0.65
   3 -21  -2    0.57    0.79
  -3 -21   2   -0.15    0.69
   3  21  -1    2.07    0.99
   3 -21  -1    1.79    0.89
  -3 -21   1    3.53    1.09
   3  21   0    1.20    0.86
  -3 -21   0    1.94    0.89
   3 -21   0    2.16    0.96
  -3 -21  -1   -0.12    0.70
   3 -21   1    0.50    0.79
  -3 -21  -2    6.53    1.40
   3 -21   2    3.52    1.09
  -3  21  -3   -0.85    0.75
  -3 -21  -3   -0.33    0.72
   3 -21   3   -0.04    0.68
  -3  21  -4    3.31    1.32
   3 -21   4    4.70    1.39
  -3 -21  -4    4.31    1.29
  -3  21  -5   22.34    2.67
   3 -21   5   26.88    2.94
  -3 -21  -5   21.20    2.70
  -3  21  -6   -1.64    0.93
   3 -21   6    1.08    1.05
   3  22  -6   24.56    3.03
   3  22  -5    3.67    1.37
   3 -22  -5    2.97    1.28
   3  22  -4    2.39    1.18
   3 -22  -4    2.51    1.13
   3  22  -3    7.77    1.54
   3 -22  -3    5.37    1.46
  -3 -22   3    8.54    1.51
   3  22  -2    1.18    0.93
  -3 -22   2    0.15    0.78
   3 -22  -2    0.68    0.87
   3  22  -1    0.03    0.80
  -3 -22   1    1.16    0.87
   3 -22  -1   -0.03    0.87
   3  22   0    2.71    1.11
   3 -22   0    1.27    0.92
  -3 -22   0    3.30    1.14
  -3 -22  -1    7.19    1.48
   3 -22   1    8.40    1.58
   3 -22   2   20.03    2.35
  -3 -22  -2   19.10    2.28
  -3 -22  -3   -1.00    0.65
   3 -22   3   -0.14    0.70
  -3  22  -4    8.80    1.75
   3 -22   4    6.80    1.59
  -3 -22  -4   11.35    1.91
  -3  22  -5    1.49    1.07
   3 -22   5    0.56    0.99
  -3 -22  -5    1.85    1.10
  -3  22  -6    0.65    1.06
   3  23  -5    9.57    1.88
   3 -23  -5   10.41    2.10
   3  23  -4    1.09    1.00
   3 -23  -4    3.40    1.28
   3  23  -3   -1.20    0.70
  -3 -23   3   -0.20    0.62
   3 -23  -3    0.07    0.81
   3  23  -2   -1.03    0.72
  -3 -23   2   -0.42    0.70
   3 -23  -2    0.33    0.81
   3  23  -1   -0.70    0.74
  -3 -23   1    0.24    0.62
   3 -23  -1   -1.18    0.56
   3  23   0    1.22    0.94
  -3 -23   0    2.74    1.04
   3 -23   0    2.34    1.02
  -3 -23  -1    0.58    0.81
   3 -23   1    0.35    0.92
  -3 -23  -2    2.62    1.08
   3 -23   2    3.98    1.23
  -3 -23  -3    6.28    1.44
   3 -23   3    4.25    1.33
  -3  23  -4    8.00    1.70
  -3 -23  -4    6.39    1.66
   3 -23   4    9.57    1.88
  -3  23  -5    5.09    1.58
   3 -23   5    2.95    1.24
  -3 -23  -5    3.16    1.96
   3  24  -5    0.18    1.01
   3  24  -4    1.94    1.32
   3 -24  -4   -0.27    0.78
   3  24  -3    2.14    1.26
  -3 -24   3    4.98    1.37
   3 -24  -3    1.95    1.05
   3  24  -2    8.76    1.74
  -3 -24   2    4.27    1.34
   3 -24  -2    4.63    1.39
   3  24  -1    0.01    0.91
  -3 -24   1   -0.20    0.66
   3 -24  -1    0.03    0.83
  -3 -24   0    0.44    0.85
   3 -24   0   -0.21    0.82
  -3 -24  -1    7.08    1.54
   3 -24   1    6.81    1.56
   3 -24   2    1.56    1.01
  -3 -24  -2   -1.23    0.77
  -3 -24  -3    1.31    1.02
   3 -24   3   -0.07    0.75
   3 -24   4   14.87    2.34
  -3 -24  -4   11.03    2.03
  -3  24  -5    2.60    1.35
   3  25  -4    4.90    1.53
   3  25  -3    3.02    1.25
   3 -25  -3    2.24    1.19
   3  25  -2    2.03    1.26
   3 -25  -2    1.32    1.07
  -3 -25   2    0.89    0.99
   3  25  -1   10.65    1.90
   3 -25  -1    6.07    1.58
  -3 -25   1    4.61    1.35
  -3 -25   0   12.28    2.01
   3 -25   0    9.46    1.79
  -3 -25  -1    2.89    1.14
   3 -25   1    1.36    1.00
   3 -25   2    3.25    1.27
  -3 -25  -2    0.93    0.93
  -3 -25  -3   19.51    2.58
   3 -25   3   23.97    2.86
   3 -25   4    0.65    1.18
   3  26  -4   -0.05    1.06
   3  26  -3    1.80    1.16
   3  26  -2    2.69    1.37
  -3 -26   2    1.73    1.11
   3 -26  -2    1.18    1.12
   3  26  -1    1.82    1.27
   3 -26  -1    1.31    1.08
  -3 -26   1    0.05    0.83
   3 -26   0    2.93    1.31
  -3 -26   0    0.97    0.96
   3 -26   1    2.78    1.25
  -3 -26  -1    1.68    1.18
   3 -26   2   11.20    2.00
  -3 -26  -2   12.48    2.00
  -3 -26  -3    6.18    1.56
   3 -26   3    6.98    1.71
   3  27  -3    1.57    1.23
   3  27  -2   -0.16    1.11
   3 -27  -1    2.17    1.25
  -3 -27   1    3.48    1.31
  -3 -27   0    1.78    1.11
   3 -27   0    3.85    1.47
   3 -27   1    0.54    0.96
  -3 -27  -1    1.45    1.09
  -3 -27  -2    1.37    1.16
   3 -27   2    1.68    1.72
   3  28  -2    0.37    1.24
  -3 -28   1   -0.18    0.95
  -3 -28   0    0.71    1.00
  -3 -28  -1    5.08    1.61
   4   0  -8   10.05    1.60
  -4   0   7   -0.48    0.47
   4   0  -7   -0.20    0.65
  -4   0   6    4.40    0.90
  -4   0   5    0.32    0.44
  -4   0   4   62.27    2.82
   4   0  -3   -0.13    0.30
  -4   0   3    0.42    0.28
   4   0  -2  168.67    5.92
   4   0  -2  154.10    5.68
   4   0  -1   -0.41    0.26
   4   0  -1   -0.08    0.14
   4   0   1    0.08    0.27
   4   0   1   -0.04    0.25
   4   0   2 1000.00   34.06
   4   0   2  992.25   33.96
   4   0   3    0.30    0.41
   4   0   3    0.03    0.34
   4   0   5   -0.01    0.29
   4   0   6    0.70    0.65
   4   0   7   -0.37    0.61
   4   0   8    7.58    1.61
   4   0   9   -0.16    0.87
   4  -1  -9   20.45    3.45
   4   1  -8    0.27    0.66
   4   1  -8    0.33    0.76
   4  -1  -8    0.30    0.77
  -4  -1   8   -0.92    0.62
   4   1  -7    2.26    0.80
   4  -1  -7    1.61    0.87
  -4  -1   7    3.58    0.98
   4  -1  -6    4.77    1.01
  -4  -1   6    5.49    1.02
   4  -1  -5   -0.12    0.44
  -4  -1   5    1.32    0.56
   4   1  -4    0.08    0.37
  -4  -1   4    0.79    0.40
   4  -1  -4    0.28    0.43
   4   1  -3    2.62    0.52
  -4  -1   3    2.83    0.48
   4  -1  -3    2.72    0.49
   4  -1  -3    3.33    0.56
   4   1  -2   11.95    0.81
   4  -1  -2   11.06    0.71
  -4  -1   2   11.77    0.67
   4  -1  -2   11.21    0.87
   4   1  -1  272.39    9.59
   4  -1  -1  274.97    9.40
   4   1   0   35.74    1.39
   4  -1   0   36.27    1.48
   4  -1   0   37.07    1.61
   4   1   1  407.19   13.89
   4   1   1  401.63   13.93
   4  -1   1  403.79   13.91
   4  -1   1  394.37   13.88
   4   1   2   20.83    1.24
   4  -1   2   18.56    1.21
   4  -1   2   19.11    1.13
   4   1   3  129.60    5.22
   4   1   3  128.50    5.10
   4  -1   3  131.57    5.25
   4  -1   3  133.11    5.04
   4   1   4   10.81    1.20
  -4   1  -4    9.53    0.64
   4   1   4    8.61    1.00
   4  -1   4    8.82    0.98
   4   1   5   -0.13    0.21
   4  -1   5   -0.22    0.25
   4   1   6    1.12    0.73
   4  -1   6    2.26    0.91
   4   1   7    1.20    0.80
   4  -1   7    0.16    0.70
   4   1   8    0.99    0.88
   4  -1   8    0.49    0.81
   4   1   9   -0.49    0.72
   4  -1   9    0.43    0.96
   4  -2  -9    0.60    0.97
   4  -2  -8    5.20    1.23
  -4  -2   8    3.65    1.08
   4   2  -7    5.42    1.04
   4   2  -7    5.91    1.05
  -4  -2   7    5.38    1.14
   4  -2  -7    3.48    0.98
   4   2  -6    9.98    1.28
   4  -2  -6   10.63    1.37
   4   2  -5    6.50    0.91
  -4  -2   5    9.19    1.11
   4  -2  -5    6.80    1.01
   4   2  -4   43.31    2.16
  -4  -2   4   44.53    2.18
   4  -2  -4   45.34    2.24
   4   2  -3   16.70    1.07
  -4  -2   3   15.46    0.97
   4  -2  -3   16.76    1.07
   4   2  -2   25.73    1.35
   4  -2  -2   27.25    1.31
   4  -2  -2   27.10    1.41
  -4  -2   2   28.03    1.19
   4   2  -1    5.63    0.57
   4  -2  -1    4.01    0.43
   4   2   0   40.99    1.56
   4   2   0   40.32    1.77
   4  -2   0   40.06    1.70
   4  -2   0   43.52    1.78
   4   2   1    2.42    0.42
   4  -2   1    3.44    0.50
   4  -2   1    3.23    0.49
   4   2   2  379.44   12.98
   4  -2   2  350.39   12.76
   4  -2   2  371.68   12.98
   4   2   3   51.05    2.44
   4   2   3   51.70    2.54
  -4   2  -3   52.70    2.05
   4  -2   3   49.84    2.49
  -4   2  -4   87.27    3.29
   4   2   4   85.53    3.79
   4   2   4   84.11    3.92
   4  -2   4   87.29    3.65
   4   2   5   -0.19    0.22
   4  -2   5   -0.01    0.31
   4   2   6    9.38    1.49
   4  -2   6   12.30    1.64
   4   2   7    0.79    0.85
   4  -2   7    1.19    0.85
   4   2   8    3.64    1.26
   4  -2   8    5.13    1.49
   4   2   9   -0.50    0.88
  -4  -2  -9    0.97    1.13
   4  -2   9    0.95    1.00
   4  -3  -9    6.44    1.56
   4  -3  -8    2.01    0.92
  -4  -3   8    1.30    0.88
   4   3  -7    0.65    0.64
   4   3  -7    0.35    0.54
   4  -3  -7   -0.42    0.67
  -4  -3   7    0.13    0.55
   4   3  -6   -0.13    0.46
   4   3  -6    1.30    0.60
   4  -3  -6    0.33    0.64
  -4  -3   6    0.92    0.63
   4   3  -5    1.10    0.48
  -4  -3   5    0.67    0.47
   4  -3  -5    0.16    0.51
   4   3  -4    0.21    0.35
  -4  -3   4    0.24    0.35
   4  -3  -4    0.17    0.39
   4   3  -3   17.23    1.04
   4  -3  -3   17.54    1.13
  -4  -3   3   14.85    0.97
   4   3  -2   91.40    3.47
  -4  -3   2   89.41    3.31
   4  -3  -2   89.57    3.49
   4   3  -1   24.19    1.19
   4  -3  -1   23.17    1.19
   4  -3  -1   23.19    1.13
  -4  -3   1   21.61    0.88
   4   3   0   34.29    1.50
   4   3   0   34.02    1.58
   4  -3   0   36.67    1.59
   4  -3   0   33.49    1.56
  -4  -3   0   35.83    1.40
   4   3   1  263.87    8.99
   4  -3   1  246.20    8.90
   4  -3   1  254.57    9.07
  -4   3  -2   12.04    0.75
   4   3   2   12.11    1.05
   4   3   2   12.41    0.94
   4  -3   2   11.01    0.77
   4  -3   2   11.98    0.94
   4   3   3  224.43    8.40
   4   3   3  232.51    8.54
  -4   3  -3  224.14    7.99
   4   3   4    2.89    0.71
   4   3   4    2.38    0.63
  -4   3  -4    3.76    0.52
   4  -3   4    2.96    0.59
   4  -3   4    1.00    0.41
   4   3   6    0.18    0.59
   4  -3   6   -0.32    0.55
   4   3   7   21.89    2.42
   4  -3   7   26.63    2.65
   4   3   8   -0.14    0.75
   4  -3   8   -0.22    0.77
  -4  -3  -8   -0.16    0.76
  -4  -3  -9   -0.34    1.13
   4  -3   9    0.67    1.14
   4  -4  -9    1.27    0.91
  -4  -4   8   30.16    2.89
   4  -4  -8   36.92    2.72
   4   4  -7   10.42    1.49
   4  -4  -7    9.99    1.50
  -4  -4   7    7.89    1.39
   4   4  -6    8.71    1.14
   4   4  -6    6.87    1.11
   4  -4  -6   12.64    1.53
  -4  -4   6   10.42    1.29
   4   4  -5    6.99    0.91
   4   4  -5    5.94    1.00
  -4  -4   5    5.68    0.90
   4  -4  -5    5.99    0.99
   4   4  -4   13.04    1.00
   4   4  -4   13.28    1.31
  -4  -4   4   13.53    1.04
   4  -4  -4   11.20    1.16
   4   4  -3    3.51    0.53
   4   4  -3    3.52    0.64
   4  -4  -3    3.20    0.59
  -4  -4   3    3.16    0.50
   4   4  -2   22.76    1.16
   4  -4  -2   20.10    1.19
  -4  -4   2   22.97    1.06
   4   4  -1    8.50    0.78
   4   4  -1    8.25    0.72
  -4  -4   1    8.26    0.49
   4  -4  -1    9.66    0.82
   4  -4  -1    8.24    0.73
   4   4   0  191.32    7.01
   4   4   0  199.69    7.10
   4  -4   0  200.51    7.04
  -4  -4   0  199.92    6.92
   4  -4   0  198.75    7.11
   4   4   1   59.58    2.48
   4  -4   1   59.28    2.30
   4  -4   1   53.59    2.46
  -4  -4  -1   56.19    2.37
   4   4   2  168.56    6.37
  -4   4  -2  168.44    6.13
   4  -4   2  166.75    6.42
   4  -4   2  175.12    6.13
   4   4   3    0.08    0.37
  -4   4  -3    0.58    0.31
   4   4   3    0.25    0.39
   4  -4   3    0.45    0.30
   4  -4   3   -0.16    0.12
  -4   4  -4   11.68    0.91
   4   4   4   14.03    1.43
   4   4   4   14.38    1.48
   4  -4   4   14.32    1.47
   4  -4   4   13.38    1.03
   4   4   5    0.41    0.36
   4  -4   5    0.61    0.60
   4   4   6    1.05    0.67
   4  -4   6    1.51    0.76
   4   4   7    2.20    0.95
  -4  -4  -7    1.76    0.87
   4  -4   7    1.68    0.91
  -4  -4  -8    2.74    1.13
   4  -4   8    1.05    0.93
   4  -4   9    4.06    1.46
   4  -5  -9    7.75    1.61
   4  -5  -8   -0.27    0.72
   4   5  -7    1.00    0.70
   4  -5  -7    1.96    0.89
  -4  -5   7    0.60    0.62
   4   5  -6   13.01    1.56
   4   5  -6   11.19    1.27
   4  -5  -6   12.67    1.57
  -4  -5   6   13.79    1.52
   4   5  -5    2.38    0.60
   4   5  -5    1.05    0.60
   4  -5  -5    1.44    0.62
  -4  -5   5    1.18    0.52
   4   5  -4   29.35    1.81
   4   5  -4   30.76    1.60
  -4  -5   4   29.47    1.68
   4  -5  -4   28.61    1.77
   4   5  -3   41.72    1.92
   4   5  -3   43.18    2.19
   4  -5  -3   43.29    2.14
  -4  -5   3   43.33    1.96
   4   5  -2  104.88    3.90
   4  -5  -2  102.32    4.05
  -4  -5   2  102.50    3.83
   4   5  -1    1.23    0.34
   4   5  -1    0.63    0.31
   4  -5  -1    0.83    0.34
  -4  -5   1    1.21    0.26
   4  -5  -1    1.03    0.34
   4   5   0   25.50    1.28
   4   5   0   25.12    1.25
   4  -5   0   23.00    1.32
   4  -5   0   24.82    1.22
  -4  -5   0   25.36    1.18
   4   5   1   48.62    1.98
   4   5   1   48.96    2.21
   4  -5   1   49.62    2.25
   4  -5   1   50.13    2.03
  -4  -5  -1   47.53    2.12
  -4   5  -2    5.70    0.67
   4  -5   2    5.42    0.76
   4  -5   2    5.54    0.55
  -4  -5  -2    6.25    0.79
   4   5   3  120.35    4.90
  -4   5  -3  122.64    4.58
   4  -5   3  117.80    4.51
  -4  -5  -3  120.14    4.95
  -4   5  -4    0.54    0.40
   4   5   4   -0.17    0.41
   4   5   4    1.15    0.53
  -4  -5  -4    0.21    0.55
   4  -5   4    0.35    0.34
   4  -5   4   -0.32    0.41
   4   5   5   -0.05    0.26
   4  -5   5    0.53    0.59
  -4  -5  -5    0.86    0.46
   4   5   6    1.77    0.78
   4  -5   6    0.95    0.75
  -4  -5  -6    0.46    0.59
   4  -5   7    0.02    0.78
  -4  -5  -7   -0.13    0.66
  -4  -5  -8    1.23    0.96
   4  -5   8    2.03    1.10
   4  -5   9    1.23    1.21
   4  -6  -9    0.49    0.94
   4  -6  -8    0.27    0.75
   4   6  -7    6.55    1.26
  -4  -6   7    7.27    1.31
   4  -6  -7    7.82    1.43
   4   6  -6   19.84    1.92
  -4  -6   6   22.93    1.77
   4  -6  -6   27.11    2.07
   4   6  -5    8.72    1.19
   4   6  -5    8.98    0.97
   4  -6  -5    7.99    1.20
  -4  -6   5    6.68    1.01
   4   6  -4    5.11    0.89
   4   6  -4    5.32    0.69
  -4  -6   4    5.87    0.80
   4  -6  -4    6.22    0.93
   4   6  -3   14.23    0.91
   4   6  -3   14.06    1.28
   4  -6  -3   14.13    1.25
  -4  -6   3   13.76    0.95
   4   6  -2    0.25    0.26
   4   6  -2   -0.07    0.10
   4  -6  -2   -0.07    0.26
  -4  -6   2    0.23    0.22
   4   6  -1    9.86    0.71
   4  -6  -1   10.28    0.92
   4  -6  -1    7.17    0.75
  -4  -6   1    9.79    0.66
   4   6   0    6.39    0.68
   4   6   0    6.71    0.67
  -4  -6   0    8.25    0.69
   4  -6   0    7.10    0.67
   4  -6   0    7.47    0.80
   4   6   1    4.95    0.66
   4   6   1    5.32    0.56
   4  -6   1    6.22    0.58
  -4  -6  -1    6.47    0.71
   4  -6   1    5.74    0.75
  -4   6  -2  219.03    8.07
   4   6   2  223.07    8.25
   4  -6   2  231.10    7.86
  -4  -6  -2  218.01    8.21
   4  -6   2  222.77    8.34
  -4   6  -3    2.19    0.52
  -4  -6  -3    1.72    0.65
   4  -6   3    1.85    0.39
  -4   6  -4   21.91    1.42
  -4  -6  -4   24.10    1.77
   4  -6   4   22.86    1.72
   4  -6   5    8.25    1.31
  -4  -6  -5    8.33    1.34
   4  -6   6    0.33    0.63
  -4  -6  -6   -0.85    0.45
   4  -6   7    2.12    0.95
  -4  -6  -7    2.44    1.03
   4  -6   8    5.91    1.45
  -4  -6  -8    4.94    1.42
   4  -7  -9    7.82    1.61
   4  -7  -8    0.44    0.91
   4   7  -7   14.15    1.78
  -4  -7   7   15.10    1.81
   4  -7  -7   14.93    1.89
   4   7  -6   20.09    1.95
   4  -7  -6   20.07    2.02
  -4  -7   6   21.52    1.95
   4   7  -5   24.26    1.77
   4  -7  -5   23.36    2.04
  -4  -7   5   20.04    1.53
   4   7  -4   29.83    1.90
   4   7  -4   28.86    1.52
   4  -7  -4   29.44    1.89
  -4  -7   4   30.58    1.73
   4   7  -3   14.27    0.91
   4   7  -3   13.88    1.30
   4  -7  -3   15.20    1.35
   4   7  -2  139.18    5.15
   4  -7  -2  138.58    5.47
  -4  -7   2  145.29    5.25
   4   7  -1   16.56    0.97
   4   7  -1   17.16    1.14
   4  -7  -1   17.47    1.20
  -4  -7   1   18.28    1.01
   4   7   0   13.09    0.90
   4   7   0   11.21    0.85
   4  -7   0   12.94    0.84
   4  -7   0   14.45    1.03
  -4  -7   0   14.63    0.94
   4   7   1    5.77    0.71
   4   7   1    5.25    0.61
   4  -7   1    5.74    0.56
   4  -7   1    6.93    0.83
  -4   7  -2   59.74    2.61
   4   7   2   61.18    2.73
   4  -7   2   55.92    2.26
  -4  -7  -2   55.18    2.66
  -4   7  -3   16.84    1.20
   4  -7   3   14.23    1.43
   4  -7   3   20.06    1.01
  -4  -7  -3   16.97    1.54
  -4   7  -4    4.73    0.77
   4  -7   4    4.03    0.87
  -4  -7  -4    3.56    0.83
  -4  -7  -5    2.64    0.91
   4  -7   5    0.98    0.73
  -4  -7  -6    1.62    0.83
   4  -7   6    1.33    0.80
  -4  -7  -7    0.10    0.72
   4  -7   7   -0.13    0.72
   4  -7   8   -0.20    0.81
  -4  -7  -8    0.65    1.04
   4  -8  -9   -0.75    0.80
   4  -8  -8   17.34    2.23
   4   8  -7    5.73    1.25
   4  -8  -7    4.06    1.16
  -4  -8   7    6.44    1.28
   4   8  -6   -0.24    0.55
  -4  -8   6    0.17    0.47
   4  -8  -6   -0.39    0.58
   4   8  -5    1.91    0.79
  -4  -8   5    0.86    0.51
   4  -8  -5    2.08    0.86
   4   8  -4   30.39    1.93
   4   8  -4   28.87    1.46
  -4  -8   4   27.19    1.69
   4  -8  -4   27.13    1.86
   4   8  -3    9.83    0.82
   4   8  -3   10.49    1.17
   4  -8  -3    9.55    1.10
  -4  -8   3    9.87    0.97
   4   8  -2   13.21    0.83
   4  -8  -2   12.59    1.18
  -4  -8   2   14.30    0.97
   4   8  -1    1.15    0.45
   4   8  -1    1.90    0.39
  -4  -8   1    1.80    0.42
   4  -8  -1    0.10    0.27
   4  -8  -1    2.40    0.57
   4   8   0  328.84   11.37
   4  -8   0  310.21   11.57
   4  -8   0  326.07   11.27
   4   8   1   10.83    1.01
   4   8   1   12.31    0.88
  -4  -8  -1   10.04    0.99
   4  -8   1   12.31    1.17
   4  -8   1   11.03    0.73
  -4   8  -2    9.52    1.02
   4   8   2   10.27    1.06
   4  -8   2   10.76    0.66
  -4  -8  -2   12.40    1.17
   4   8   3    0.41    0.46
  -4   8  -3    0.25    0.42
  -4  -8  -3    0.12    0.42
   4  -8   3   -0.23    0.31
   4  -8   3   -0.07    0.22
  -4   8  -4   20.89    1.44
  -4  -8  -4   17.86    1.78
   4  -8   4   18.21    1.78
  -4   8  -5   29.58    1.82
   4  -8   5   29.63    2.25
  -4  -8  -5   23.67    2.25
  -4  -8  -6    1.55    0.82
   4  -8   6    0.24    0.68
   4  -8   7   -0.86    0.55
  -4  -8  -7   -0.28    0.69
   4  -8   8    0.33    0.79
  -4  -8  -8    0.93    0.88
   4  -9  -9    5.26    1.52
   4   9  -8    5.07    1.83
   4  -9  -8    3.09    1.17
   4   9  -7    5.44    1.26
   4  -9  -7    4.97    1.33
   4   9  -6    1.65    0.90
  -4  -9   6    0.63    0.61
   4  -9  -6    1.37    0.77
   4   9  -5   10.43    1.42
   4  -9  -5   12.63    1.54
  -4  -9   5   15.76    1.54
   4   9  -4    2.78    0.78
  -4  -9   4    2.56    0.65
   4  -9  -4    3.06    0.80
   4   9  -3    0.91    0.52
   4   9  -3    0.25    0.27
   4  -9  -3    0.24    0.39
  -4  -9   3    0.42    0.37
   4   9  -2    4.04    0.66
   4   9  -1   47.65    2.03
   4   9  -1   45.39    2.29
  -4  -9   1   47.08    2.17
   4  -9  -1   46.76    2.17
   4  -9  -1   47.10    2.34
   4   9   0   22.52    1.37
   4   9   0   22.12    1.28
   4  -9   0   22.15    1.48
   4  -9   0   24.84    1.25
   4   9   1   36.19    1.90
   4  -9   1   39.41    1.66
   4  -9   1   36.45    2.06
  -4  -9  -1   39.02    1.97
   4   9   2    7.99    0.97
  -4   9  -2    9.23    1.03
   4  -9   2    9.70    0.65
  -4  -9  -2   10.13    1.12
  -4   9  -3  324.42   11.40
   4   9   3  317.80   11.59
   4  -9   3  300.14   11.66
  -4  -9  -3  307.21   11.60
  -4   9  -4    8.09    1.01
  -4  -9  -4    6.16    1.09
   4  -9   4    7.29    1.20
  -4   9  -5    2.61    0.74
   4  -9   5    2.23    0.81
  -4  -9  -5    1.92    0.89
  -4  -9  -6    0.08    0.65
   4  -9   6    0.82    0.71
   4  -9   7   21.45    2.44
  -4  -9  -7   16.23    2.16
   4  -9   8    3.80    1.35
  -4  -9  -8    3.72    1.36
   4 -10  -9   -0.46    0.97
   4  10  -8   11.59    1.77
   4 -10  -8   12.64    1.98
   4  10  -7   12.89    1.80
   4 -10  -7   16.38    2.04
   4  10  -6    1.96    0.87
  -4 -10   6    1.63    0.72
   4 -10  -6    1.35    0.80
   4  10  -5    0.45    0.62
  -4 -10   5    1.08    0.59
   4 -10  -5   -0.57    0.62
   4  10  -4    4.13    0.95
   4 -10  -4    3.41    0.89
  -4 -10   4    4.65    0.81
   4  10  -3   64.56    3.09
   4  10  -3   58.43    2.49
  -4 -10   3   60.18    2.81
   4 -10  -3   59.72    3.01
   4  10  -2   13.85    0.87
   4  10  -2   12.54    1.27
  -4 -10   2   15.68    1.11
   4 -10  -2   16.37    1.47
   4  10  -1   19.94    1.41
   4  10  -1   22.84    1.19
   4 -10  -1   20.67    1.46
   4 -10  -1   20.87    1.29
   4  10   0  132.99    5.28
   4  10   0  133.14    5.13
  -4 -10   0  134.81    5.25
   4 -10   0  135.20    5.03
   4 -10   0  138.69    5.49
   4  10   1   33.18    1.78
   4  10   1   32.64    1.82
   4 -10   1   35.02    1.54
  -4 -10  -1   34.97    1.89
  -4  10  -2  101.10    4.23
   4  10   2   94.00    4.15
  -4 -10  -2  101.65    4.26
   4  10   3    4.80    0.89
  -4  10  -3    5.24    0.87
  -4 -10  -3    4.36    0.90
   4 -10   3    6.12    1.02
  -4  10  -4    1.23    0.65
  -4 -10  -4    0.21    0.58
   4 -10   4    1.56    0.74
  -4  10  -5   21.76    1.68
  -4 -10  -5   23.83    2.31
   4 -10   5   23.75    2.30
   4 -10   6    9.19    1.59
  -4 -10  -6    9.14    1.57
   4 -10   7    0.93    0.92
  -4 -10  -7    0.34    0.80
  -4 -10  -8    5.27    1.52
   4 -10   8    5.43    1.61
   4  11  -8   -0.79    0.79
   4 -11  -8    0.55    0.95
   4  11  -7   17.13    2.13
   4 -11  -7   20.16    2.38
   4  11  -6    0.00    0.64
   4 -11  -6   -0.24    0.62
  -4 -11   6    0.09    0.54
   4  11  -5    9.94    1.42
   4 -11  -5    6.76    1.29
  -4 -11   5    7.16    1.11
   4  11  -4    4.28    1.02
  -4 -11   4    2.03    0.64
   4 -11  -4    2.99    0.90
   4  11  -3    1.59    0.59
  -4 -11   3    1.56    0.53
   4 -11  -3    1.70    0.71
   4  11  -2    7.17    1.02
   4  11  -2    9.07    0.68
  -4 -11   2    7.39    0.90
   4 -11  -2    8.73    1.12
   4  11  -1   59.71    2.88
   4  11  -1   58.63    2.51
   4 -11  -1   59.30    2.94
   4 -11  -1   61.46    2.69
  -4 -11   1   61.00    2.78
   4  11   0   47.97    2.45
   4  11   0   52.87    2.31
   4 -11   0   51.07    2.20
  -4 -11   0   47.99    2.39
   4 -11   0   48.88    2.59
   4  11   1   47.68    2.29
   4  11   1   45.69    2.26
   4 -11   1   45.74    1.95
  -4 -11  -1   45.45    2.34
  -4  11  -2    0.00    0.46
   4  11   2   -0.07    0.34
  -4 -11  -2    0.47    0.53
   4 -11   2   -0.22    0.32
  -4  11  -3   70.16    3.26
  -4 -11  -3   64.12    3.35
   4 -11   3   65.97    3.45
  -4  11  -4   18.67    1.73
   4 -11   4   19.90    2.01
  -4 -11  -4   20.71    2.03
  -4  11  -5    4.36    0.97
  -4 -11  -5    5.10    1.18
   4 -11   5    4.74    1.12
  -4 -11  -6    2.89    1.03
   4 -11   6    5.81    1.39
   4 -11   7   -0.23    0.83
  -4 -11  -7    0.73    0.81
   4 -11   8   -0.76    0.94
  -4 -11  -8    0.77    0.90
   4  12  -8   -0.12    0.92
   4 -12  -8    0.10    1.02
   4  12  -7   -0.73    0.68
   4 -12  -7   -0.08    0.71
   4  12  -6    4.22    1.11
   4 -12  -6    8.76    1.55
  -4 -12   6    6.43    1.26
   4  12  -5    9.57    1.46
  -4 -12   5    6.55    1.07
   4 -12  -5   10.77    1.55
   4  12  -4   11.89    1.53
   4 -12  -4    9.85    1.37
  -4 -12   4   12.54    1.35
   4 -12  -3   10.02    1.34
  -4 -12   3   11.11    1.21
   4  12  -2    1.51    0.61
   4  12  -2    2.20    0.44
  -4 -12   2    3.70    0.70
   4 -12  -2    2.19    0.71
   4  12  -1   10.68    1.20
   4  12  -1   11.41    0.94
   4 -12  -1   12.69    1.14
   4 -12  -1   10.45    1.25
  -4 -12   1   11.00    1.16
   4  12   0    1.82    0.46
   4  12   0    0.64    0.58
   4 -12   0    2.50    0.69
  -4 -12   0    2.27    0.61
   4  12   1    3.43    0.67
   4  12   1    2.65    0.64
   4 -12   1    2.91    0.46
  -4 -12  -1    4.02    0.76
  -4  12  -2  171.75    6.79
   4  12   2  174.33    6.73
  -4 -12  -2  165.75    6.77
   4 -12   2  166.06    6.93
  -4  12  -3    8.75    1.18
   4 -12   3   10.16    1.38
  -4 -12  -3    7.56    1.23
  -4  12  -4   26.58    1.91
   4 -12   4   28.79    2.18
  -4 -12  -4   29.49    2.19
  -4  12  -5    0.42    0.60
  -4 -12  -5    1.03    0.85
   4 -12   5    1.58    0.84
   4 -12   6    9.05    1.60
  -4 -12  -6    9.13    1.65
  -4 -12  -7    0.44    0.73
   4 -12   7   -0.08    0.83
  -4 -12  -8    0.38    0.98
   4 -12   8   -0.44    0.91
   4  13  -8    3.37    1.24
   4 -13  -8    0.25    1.09
   4  13  -7    7.79    1.61
   4 -13  -7    6.20    1.50
   4  13  -6   13.44    1.85
   4 -13  -6   16.71    2.10
   4  13  -5   -0.19    0.62
  -4 -13   5   -0.12    0.48
   4 -13  -5    0.03    0.63
   4  13  -4    1.15    0.75
  -4 -13   4    0.61    0.56
   4 -13  -4    0.66    0.65
  -4 -13   3   16.19    1.49
   4 -13  -3   15.29    1.65
   4  13  -2    4.04    0.84
   4 -13  -2    3.33    0.84
  -4 -13   2    3.47    0.74
   4  13  -1   46.20    2.09
   4  13  -1   49.04    2.57
  -4 -13   1   41.78    2.38
   4 -13  -1   46.53    2.61
   4 -13  -1   47.58    2.28
   4  13   0    1.03    0.57
   4  13   0    0.30    0.37
   4 -13   0    1.31    0.57
   4 -13   0   -0.01    0.27
  -4 -13   0   -0.18    0.43
   4  13   1   68.68    3.15
   4  13   1   69.96    3.25
   4  13   2   16.33    1.56
  -4  13  -2   19.24    1.74
   4 -13   2   13.81    1.58
  -4 -13  -2   18.27    1.74
  -4  13  -3    0.91    0.66
   4 -13   3    0.94    0.64
  -4 -13  -3    0.25    0.60
  -4  13  -4   15.63    1.71
   4 -13   4   16.34    1.89
  -4 -13  -4   15.35    1.81
  -4  13  -5    1.84    0.84
   4 -13   5    3.77    1.09
  -4 -13  -5    2.60    1.01
   4 -13   6    1.34    0.92
  -4 -13  -6    1.32    0.87
  -4 -13  -7    2.01    1.18
   4 -13   7    3.24    1.26
   4 -13   8    1.32    1.06
   4  14  -8   12.81    1.96
   4 -14  -8   11.42    2.15
   4  14  -7    3.20    1.17
   4 -14  -7    2.92    1.21
   4  14  -6    0.21    0.80
   4 -14  -6    1.78    0.99
   4  14  -5    4.78    1.15
  -4 -14   5    3.61    0.87
   4 -14  -5    5.50    1.24
   4  14  -4    2.36    0.90
  -4 -14   4    3.80    0.84
   4 -14  -4    2.62    0.90
  -4 -14   3   12.78    1.38
   4 -14  -3   12.06    1.55
   4  14  -2    1.62    0.65
  -4 -14   2    3.14    0.72
   4 -14  -2    2.98    0.85
   4  14  -1   -0.19    0.27
   4  14  -1   -0.40    0.51
   4 -14  -1   -0.17    0.36
  -4 -14   1   -0.23    0.35
   4 -14  -1    0.09    0.38
   4  14   0   78.28    3.77
   4  14   0   83.20    3.48
   4 -14   0   78.70    3.38
  -4 -14   0   90.32    3.84
   4  14   1    2.30    0.63
   4  14   1    3.98    0.86
  -4 -14  -1    2.03    0.70
  -4  14  -2   21.68    2.01
  -4 -14  -2   24.38    1.79
   4 -14   2   24.84    2.22
  -4  14  -3    1.72    0.85
   4 -14   3    0.88    0.69
  -4 -14  -3    1.26    0.73
  -4  14  -4    1.97    0.88
  -4 -14  -4    3.51    1.06
   4 -14   4    2.13    0.84
  -4  14  -5    7.47    1.29
  -4 -14  -5   11.92    1.81
   4 -14   5   10.21    1.64
   4 -14   6    3.75    1.22
  -4 -14  -6    4.01    1.26
   4 -14   7    0.31    0.85
  -4 -14  -7    0.89    1.12
   4  15  -8   -0.56    0.85
   4 -15  -8    0.22    1.10
   4  15  -7    1.93    1.16
   4 -15  -7    0.12    0.95
   4  15  -6    9.15    1.56
   4 -15  -6   10.21    1.80
   4  15  -5   -0.26    0.71
   4 -15  -5   -0.28    0.58
  -4 -15   5    0.51    0.65
   4  15  -4   -0.09    0.60
  -4 -15   4   -0.17    0.48
   4 -15  -4    0.25    0.68
   4  15  -3    4.17    1.03
  -4 -15   3    4.81    0.88
   4 -15  -3    2.14    0.82
   4  15  -2    0.85    0.71
   4 -15  -2    0.57    0.67
  -4 -15   2    1.13    0.62
   4  15  -1    0.97    0.66
   4 -15  -1    0.54    0.47
  -4 -15   1    0.75    0.56
   4 -15  -1    0.06    0.29
   4  15   0    3.17    0.63
   4  15   0    2.55    0.80
  -4 -15   0    2.33    0.72
   4 -15   0    3.41    0.72
   4  15   1    4.51    0.91
  -4 -15  -1    5.46    1.04
   4 -15   2    4.76    1.04
  -4 -15  -2    3.87    1.00
  -4  15  -3  105.17    4.90
   4 -15   3  106.12    5.07
  -4 -15  -3  101.76    4.92
  -4  15  -4    2.93    0.94
   4 -15   4    1.16    0.75
  -4 -15  -4    0.69    0.81
  -4  15  -5    5.23    1.18
   4 -15   5    4.36    1.20
  -4 -15  -5    4.73    1.23
   4 -15   6    0.66    0.78
  -4 -15  -6   -0.47    0.77
  -4 -15  -7   10.88    1.99
   4 -15   7   13.02    2.18
   4  16  -8    1.01    1.18
   4  16  -7   -0.22    0.93
   4 -16  -7    1.45    1.14
   4  16  -6   -0.50    0.90
   4 -16  -6    1.73    0.91
   4  16  -5   21.62    2.34
   4 -16  -5   25.14    2.55
   4  16  -4   35.34    2.56
   4 -16  -4   38.80    2.68
  -4 -16   4   35.34    2.37
   4  16  -3   26.63    2.08
  -4 -16   3   23.86    1.87
   4 -16  -3   29.22    2.55
   4  16  -2    0.24    0.71
  -4 -16   2    0.12    0.49
   4 -16  -2    0.11    0.58
   4  16  -1    4.18    1.01
  -4 -16   1    4.89    0.97
   4 -16  -1    4.22    0.76
   4  16   0   16.25    1.68
  -4 -16   0   13.12    1.50
   4  16   1   22.03    1.97
  -4 -16  -1   21.21    1.98
   4 -16   1   25.91    2.31
  -4 -16  -2   45.34    2.84
   4 -16   2   49.34    2.97
  -4  16  -3   12.07    1.71
   4 -16   3   15.34    1.87
  -4 -16  -3   14.82    1.78
  -4  16  -4    1.10    0.80
  -4 -16  -4    2.23    0.99
   4 -16   4    3.95    1.10
  -4  16  -5   10.03    1.60
  -4 -16  -5    8.47    1.61
   4 -16   5    9.86    1.70
   4 -16   6   -1.67    0.58
  -4 -16  -6   -0.49    0.72
  -4 -16  -7    0.06    0.93
   4 -16   7   -0.65    0.74
   4  17  -7    6.32    1.61
   4 -17  -7    5.82    1.64
   4  17  -6    2.74    1.21
   4 -17  -6    1.44    1.01
   4  17  -5    1.11    0.88
   4 -17  -5    0.61    0.75
   4  17  -4    2.11    0.94
   4 -17  -4    3.61    1.07
  -4 -17   4    2.45    0.81
   4  17  -3   10.44    1.52
  -4 -17   3   10.08    1.37
   4 -17  -3   13.17    1.70
   4  17  -2    0.55    0.75
   4 -17  -2    1.07    0.74
  -4 -17   2    0.70    0.55
   4  17  -1   32.05    2.31
   4 -17  -1   32.52    1.93
  -4 -17   1   35.32    2.26
   4 -17  -1   33.64    2.41
   4  17   0    2.27    0.83
  -4 -17   0    1.18    0.69
   4 -17   0    3.46    0.99
   4  17   1   57.90    3.25
   4 -17   1   58.81    3.40
  -4 -17  -1   64.86    3.35
  -4 -17  -2    7.36    1.28
   4 -17   2    9.23    1.50
  -4  17  -3   10.29    1.58
  -4 -17  -3    8.22    1.39
   4 -17   3    9.40    1.50
  -4  17  -4    3.96    1.16
  -4 -17  -4    4.42    1.26
   4 -17   4    4.24    1.21
  -4  17  -5   -0.13    0.75
  -4 -17  -5    1.32    0.91
   4 -17   5   -0.47    0.65
  -4 -17  -6    3.16    1.30
   4 -17   6    4.78    1.52
  -4 -17  -7   -0.72    1.41
   4 -17   7   -0.54    0.74
   4  18  -7   10.40    1.94
   4 -18  -7   10.47    2.11
   4  18  -6    0.73    1.13
   4 -18  -6    0.77    1.14
   4  18  -5    2.97    1.15
   4 -18  -5    1.84    0.95
   4  18  -4    1.67    0.93
   4 -18  -4    2.06    0.97
  -4 -18   4    1.79    0.77
   4  18  -3    0.32    0.66
  -4 -18   3    0.80    0.66
   4 -18  -3    0.09    0.67
   4  18  -2   16.87    1.93
  -4 -18   2   17.45    1.83
   4 -18  -2   16.74    1.95
   4  18  -1    9.24    1.41
   4 -18  -1   10.68    1.52
  -4 -18   1    6.85    1.21
   4  18   0    0.92    0.84
   4 -18   0    0.46    0.62
  -4 -18   0    0.53    0.65
   4  18   1    0.91    0.68
  -4 -18  -1    1.11    0.73
   4 -18   1   -0.14    0.56
   4 -18   2   39.97    2.84
  -4 -18  -2   48.76    2.91
  -4  18  -3   -0.11    0.79
   4 -18   3   -0.11    0.63
  -4 -18  -3    0.00    0.71
  -4  18  -4   30.91    2.80
  -4 -18  -4   30.18    2.76
   4 -18   4   30.17    2.88
  -4  18  -5    3.90    1.28
  -4 -18  -5    3.61    1.35
   4 -18   5    3.62    1.17
   4 -18   6    6.63    1.57
  -4 -18  -6    5.51    1.52
   4 -18   7    0.41    1.52
   4  19  -7    3.51    1.44
   4  19  -6    4.71    1.48
   4 -19  -6    4.81    1.46
   4  19  -5    3.16    1.25
   4 -19  -5    3.89    1.28
   4  19  -4    0.50    0.81
   4 -19  -4   -0.38    0.82
  -4 -19   4   -0.22    0.90
   4  19  -3    2.89    1.11
  -4 -19   3    1.84    0.81
   4 -19  -3    3.23    1.12
   4  19  -2   37.92    2.68
  -4 -19   2   33.27    2.46
   4 -19  -2   40.92    2.76
   4  19  -1   35.27    2.57
  -4 -19   1   34.18    2.40
   4 -19  -1   36.91    2.63
   4  19   0    2.42    0.91
  -4 -19   0    1.75    0.88
   4 -19   0    0.51    0.69
   4  19   1   41.78    2.78
  -4 -19  -1   41.61    2.84
   4 -19   1   49.66    3.07
  -4 -19  -2   19.89    2.20
   4 -19   2   24.18    2.48
   4 -19   3    5.97    1.41
  -4 -19  -3    6.45    1.34
  -4  19  -4    3.29    1.08
  -4 -19  -4    0.87    0.82
   4 -19   4    2.05    1.06
  -4  19  -5    1.70    1.10
   4 -19   5    1.03    0.85
  -4 -19  -5    0.26    0.87
   4 -19   6    2.76    1.18
  -4 -19  -6    1.45    1.13
   4  20  -7    1.79    1.21
   4  20  -6    0.66    1.15
   4 -20  -6    2.41    1.20
   4  20  -5   -0.70    0.97
   4 -20  -5    0.80    0.96
   4  20  -4    8.95    1.66
   4 -20  -4    9.00    1.67
   4  20  -3    2.05    0.97
   4 -20  -3    1.61    0.90
  -4 -20   3    2.92    0.97
   4  20  -2    0.78    0.82
  -4 -20   2    0.83    0.74
   4 -20  -2    0.42    0.79
   4  20  -1    0.88    0.87
   4 -20  -1    1.14    0.81
  -4 -20   1    1.80    0.85
   4  20   0   27.90    2.54
   4 -20   0   27.42    2.61
  -4 -20   0   30.67    2.38
   4  20   1    8.76    1.47
   4 -20   1    9.91    1.62
  -4 -20  -1    8.82    1.43
   4 -20   2   29.00    2.78
  -4 -20  -2   23.26    2.40
  -4 -20  -3   -0.67    0.65
   4 -20   3    0.23    0.67
  -4  20  -4    4.97    1.28
   4 -20   4    4.92    1.35
  -4 -20  -4    3.95    1.32
   4 -20   5    6.11    1.51
  -4 -20  -5    4.78    1.35
  -4 -20  -6    0.01    0.93
   4 -20   6    0.38    0.85
   4  21  -6    2.03    1.25
   4 -21  -6    2.96    1.38
   4  21  -5    0.98    1.10
   4 -21  -5   -0.18    1.02
   4  21  -4    0.00    0.83
   4 -21  -4   -0.09    0.82
   4  21  -3    0.79    0.92
   4 -21  -3    0.24    0.75
  -4 -21   3    0.02    0.70
   4  21  -2    9.05    1.63
   4 -21  -2   12.71    1.82
  -4 -21   2   15.04    1.88
   4  21  -1    3.11    1.17
   4 -21  -1    0.93    0.93
  -4 -21   1    1.53    0.90
   4  21   0    3.20    1.09
  -4 -21   0    3.74    1.12
   4 -21   0    3.27    1.12
   4 -21   1   25.82    2.63
  -4 -21  -1   29.11    2.67
   4 -21   2    0.12    0.72
  -4 -21  -2    0.71    0.81
   4 -21   3   44.43    3.23
  -4 -21  -3   39.35    2.97
  -4  21  -4    0.77    1.00
  -4 -21  -4    0.44    0.82
   4 -21   4    1.26    0.98
  -4  21  -5   -0.28    0.96
   4 -21   5    0.81    0.98
  -4 -21  -5    2.40    1.12
  -4  21  -6    1.86    1.87
   4  22  -6    1.51    1.21
   4  22  -5    3.99    1.40
   4 -22  -5    0.55    0.97
   4  22  -4    7.66    1.74
   4 -22  -4   14.99    2.20
   4  22  -3    4.17    1.25
   4 -22  -3    5.03    1.35
   4  22  -2    4.53    1.29
   4 -22  -2    7.11    1.52
  -4 -22   2    3.56    1.12
   4  22  -1    5.19    1.36
  -4 -22   1    5.93    1.28
   4 -22  -1    4.33    1.29
   4  22   0   84.59    4.57
  -4 -22   0   81.99    4.50
   4 -22   0   85.17    4.68
   4 -22   1    4.22    1.24
  -4 -22  -1    7.67    1.43
  -4 -22  -2   11.74    1.86
   4 -22   2    9.32    1.67
  -4 -22  -3    0.84    0.95
   4 -22   3    1.54    1.03
   4 -22   4    3.09    1.31
  -4 -22  -4    3.01    1.24
  -4  22  -5    0.36    1.15
  -4 -22  -5    2.27    1.30
   4 -22   5    1.08    1.01
   4  23  -5   -1.16    1.06
   4 -23  -5    2.46    1.57
   4  23  -4    0.03    0.88
   4 -23  -4    1.25    1.07
   4  23  -3    4.41    1.42
   4 -23  -3    3.57    1.23
   4  23  -2    1.44    1.01
   4 -23  -2   -0.09    0.76
  -4 -23   2   -0.51    0.69
   4  23  -1    6.97    1.50
   4 -23  -1    5.08    1.41
  -4 -23   1    8.91    1.51
   4  23   0   25.45    2.66
  -4 -23   0   25.18    2.64
   4 -23   0   22.04    2.53
   4 -23   1   30.59    3.05
  -4 -23  -1   31.27    2.92
   4 -23   2    0.79    0.93
  -4 -23  -2    1.70    1.01
  -4 -23  -3    7.28    1.63
   4 -23   3    6.62    1.55
   4 -23   4    3.82    1.38
  -4 -23  -4    5.86    1.59
   4 -23   5   -0.89    0.87
   4  24  -5    0.39    1.10
   4  24  -4   -0.06    0.85
   4 -24  -4    0.86    0.93
   4  24  -3   -1.88    0.59
   4 -24  -3   -0.40    0.69
   4  24  -2   -1.26    0.69
  -4 -24   2    0.80    0.80
   4 -24  -2   -0.87    0.73
   4  24  -1   10.12    1.80
   4 -24  -1    9.59    1.78
  -4 -24   1    9.98    1.70
   4  24   0    4.92    1.50
   4 -24   0    6.25    1.53
  -4 -24   0    6.26    1.43
   4 -24   1    2.35    1.10
  -4 -24  -1   -0.20    0.85
   4 -24   2   31.83    3.17
  -4 -24  -2   32.42    3.06
   4 -24   3   -0.41    0.84
  -4 -24  -3    0.32    0.89
  -4 -24  -4    4.23    1.38
   4 -24   4    6.40    1.71
   4  25  -4    0.20    1.01
   4  25  -3    2.09    1.19
   4 -25  -3    4.05    1.41
   4  25  -2    1.99    1.19
   4 -25  -2    2.93    1.23
   4  25  -1   14.27    2.20
   4 -25  -1   13.76    2.12
  -4 -25   1   14.91    2.05
   4 -25   0    0.74    0.93
  -4 -25   0    2.12    1.07
  -4 -25  -1   24.01    2.71
   4 -25   1   17.50    2.44
   4 -25   2    0.16    0.91
  -4 -25  -2   -2.14    0.71
  -4 -25  -3   -0.54    0.78
   4 -25   3    0.70    0.97
   4  26  -4    1.13    1.07
   4  26  -3   -0.66    0.76
   4  26  -2    1.80    1.16
   4 -26  -2    2.00    1.19
   4  26  -1   -0.43    0.87
  -4 -26   1   -0.02    0.80
   4 -26  -1    0.05    0.89
  -4 -26   0    1.40    1.01
   4 -26   0    3.76    1.31
   4 -26   1   17.60    2.56
  -4 -26  -1   16.13    2.39
   4 -26   2    5.71    1.65
  -4 -26  -2    7.01    1.65
  -4 -26  -3    0.02    1.01
   4  27  -3   -0.92    0.96
   4  27  -2    2.41    1.34
   4  27  -1    0.14    1.01
   4 -27  -1    0.59    1.04
  -4 -27   0    1.52    1.18
   4 -27   0    3.46    1.30
   4 -27   1    3.56    1.64
  -4 -27  -2    1.13    1.04
  -4 -28   0   15.01    2.30
  -4 -28  -1    1.28    1.30
   5   0  -8    8.20    1.52
   5   0  -7    0.26    0.49
   5   0  -7   -0.21    0.60
   5   0  -6   19.02    1.81
   5   0  -6   21.56    1.68
   5   0  -5    0.06    0.50
  -5   0   5   -0.03    0.40
   5   0  -5   -0.07    0.41
   5   0  -4  107.87    4.46
   5   0  -3    0.10    0.30
   5   0  -3   -0.23    0.24
   5   0  -2  408.23   13.98
   5   0  -2  409.56   14.30
   5   0  -1   -0.07    0.14
   5   0  -1   -0.33    0.27
   5   0   0  167.20    5.28
   5   0   0  128.48    5.43
   5   0   1    0.30    0.30
   5   0   1   -0.04    0.22
   5   0   3   -0.39    0.27
   5   0   3   -0.14    0.31
   5   0   4    0.03    0.41
   5   0   4    0.49    0.43
   5   0   5    0.00    0.27
   5   0   6    0.55    0.58
   5   0   7    0.09    0.67
   5   0   8    0.41    0.85
   5  -1  -9    2.24    1.13
   5   1  -8    0.83    0.77
   5  -1  -8   -0.32    0.62
   5  -1  -8    1.16    0.82
   5   1  -7   22.54    2.11
  -5  -1   7   27.10    2.35
   5  -1  -7   27.80    2.39
   5  -1  -7   23.05    2.21
   5   1  -6   22.04    1.71
   5  -1  -6   22.02    1.96
  -5  -1   6   22.95    1.72
   5  -1  -6   24.37    1.82
   5   1  -5    1.96    0.66
   5  -1  -5    0.85    0.52
  -5  -1   5    1.35    0.54
   5  -1  -5    2.00    0.66
   5   1  -4   17.84    1.26
  -5  -1   4   15.56    1.12
   5  -1  -4   15.24    1.14
   5  -1  -4   16.09    1.24
   5   1  -3  110.53    4.49
  -5  -1   3  117.75    4.34
   5  -1  -3  112.75    4.36
   5  -1  -3  118.28    4.59
   5   1  -2   10.55    0.59
   5   1  -2   11.38    0.84
   5  -1  -2   10.03    0.67
   5  -1  -2   11.67    1.00
   5   1  -1   32.60    1.58
   5  -1  -1   32.10    1.33
   5   1   0    2.86    0.32
   5  -1   0    3.42    0.52
   5  -1   0    2.96    0.37
   5   1   1    0.95    0.37
   5   1   1    0.49    0.27
   5  -1   1    0.64    0.27
   5  -1   1    0.91    0.36
   5   1   2    9.07    0.93
   5   1   2    9.59    0.94
   5  -1   2   10.18    0.96
   5   1   3    5.43    0.78
   5   1   3    5.61    0.83
   5  -1   3    4.12    0.67
   5  -1   3    5.86    0.83
   5   1   4   -0.06    0.40
   5  -1   4    0.58    0.44
   5  -1   4    0.73    0.48
   5   1   5   -0.10    0.27
   5  -1   5   -0.37    0.24
   5   1   6    7.60    1.32
   5  -1   6    9.46    1.47
   5   1   7    1.85    0.90
   5  -1   7    0.82    0.79
   5   1   8    5.66    1.43
   5  -1   8    1.89    1.03
   5  -2  -9    0.60    0.89
   5  -2  -8    4.03    1.18
   5  -2  -8    0.95    0.83
   5   2  -7    1.53    0.72
   5   2  -7    1.97    0.80
   5  -2  -7    2.29    0.89
  -5  -2   7    2.40    0.84
   5   2  -6    2.31    0.71
  -5  -2   6    3.66    0.84
   5  -2  -6    5.04    0.97
   5   2  -5   60.47    2.96
   5  -2  -5   65.12    3.04
  -5  -2   5   60.23    2.95
   5   2  -4    1.47    0.50
   5  -2  -4    1.80    0.49
  -5  -2   4    2.13    0.48
   5  -2  -4    1.74    0.61
   5   2  -3    1.75    0.49
  -5  -2   3    2.12    0.40
   5  -2  -3    1.42    0.50
   5  -2  -3    1.67    0.43
   5   2  -2  166.97    6.17
   5  -2  -2  167.18    6.03
  -5  -2   2  172.88    5.87
   5  -2  -2  162.71    6.23
   5   2  -1   86.23    3.36
   5  -2  -1   83.56    3.16
   5   2   0   59.23    2.19
   5   2   0   53.68    2.43
   5  -2   0   60.01    2.46
   5  -2   0   61.05    2.35
   5   2   1    3.51    0.50
   5  -2   1    4.16    0.56
   5  -2   1    3.58    0.53
   5   2   2    5.69    0.72
   5   2   2    6.90    0.78
   5  -2   2    5.99    0.73
   5  -2   2    6.17    0.68
   5   2   3    8.61    0.97
   5   2   3    7.34    0.94
   5  -2   3    7.10    0.94
   5  -2   3    8.03    0.86
   5   2   4   45.57    2.39
   5   2   4   44.05    2.49
   5  -2   4   46.82    2.55
   5  -2   4   42.05    2.21
   5   2   5   -0.31    0.27
   5  -2   5    0.27    0.29
   5   2   6   23.66    2.32
   5  -2   6   22.63    2.24
   5   2   7   32.87    2.99
   5  -2   7   26.03    2.74
   5   2   8   15.41    2.21
   5  -2   8   15.61    2.32
   5  -3  -9    0.68    0.93
   5  -3  -8    1.24    0.90
   5   3  -7    1.96    0.82
   5   3  -7    1.94    0.78
  -5  -3   7    1.88    0.80
   5  -3  -7    2.88    0.98
   5   3  -6    1.41    0.67
   5   3  -6    0.94    0.59
  -5  -3   6    0.73    0.57
   5  -3  -6    0.71    0.65
   5   3  -5    2.06    0.61
   5  -3  -5    1.77    0.62
  -5  -3   5    1.95    0.60
   5   3  -4    4.11    0.69
  -5  -3   4    4.61    0.67
   5  -3  -4    4.64    0.75
   5   3  -3    4.86    0.66
   5  -3  -3    5.17    0.76
   5  -3  -3    5.03    0.66
  -5  -3   3    4.87    0.56
   5   3  -2   33.37    1.63
   5  -3  -2   34.43    1.58
  -5  -3   2   33.86    1.37
   5   3  -1  335.32   11.68
   5  -3  -1  335.49   11.56
   5  -3  -1  327.32   11.69
   5   3   0    4.48    0.63
  -5  -3   0    5.50    0.45
   5  -3   0    5.77    0.62
   5  -3   0    5.22    0.63
   5   3   1   41.82    1.90
   5  -3   1   45.78    2.02
   5  -3   1   43.79    1.91
   5   3   2   14.28    1.06
   5   3   2   12.28    0.96
   5  -3   2   11.45    1.06
   5  -3   2   11.24    0.84
   5   3   3   37.93    1.96
  -5   3  -3   34.39    1.53
   5   3   3   33.97    1.97
   5  -3   3   29.64    1.66
   5  -3   3   34.17    1.96
   5   3   4    0.09    0.40
  -5   3  -4    1.04    0.38
   5   3   4    1.04    0.52
   5  -3   4   -0.21    0.29
   5  -3   4    0.89    0.41
   5   3   5   -0.04    0.28
   5  -3   5    0.01    0.30
   5   3   6    3.61    1.03
   5  -3   6    3.95    1.04
   5   3   7    0.62    0.74
   5  -3   7    0.01    0.64
   5   3   8    0.31    0.77
  -5  -3  -8    0.05    0.66
   5  -3   8   -0.66    0.78
   5  -4  -9   -0.24    0.63
   5   4  -8    0.59    1.22
   5  -4  -8    0.13    0.72
   5   4  -7    0.89    0.66
  -5  -4   7    1.01    0.68
   5  -4  -7    1.17    0.74
   5   4  -6    4.40    0.97
   5   4  -6    3.63    0.79
  -5  -4   6    3.17    0.80
   5  -4  -6    4.73    1.00
   5   4  -5    0.11    0.42
   5   4  -5    0.74    0.55
  -5  -4   5    0.92    0.47
   5  -4  -5    0.55    0.50
   5   4  -4   88.42    3.80
   5  -4  -4   95.23    3.97
  -5  -4   4   95.60    3.82
   5   4  -3   33.98    1.73
   5  -4  -3   32.62    1.84
  -5  -4   3   33.84    1.60
   5  -4  -3   38.01    1.83
   5   4  -2   82.18    3.30
   5  -4  -2   82.11    3.42
   5  -4  -2   82.96    3.30
  -5  -4   2   83.88    3.05
   5   4  -1    6.47    0.66
   5   4  -1    3.30    0.53
   5  -4  -1    3.52    0.54
   5  -4  -1    5.94    0.62
  -5  -4   1    5.40    0.34
   5   4   0    1.31    0.35
   5   4   0    1.69    0.44
  -5  -4   0    2.12    0.32
   5  -4   0    1.25    0.41
   5  -4   0    2.92    0.51
   5   4   1   18.86    1.21
   5   4   1   21.84    1.06
  -5  -4  -1   20.39    1.15
   5  -4   1   20.31    1.23
   5  -4   1   22.01    1.15
   5   4   2    5.37    0.72
   5   4   2    4.73    0.70
   5  -4   2    5.81    0.77
   5  -4   2    5.77    0.64
   5   4   3   11.46    1.17
   5   4   3   10.06    1.14
  -5   4  -3   12.60    0.86
   5  -4   3   10.99    1.17
   5   4   4    0.14    0.45
  -5   4  -4    0.53    0.35
   5   4   4   -0.31    0.45
   5  -4   4    0.02    0.35
   5  -4   4    0.13    0.22
   5   4   5   -0.16    0.56
   5  -4   5    0.30    0.37
   5   4   6    2.11    0.82
   5  -4   6    2.07    0.89
   5   4   7    5.51    1.32
   5  -4   7    7.62    1.50
   5  -4   8   -0.12    0.85
  -5  -4  -8    1.16    0.89
   5  -5  -9    3.10    1.24
   5   5  -8    0.73    0.77
   5  -5  -8    0.76    0.81
   5   5  -7   10.56    1.54
   5  -5  -7   10.43    1.55
   5   5  -6    8.85    1.28
   5   5  -6    9.35    1.17
   5  -5  -6   11.82    1.49
  -5  -5   6    8.48    1.23
   5   5  -5    1.47    0.64
   5   5  -5    0.71    0.50
  -5  -5   5    1.61    0.56
   5  -5  -5    0.87    0.65
   5   5  -4   11.37    1.24
   5   5  -4   12.51    1.11
  -5  -5   4   10.15    0.98
   5  -5  -4    8.83    1.09
   5   5  -3   75.02    3.46
   5   5  -3   79.43    3.21
   5  -5  -3   82.87    3.40
  -5  -5   3   78.68    3.14
   5   5  -2    0.29    0.22
   5   5  -2    0.04    0.27
   5  -5  -2   -0.17    0.30
  -5  -5   2    0.49    0.22
   5  -5  -2    0.67    0.36
   5   5   0   -0.17    0.29
   5   5   0    0.09    0.27
   5  -5   0    0.02    0.25
  -5  -5   0    0.31    0.23
   5  -5   0   -0.20    0.23
   5   5   1   79.33    3.28
   5   5   1   78.60    2.99
   5  -5   1   77.37    3.28
  -5  -5  -1   78.41    3.14
   5  -5   1   78.45    3.10
   5  -5   2    5.79    0.61
   5  -5   2    5.43    0.75
  -5  -5  -2    5.44    0.73
  -5   5  -3   -0.19    0.30
   5   5   3    0.20    0.41
   5   5   3    0.10    0.37
   5  -5   3   -0.19    0.19
   5  -5   3   -0.31    0.30
  -5  -5  -3   -0.18    0.41
   5   5   4    4.34    0.88
   5   5   4    3.82    0.81
  -5   5  -4    4.02    0.64
   5  -5   4    5.54    0.74
   5   5   5    7.23    1.27
   5  -5   5    9.30    1.35
   5   5   6   49.98    3.17
   5  -5   6   53.40    3.31
  -5  -5  -7    0.26    0.77
   5  -5   7   -0.07    0.74
  -5  -5  -8    0.31    0.79
   5  -5   8   -0.14    0.77
   5  -6  -9   -0.68    0.95
   5   6  -8    5.27    1.29
   5  -6  -8    3.17    1.17
   5   6  -7    2.76    0.98
   5  -6  -7    0.99    0.80
   5   6  -6    0.79    0.63
  -5  -6   6    1.42    0.64
   5  -6  -6    2.59    0.88
   5   6  -5    1.67    0.73
   5   6  -5    1.64    0.56
   5  -6  -5    2.43    0.71
  -5  -6   5    0.77    0.47
   5   6  -4   75.83    3.14
   5   6  -4   72.59    3.45
  -5  -6   4   72.98    3.16
   5  -6  -4   70.73    3.37
   5   6  -3    0.26    0.30
   5   6  -3    0.05    0.39
  -5  -6   3    0.25    0.26
   5  -6  -3    0.01    0.33
   5   6  -2  169.95    6.71
   5   6  -2  182.17    6.49
   5  -6  -2  173.85    6.66
   5  -6  -2  179.02    6.63
  -5  -6   2  179.48    6.34
   5   6  -1    6.35    0.74
   5   6  -1    5.01    0.62
  -5  -6   1    5.61    0.52
   5  -6  -1    6.20    0.73
   5   6   0  317.53   11.06
   5   6   0  305.89   11.09
   5  -6   0  298.20   11.15
   5  -6   0  318.53   11.02
  -5  -6   0  325.09   10.95
   5   6   1   10.89    0.74
   5   6   1   10.28    0.99
   5  -6   1   10.68    0.76
  -5  -6  -1   10.79    0.82
   5  -6   1   11.16    1.07
   5   6   2   75.82    2.88
   5   6   2   75.03    3.33
  -5  -6  -2   76.87    3.30
   5  -6   2   76.19    3.01
   5  -6   2   76.25    3.39
  -5   6  -3    1.65    0.50
   5   6   3    1.26    0.49
  -5  -6  -3    1.00    0.53
   5  -6   3    2.06    0.43
   5  -6   3    1.56    0.52
  -5   6  -4   35.23    1.85
   5   6   4   34.64    2.18
   5  -6   4   37.00    1.83
  -5  -6  -4   40.20    2.36
   5  -6   5   42.00    2.62
  -5  -6  -5   35.38    2.47
  -5  -6  -6    1.63    0.82
   5  -6   6    3.07    1.01
  -5  -6  -7    5.04    1.27
   5  -6   7    5.47    1.34
  -5  -6  -8    1.94    1.10
   5  -6   8    0.90    0.94
   5  -7  -9    0.64    0.85
   5   7  -8    1.86    0.96
   5  -7  -8    1.60    0.97
   5   7  -7    3.93    1.03
   5  -7  -7    2.50    0.97
   5   7  -6   25.91    2.29
  -5  -7   6   24.66    1.85
   5  -7  -6   26.08    2.32
   5   7  -5    0.12    0.47
   5   7  -5   -0.04    0.54
  -5  -7   5    0.39    0.47
   5  -7  -5    0.62    0.61
   5   7  -4    0.12    0.33
   5   7  -4   -0.49    0.42
   5  -7  -4   -0.17    0.46
  -5  -7   4   -0.29    0.29
   5   7  -3  151.59    5.52
   5   7  -3  147.60    5.92
   5  -7  -3  152.01    5.86
  -5  -7   3  140.72    5.51
   5   7  -2   27.58    1.41
   5   7  -2   27.30    1.62
   5  -7  -2   25.98    1.57
   5  -7  -2   29.48    1.61
  -5  -7   2   26.31    1.32
   5   7  -1   21.57    1.16
   5   7  -1   17.86    1.22
   5  -7  -1   21.26    1.29
  -5  -7   1   20.80    1.07
   5  -7  -1   15.60    1.12
   5   7   0   -0.04    0.23
   5   7   0    0.27    0.31
   5  -7   0   -0.08    0.31
   5  -7   0   -0.11    0.26
  -5  -7   0    0.17    0.25
   5   7   1   99.96    4.13
   5   7   1  101.38    3.91
   5  -7   1  104.91    3.91
   5  -7   1  102.83    4.26
   5   7   2   20.28    1.11
   5   7   2   22.20    1.43
   5  -7   2   21.43    1.13
   5  -7   2   22.04    1.50
  -5  -7  -2   21.52    1.39
  -5   7  -4   20.01    1.36
   5   7   4   18.08    1.72
  -5  -7  -4   22.89    1.74
   5  -7   5    1.27    0.77
  -5  -7  -5    0.38    0.78
  -5  -7  -6    2.34    0.96
   5  -7   6    4.21    1.13
  -5  -7  -7    3.87    1.17
   5  -7   7    6.31    1.49
  -5  -7  -8   -0.21    0.75
   5  -7   8    0.30    0.87
   5  -8  -9   -0.55    0.86
   5   8  -8    0.96    0.92
   5  -8  -8    4.40    1.25
   5   8  -7    1.59    0.87
   5  -8  -7    2.04    0.96
   5   8  -6   25.87    2.29
  -5  -8   6   26.23    1.88
   5  -8  -6   19.94    2.07
   5   8  -5    8.22    1.29
  -5  -8   5   11.22    1.25
   5  -8  -5   10.39    1.38
   5   8  -4   93.38    3.73
   5   8  -4   92.20    4.23
   5  -8  -4   94.61    4.22
  -5  -8   4   91.10    3.89
   5   8  -3   31.91    1.93
   5   8  -3   32.34    1.59
   5  -8  -3   30.71    1.85
   5   8  -2   54.91    2.41
   5   8  -2   57.77    2.75
   5  -8  -2   57.52    2.72
   5  -8  -2   58.51    2.69
  -5  -8   2   58.51    2.45
   5   8  -1  170.18    6.53
   5   8  -1  175.14    6.33
   5  -8  -1  172.19    6.43
   5  -8  -1  168.69    6.55
  -5  -8   1  173.10    6.29
   5   8   0    2.84    0.54
   5   8   0    2.14    0.47
  -5  -8   0    2.30    0.46
   5  -8   0    1.96    0.45
   5  -8   0    3.04    0.60
   5   8   1   19.81    1.14
   5   8   1   18.35    1.25
  -5  -8  -1   19.99    1.25
   5  -8   1   18.46    1.06
   5  -8   1   17.80    1.31
   5   8   2   35.21    1.58
   5   8   2   30.82    1.84
   5  -8   2   30.61    1.47
  -5  -8  -2   29.60    1.79
   5  -8   2   34.39    1.97
  -5   8  -3    8.23    0.96
   5   8   3    9.91    1.19
  -5  -8  -3    7.89    1.09
   5  -8   3   10.05    0.81
  -5   8  -4    2.50    0.67
  -5  -8  -4    3.06    0.85
   5  -8   5    8.47    1.39
  -5  -8  -5    8.74    1.39
  -5  -8  -6    7.65    1.41
   5  -8   6    6.63    1.35
   5  -8   7    2.16    1.04
  -5  -8  -7    1.97    0.93
   5  -8   8    0.54    0.97
  -5  -8  -8   -0.78    0.65
   5  -9  -9    4.89    1.50
   5   9  -8    0.45    0.78
   5  -9  -8    1.12    0.88
   5   9  -7    0.28    0.80
   5  -9  -7    0.34    0.72
   5   9  -6    1.63    0.80
   5  -9  -6    1.52    0.80
   5   9  -5    2.22    0.82
   5  -9  -5    3.29    0.90
  -5  -9   5    3.92    0.82
   5   9  -4   18.81    1.74
   5  -9  -4   15.68    1.61
  -5  -9   4   16.23    1.23
   5   9  -3    0.25    0.31
   5   9  -3    0.09    0.40
  -5  -9   3    0.51    0.32
   5  -9  -3    0.58    0.46
   5   9  -2   23.55    1.60
   5   9  -2   24.84    1.33
   5  -9  -2   27.62    1.60
   5  -9  -2   24.72    1.65
  -5  -9   2   26.43    1.41
   5   9  -1  331.62   11.63
   5   9  -1  329.92   11.90
   5  -9  -1  320.68   11.75
  -5  -9   1  325.84   11.67
   5  -9  -1  341.81   12.00
   5   9   0    7.30    0.84
   5   9   0    8.21    0.89
   5  -9   0    6.81    0.74
   5  -9   0    8.39    1.02
   5   9   1  317.98   11.49
   5  -9   1  321.09   11.69
  -5  -9  -1  314.68   11.45
   5  -9   1  320.21   11.17
   5   9   2    8.22    1.03
   5   9   2    9.45    0.88
  -5  -9  -2    9.84    1.09
   5  -9   2    8.92    0.73
   5  -9   2   10.13    1.21
   5   9   3    9.84    1.20
  -5   9  -3   10.57    1.14
  -5  -9  -3    5.36    0.95
  -5   9  -4    8.93    1.11
  -5  -9  -4    7.36    1.25
   5  -9   5    1.16    0.78
  -5  -9  -5    1.41    0.79
   5  -9   6    2.36    0.95
  -5  -9  -6    1.10    0.94
  -5  -9  -7    4.07    1.29
   5  -9   7    3.92    1.25
   5  -9   8    0.13    0.90
  -5  -9  -8    1.20    1.00
   5 -10  -9    0.38    0.91
   5  10  -8    5.77    1.40
   5 -10  -8    4.24    1.32
   5  10  -7   -0.23    0.62
   5 -10  -7   -0.13    0.77
   5  10  -6    6.30    1.25
   5 -10  -6    8.79    1.44
   5  10  -5    1.44    0.75
  -5 -10   5    2.75    0.71
   5 -10  -5    1.60    0.76
   5  10  -4   30.86    2.03
   5 -10  -4   24.61    1.86
  -5 -10   4   25.49    1.66
   5  10  -3    0.36    0.33
   5  10  -3    0.73    0.35
   5 -10  -3    0.26    0.46
  -5 -10   3    0.35    0.36
   5  10  -2   74.78    3.46
   5  10  -2   75.41    3.03
   5 -10  -2   70.51    3.42
   5 -10  -2   78.10    3.37
   5  10  -1    5.09    0.82
   5  10  -1    6.36    0.71
   5 -10  -1    6.34    0.92
   5 -10  -1    4.79    0.71
   5  10   0    1.85    0.54
   5  10   0    2.63    0.56
   5 -10   0    3.74    0.73
  -5 -10   0    2.87    0.57
   5  10   1    1.83    0.52
   5  10   1    0.65    0.44
   5 -10   1    0.44    0.46
   5 -10   1    1.67    0.39
  -5 -10  -1    0.73    0.42
   5  10   2   48.15    2.43
  -5 -10  -2   42.92    2.39
   5 -10   2   41.33    2.46
   5 -10   2   48.12    1.93
  -5  10  -3   11.42    1.28
   5  10   3   16.23    1.59
  -5 -10  -3   13.06    1.43
  -5  10  -4   14.19    1.47
   5 -10   4   14.16    1.69
  -5 -10  -4   13.18    1.62
   5 -10   5    4.83    1.10
  -5 -10  -5    2.30    0.94
   5 -10   6    1.50    0.85
  -5 -10  -6    1.36    0.91
  -5 -10  -7    2.79    1.12
   5 -10   7    0.92    0.84
  -5 -10  -8    0.30    0.86
   5 -10   8   -0.40    0.80
   5 -11  -9    0.30    1.09
   5  11  -8    0.18    0.80
   5 -11  -8   -0.73    0.85
   5  11  -7    0.17    0.80
   5 -11  -7    1.40    0.91
   5  11  -6    8.88    1.49
   5 -11  -6   10.20    1.64
   5  11  -5    6.93    1.33
  -5 -11   5    9.97    1.24
   5 -11  -5    5.54    1.14
   5  11  -4    1.23    0.78
   5 -11  -4    0.73    0.66
  -5 -11   4    2.82    0.68
  -5 -11   3   59.89    2.80
   5 -11  -3   59.58    3.07
   5  11  -2   29.55    1.92
   5  11  -2   31.26    1.54
   5 -11  -2   30.27    1.79
  -5 -11   2   30.25    1.71
   5 -11  -2   30.85    1.94
   5  11  -1   96.28    4.14
   5  11  -1   95.97    3.79
   5 -11  -1   95.42    4.21
  -5 -11   1   96.78    3.96
   5 -11  -1   91.97    3.90
   5  11   0    0.25    0.32
   5  11   0   -0.10    0.39
   5 -11   0    0.03    0.24
   5 -11   0   -0.17    0.38
  -5 -11   0   -0.34    0.32
   5  11   1   71.60    3.06
   5  11   1   65.02    3.06
  -5 -11  -1   65.31    3.06
   5 -11   1   67.31    3.30
   5 -11   1   67.38    2.74
   5  11   2   44.34    2.42
   5  11   2   47.62    2.24
  -5 -11  -2   42.96    2.41
  -5  11  -3   28.56    1.93
   5  11   3   30.44    2.04
  -5 -11  -3   29.38    2.03
  -5  11  -4    3.85    0.88
  -5 -11  -4    3.36    0.90
   5 -11   4    2.38    0.85
  -5  11  -5   -0.59    0.53
   5 -11   5    0.05    0.57
  -5 -11  -5    0.33    0.72
  -5 -11  -6   19.20    2.33
   5 -11   6   18.70    2.25
  -5 -11  -7    1.20    0.98
   5 -11   7    0.98    0.96
   5 -11   8    0.69    1.06
  -5 -11  -8   -0.23    0.94
   5  12  -8    0.44    1.02
   5 -12  -8    0.24    0.97
   5  12  -7    1.96    1.07
   5 -12  -7    0.43    0.87
   5  12  -6    6.27    1.34
   5 -12  -6    5.99    1.34
   5  12  -5    2.08    0.89
   5 -12  -5    2.88    0.98
  -5 -12   5    2.01    0.75
   5  12  -4    3.91    0.93
   5 -12  -4    3.64    0.92
  -5 -12   4    3.85    0.77
  -5 -12   3   13.61    1.29
   5 -12  -3   14.13    1.54
   5  12  -2   89.15    3.43
   5  12  -2   87.72    3.99
  -5 -12   2   81.72    3.69
   5 -12  -2   85.80    4.00
   5  12  -1    4.92    0.87
   5  12  -1    4.42    0.65
   5 -12  -1    4.09    0.69
   5 -12  -1    5.04    0.92
  -5 -12   1    4.95    0.79
   5  12   0  231.41    8.36
   5  12   0  233.90    8.58
   5 -12   0  223.36    8.74
  -5 -12   0  216.25    8.43
   5  12   1   12.90    1.24
   5  12   1   12.06    1.19
  -5 -12  -1   13.85    1.35
   5 -12   1   13.02    1.44
   5 -12   1   11.92    0.87
   5  12   2   21.40    1.59
   5  12   2   22.39    1.48
  -5 -12  -2   20.86    1.61
  -5  12  -3    2.05    0.82
   5  12   3    1.81    0.70
  -5 -12  -3    1.51    0.69
   5 -12   3    0.13    0.36
  -5  12  -4   23.44    1.96
  -5 -12  -4   19.56    2.05
   5 -12   4   16.22    1.93
  -5  12  -5   -0.18    0.57
   5 -12   5    0.20    0.67
  -5 -12  -5    0.12    0.66
   5 -12   6   -0.37    0.69
  -5 -12  -6    0.03    0.72
  -5 -12  -7    0.51    0.86
   5 -12   7    0.55    0.92
   5 -12   8   15.25    2.45
   5  13  -8   -0.84    0.89
   5 -13  -8   -1.55    0.80
   5  13  -7    5.70    1.46
   5 -13  -7   10.48    1.84
   5  13  -6    0.16    0.82
   5 -13  -6   -0.38    0.78
   5  13  -5    1.44    0.82
   5 -13  -5    2.95    0.93
   5  13  -4    2.79    0.93
   5 -13  -4    1.94    0.80
  -5 -13   4    1.29    0.58
   5 -13  -3    5.28    1.04
  -5 -13   3    5.59    0.88
   5  13  -2    3.55    0.86
  -5 -13   2    2.56    0.65
   5 -13  -2    1.77    0.71
   5  13  -1   91.81    4.07
   5  13  -1   92.20    3.65
   5 -13  -1   89.35    3.78
  -5 -13   1   85.20    3.89
   5 -13  -1   87.27    4.15
   5  13   0    4.27    0.72
   5  13   0    6.31    0.99
   5 -13   0    7.20    1.11
   5 -13   0    8.51    0.88
  -5 -13   0    4.75    0.86
   5  13   1   26.61    1.67
   5  13   1   26.01    1.71
  -5 -13  -1   23.77    1.73
   5  13   2    2.39    0.67
   5  13   2    0.85    0.59
   5 -13   2    0.22    0.27
  -5 -13  -2    0.45    0.59
  -5  13  -3    2.79    0.88
   5 -13   3    3.06    0.86
  -5 -13  -3    3.32    0.90
  -5  13  -4   -0.21    0.66
  -5 -13  -4    0.23    0.77
   5 -13   4    0.42    0.72
  -5  13  -5    0.20    0.68
   5 -13   5   -0.84    0.50
  -5 -13  -5   -0.01    0.68
   5 -13   6    2.86    1.16
  -5 -13  -6    2.53    1.05
   5 -13   7    0.31    0.88
  -5 -13  -7    1.51    1.01
   5  14  -8    0.72    1.07
   5 -14  -8   -0.18    0.96
   5  14  -7    5.73    1.43
   5 -14  -7    5.43    1.47
   5  14  -6    3.23    1.13
   5 -14  -6    3.80    1.14
   5  14  -5    0.78    0.78
   5 -14  -5    2.04    0.91
   5  14  -4    1.45    0.82
  -5 -14   4    2.80    0.76
   5 -14  -4    3.10    0.93
   5  14  -3   -0.61    0.49
  -5 -14   3    1.14    0.54
   5 -14  -3    0.72    0.68
   5  14  -2   76.08    3.65
  -5 -14   2   69.65    3.36
   5 -14  -2   69.84    3.64
   5  14  -1   35.21    1.78
   5  14  -1   35.08    2.21
   5 -14  -1   33.96    1.89
  -5 -14   1   31.17    1.99
   5 -14  -1   32.41    2.22
   5  14   0  107.08    4.39
   5  14   0  105.58    4.64
   5 -14   0  109.26    4.28
  -5 -14   0  103.29    4.59
   5  14   1   31.56    1.91
   5  14   1   32.24    2.01
  -5 -14  -1   31.50    2.00
   5  14   2   44.87    2.50
  -5 -14  -2   40.77    2.48
  -5  14  -3   84.80    4.05
   5 -14   3   86.50    4.29
  -5 -14  -3   74.98    4.00
  -5  14  -4   -0.24    0.58
  -5 -14  -4   -0.32    0.57
   5 -14   4    0.08    0.62
  -5  14  -5   12.31    1.62
   5 -14   5   14.39    1.99
  -5 -14  -5   14.65    1.97
   5 -14   6    1.08    0.90
  -5 -14  -6    0.26    0.84
  -5 -14  -7    0.21    0.94
   5 -14   7    0.11    0.83
   5  15  -8    1.86    1.11
   5 -15  -8    1.21    1.08
   5  15  -7    0.20    0.90
   5 -15  -7    0.89    1.02
   5  15  -6    3.41    1.15
   5 -15  -6    2.70    1.05
   5  15  -5    0.51    0.79
   5 -15  -5   -0.38    0.67
   5  15  -4    8.26    1.39
  -5 -15   4    9.88    1.26
   5 -15  -4    6.00    1.21
   5  15  -3   13.82    1.66
   5 -15  -3   13.74    1.73
  -5 -15   3   17.81    1.64
   5  15  -2    0.03    0.58
   5 -15  -2    0.29    0.50
   5 -15  -2   -0.52    0.57
  -5 -15   2    1.57    0.62
   5  15  -1  115.90    5.10
  -5 -15   1  112.08    4.95
   5 -15  -1  118.62    4.76
   5 -15  -1  114.81    5.25
   5  15   0    3.11    0.66
   5  15   0    3.74    0.95
  -5 -15   0    3.63    0.87
   5  15   1   92.68    4.06
   5  15   1   88.07    4.14
  -5 -15  -1   93.38    4.24
   5  15   2    1.21    0.62
  -5 -15  -2    0.20    0.56
   5 -15   2   -0.26    0.54
  -5 -15  -3   62.63    3.44
   5 -15   3   62.85    3.62
  -5  15  -4    6.63    1.25
  -5 -15  -4    5.76    1.22
   5 -15   4    6.81    1.39
  -5  15  -5    0.49    0.83
  -5 -15  -5   -0.22    0.72
   5 -15   5    1.52    0.83
   5 -15   6    0.48    0.86
  -5 -15  -6    0.13    0.83
  -5 -15  -7    1.29    1.26
   5 -15   7    0.82    1.15
   5  16  -8    1.16    1.24
   5  16  -7    4.56    1.44
   5 -16  -7    0.75    0.98
   5  16  -6   -0.90    0.65
   5 -16  -6   -0.05    0.79
   5  16  -5    1.20    0.83
   5 -16  -5    0.77    0.84
   5  16  -4    1.90    0.90
   5 -16  -4    2.04    0.90
   5  16  -3    7.98    1.34
  -5 -16   3   10.69    1.33
   5 -16  -3    8.93    1.42
   5  16  -2   94.06    4.55
  -5 -16   2   91.72    4.31
   5 -16  -2   97.36    4.28
   5 -16  -2   95.29    4.63
   5  16  -1   53.65    3.05
   5 -16  -1   59.22    3.30
   5 -16  -1   55.33    2.73
  -5 -16   1   53.06    2.94
   5  16   0   20.32    1.97
   5  16   0   23.70    1.54
  -5 -16   0   22.34    1.73
   5  16   1    7.48    1.20
   5  16   1    7.24    1.07
   5 -16   1    6.46    1.17
  -5 -16  -1    7.03    1.19
   5 -16   2    0.25    0.58
  -5 -16  -2    0.15    0.60
   5 -16   3    0.74    0.65
  -5 -16  -3   -0.16    0.65
  -5  16  -4    1.01    0.82
   5 -16   4    2.84    1.04
  -5 -16  -4    2.78    1.01
  -5  16  -5   17.31    2.01
   5 -16   5   17.10    2.21
  -5 -16  -5   19.01    2.24
   5 -16   6   -0.32    0.77
  -5 -16  -6    0.62    0.85
   5 -16   7    9.41    2.02
  -5 -16  -7    6.82    1.61
   5  17  -7   -1.55    0.89
   5 -17  -7    0.49    0.96
   5  17  -6   -1.35    0.89
   5 -17  -6    0.70    1.06
   5  17  -5    0.97    0.92
   5 -17  -5    0.77    0.80
   5  17  -4    0.69    0.80
   5 -17  -4    0.73    0.87
   5  17  -3   26.41    2.44
   5 -17  -3   27.99    2.56
  -5 -17   3   27.08    1.98
   5  17  -2   20.67    2.11
   5 -17  -2   23.78    1.73
   5 -17  -2   19.82    2.12
  -5 -17   2   22.99    1.80
   5  17  -1   42.30    2.68
  -5 -17   1   45.85    2.64
   5 -17  -1   39.77    2.75
   5 -17  -1   41.36    2.30
   5  17   0    9.61    1.38
   5  17   0    8.96    1.52
  -5 -17   0    9.37    1.31
   5 -17   0    8.79    1.36
   5  17   1    0.99    0.73
   5 -17   1    0.49    0.60
  -5 -17  -1    0.64    0.63
   5 -17   2   26.35    2.53
  -5 -17  -2   30.64    2.24
   5 -17   3   32.92    2.97
  -5 -17  -3   34.76    2.53
  -5  17  -4   13.28    1.81
   5 -17   4    8.51    1.59
  -5 -17  -4    8.70    1.61
  -5  17  -5    6.95    1.42
  -5 -17  -5   10.48    1.80
   5 -17   5    7.08    1.56
  -5 -17  -6    3.53    1.28
   5 -17   6    1.38    1.04
   5 -17   7    0.32    1.07
   5  18  -7    2.48    1.39
   5 -18  -7    1.28    1.09
   5  18  -6    2.80    1.14
   5 -18  -6    4.02    1.42
   5  18  -5   20.46    2.40
   5 -18  -5   21.18    2.51
   5  18  -4    0.22    0.74
   5 -18  -4   -0.07    0.74
   5  18  -3    1.18    0.84
   5 -18  -3   -0.15    0.78
  -5 -18   3    1.18    0.63
   5  18  -2    1.63    0.91
  -5 -18   2    1.47    0.74
   5 -18  -2    1.01    0.75
   5 -18  -2    0.63    0.63
   5  18  -1    0.33    0.73
   5 -18  -1   -0.25    0.55
  -5 -18   1    1.13    0.65
   5  18   0   67.54    3.54
  -5 -18   0   63.51    3.43
   5 -18   0   61.11    3.57
   5  18   1    1.91    0.86
  -5 -18  -1    1.13    0.73
   5 -18   1    1.58    0.80
   5 -18   2   10.23    1.64
  -5 -18  -2   10.68    1.50
   5 -18   3    4.54    1.20
  -5 -18  -3    4.39    1.15
   5 -18   4    9.01    1.64
  -5 -18  -4    9.84    1.63
  -5  18  -5    3.56    1.18
  -5 -18  -5    5.00    1.33
   5 -18   5    2.79    1.21
  -5 -18  -6    3.31    1.42
   5 -18   6    4.43    1.43
   5  19  -7    6.19    1.71
   5  19  -6    1.63    1.12
   5 -19  -6    3.60    1.29
   5  19  -5    0.54    1.01
   5 -19  -5    2.28    1.09
   5  19  -4    0.04    0.76
   5 -19  -4    0.20    0.82
   5  19  -3   31.62    2.82
   5 -19  -3   32.96    2.96
   5  19  -2    5.26    1.27
   5 -19  -2    5.25    1.22
  -5 -19   2    5.02    1.07
   5 -19  -2    4.67    0.95
   5  19  -1    8.07    1.44
  -5 -19   1   12.56    1.58
   5 -19  -1    9.31    1.56
   5  19   0    7.05    1.34
   5 -19   0    5.60    1.18
  -5 -19   0    3.30    0.96
   5  19   1   12.52    1.68
   5 -19   1   13.58    1.86
  -5 -19  -1   13.38    1.71
   5 -19   2   -0.55    0.56
  -5 -19  -2    0.38    0.76
  -5 -19  -3    2.39    1.01
   5 -19   3    1.94    1.03
   5 -19   4    3.47    1.20
  -5 -19  -4    2.79    1.04
  -5  19  -5   -0.09    0.92
  -5 -19  -5    2.21    1.23
   5 -19   5    8.45    1.74
   5 -19   6    0.21    0.86
  -5 -19  -6    2.77    1.27
   5  20  -6   -0.09    0.91
   5 -20  -6    1.60    1.13
   5  20  -5    0.54    0.94
   5 -20  -5    3.27    1.20
   5  20  -4    0.47    0.86
   5 -20  -4    3.22    1.27
   5  20  -3   18.11    2.21
   5 -20  -3   16.87    2.18
   5  20  -2   28.12    2.64
   5 -20  -2   24.12    2.54
  -5 -20   2   28.33    2.50
   5  20  -1   50.71    3.10
   5 -20  -1   42.85    3.06
  -5 -20   1   45.96    2.95
   5  20   0   12.86    1.78
  -5 -20   0   15.82    1.88
   5 -20   0   14.57    1.92
   5  20   1   22.59    2.22
   5 -20   1   19.20    2.29
  -5 -20  -1   23.24    2.31
   5 -20   2    2.25    0.99
  -5 -20  -2    2.95    1.03
   5 -20   3   13.84    2.06
  -5 -20  -3   18.67    2.10
  -5 -20  -4    3.83    1.23
   5 -20   4    2.48    1.13
   5 -20   5    1.55    1.03
  -5 -20  -5    0.15    0.88
   5 -20   6   -0.52    0.93
  -5 -20  -6    0.36    1.82
   5  21  -6   -0.73    0.99
   5 -21  -6    1.62    1.38
   5  21  -5    2.05    1.19
   5 -21  -5    1.80    1.14
   5  21  -4    2.08    1.12
   5 -21  -4    2.37    1.09
   5  21  -3   -0.09    0.81
   5 -21  -3    0.94    0.73
   5 -21  -3    1.28    1.03
   5  21  -2    2.25    1.16
   5 -21  -2    2.97    1.11
  -5 -21   2    2.57    0.97
   5  21  -1   28.01    2.71
   5 -21  -1   33.18    3.01
   5  21   0   -0.10    0.66
  -5 -21   0   -0.60    0.69
   5 -21   0   -0.17    0.62
   5  21   1   38.24    2.79
   5 -21   1   33.74    3.15
  -5 -21  -1   40.25    2.76
  -5 -21  -2    2.08    0.96
   5 -21   2    3.70    1.22
  -5 -21  -3    2.39    1.07
   5 -21   3    2.66    1.11
  -5 -21  -4   -0.11    0.81
   5 -21   4   -0.29    0.89
   5 -21   5   12.73    2.09
  -5 -21  -5    7.39    1.75
   5  22  -6   -0.40    0.95
   5  22  -5    2.04    1.33
   5 -22  -5    1.38    1.24
   5  22  -4   10.11    1.83
   5 -22  -4    8.10    1.73
   5  22  -3    3.36    1.24
   5 -22  -3    3.15    1.20
   5  22  -2    5.36    1.33
   5 -22  -2    3.37    1.18
   5  22  -1   -0.46    0.73
  -5 -22   1    0.87    0.84
   5 -22  -1    0.60    0.77
   5  22   0   20.25    2.34
   5 -22   0   24.39    2.58
  -5 -22   0   24.13    2.48
  -5 -22  -1    0.66    0.87
   5 -22   1    1.49    0.96
  -5 -22  -2    3.86    1.19
   5 -22   2    5.52    1.47
   5 -22   3   -0.43    0.70
  -5 -22  -3    0.93    0.91
   5 -22   4    0.76    0.99
   5 -22   5    0.29    0.92
  -5 -22  -5    0.47    0.96
   5  23  -5    0.25    1.06
   5 -23  -5    0.73    1.68
   5  23  -4   -0.58    0.76
   5 -23  -4    0.68    0.85
   5  23  -3    5.37    1.42
   5 -23  -3    4.31    1.32
   5  23  -2   15.34    2.19
   5 -23  -2   20.59    2.52
   5  23  -1    7.56    1.64
   5 -23  -1    7.50    1.55
  -5 -23   1    5.89    1.31
   5  23   0    0.27    0.85
   5 -23   0    0.27    0.74
  -5 -23   0   -0.05    0.82
   5 -23   1   10.58    1.90
  -5 -23  -1   10.02    1.71
  -5 -23  -2   21.51    2.49
   5 -23   2   20.81    2.53
  -5 -23  -3   -0.39    0.76
   5 -23   3   -0.12    0.75
  -5 -23  -4    0.39    0.97
   5 -23   4    1.08    1.13
   5  24  -5    0.26    1.07
   5 -24  -5    1.78    1.09
   5  24  -4    3.47    1.44
   5 -24  -4    3.64    1.38
   5  24  -3   -1.01    0.91
   5 -24  -3    1.35    1.00
   5  24  -2    4.91    1.42
   5 -24  -2    5.82    1.48
   5  24  -1   -0.18    0.78
  -5 -24   1    1.08    0.86
   5 -24  -1    0.47    0.88
   5  24   0   45.34    3.21
   5 -24   0   37.43    3.55
  -5 -24   0   41.09    3.04
   5 -24   1    5.25    1.52
  -5 -24  -1    4.94    1.34
  -5 -24  -2    6.74    1.54
   5 -24   2    1.77    1.20
   5 -24   3    0.48    0.96
  -5 -24  -3    1.13    0.98
  -5 -24  -4    7.29    1.77
   5 -24   4   11.17    2.19
   5  25  -4    1.89    1.22
   5  25  -3    6.48    1.63
   5 -25  -3    3.42    1.39
   5  25  -2    1.99    1.15
   5 -25  -2    1.07    1.11
   5  25  -1   13.29    2.06
   5 -25  -1    8.91    1.80
   5  25   0    0.22    0.86
  -5 -25   0    1.27    1.04
   5 -25   0    0.37    0.90
  -5 -25  -1   20.86    2.53
   5 -25   1   21.89    2.74
  -5 -25  -2    0.23    0.91
   5 -25   2   -0.12    0.90
  -5 -25  -3    0.39    1.02
   5 -25   3    0.10    0.88
   5  26  -3    3.39    1.50
   5  26  -2    0.22    1.07
   5 -26  -2    3.09    1.24
   5  26  -1    0.37    0.99
   5 -26  -1   -0.01    0.83
  -5 -26   0   10.23    1.82
   5 -26   0   12.27    2.13
  -5 -26  -1    5.86    1.65
   5 -26   1    5.74    1.59
   5 -26   2   -0.37    0.92
  -5 -26  -2    0.12    1.03
  -5 -26  -3    0.47    1.14
   5  27  -2    2.67    1.33
   5  27  -1   24.56    2.89
  -5 -27  -1   16.28    2.33
  -5 -27  -2    2.14    1.21
   5  28  -1    0.56    1.29
   6   0  -8   15.67    1.92
   6   0  -7    0.73    0.68
   6   0  -7   -0.59    0.55
   6   0  -6    2.29    0.81
   6   0  -6    1.42    0.68
   6   0  -5   -0.31    0.45
   6   0  -5    0.34    0.46
   6   0  -4  128.35    5.11
   6   0  -4  121.23    4.82
   6   0  -3    0.13    0.34
   6   0  -3    0.07    0.24
   6   0  -2  265.58    9.51
   6   0  -2  261.86    9.09
   6   0  -1   -0.05    0.13
   6   0  -1    0.17    0.30
   6   0   0    0.03    0.18
   6   0   0   -0.17    0.15
   6   0   1   -0.33    0.21
   6   0   1   -0.26    0.23
   6   0   2  255.31    9.29
   6   0   2  254.85    9.27
   6   0   3   -0.17    0.34
   6   0   3   -0.17    0.37
   6   0   4    2.07    0.64
   6   0   4    2.22    0.60
   6   0   5   -0.38    0.45
   6   0   5    0.46    0.58
   6   0   6   21.65    2.23
   6   0   7   -0.56    0.66
   6   0   8   -0.05    0.85
   6  -1  -9    1.82    0.99
   6   1  -8    9.47    1.56
   6   1  -8    7.90    1.40
   6  -1  -8    8.50    1.54
   6   1  -7    0.75    0.69
   6  -1  -7    1.33    0.77
   6  -1  -7    1.31    0.73
   6   1  -6    0.50    0.60
   6   1  -6    0.61    0.56
   6  -1  -6    0.00    0.58
   6  -1  -6   -0.95    0.42
   6   1  -5   28.24    1.84
   6   1  -5   28.13    1.69
   6  -1  -5   25.59    1.68
  -6  -1   5   24.85    1.67
   6  -1  -5   27.80    1.87
   6   1  -4   17.74    1.17
   6   1  -4   20.67    1.41
   6  -1  -4   17.50    1.36
   6  -1  -4   17.11    1.19
   6   1  -3   62.46    2.55
   6   1  -3   62.11    2.84
   6  -1  -3   65.93    2.93
   6  -1  -3   66.73    2.66
   6   1  -2    1.46    0.23
   6   1  -2    1.65    0.45
   6  -1  -2    1.89    0.31
   6  -1  -2    1.71    0.46
   6   1  -1   81.84    2.77
   6   1  -1   78.48    3.28
   6  -1  -1   81.81    2.98
   6   1   0   18.24    0.85
   6  -1   0   15.05    1.02
   6  -1   0   17.26    0.90
   6   1   1    6.09    0.65
   6  -1   1    5.64    0.63
   6   1   2   25.86    1.48
   6   1   2   26.27    1.47
   6  -1   2   24.58    1.46
   6  -1   2   23.91    1.40
   6   1   3   21.47    1.48
   6   1   3   18.11    1.32
   6  -1   3   18.97    1.40
   6  -1   3   18.40    1.29
   6   1   4    8.26    1.08
   6   1   4    6.95    1.05
   6  -1   4    6.11    0.90
   6  -1   4    7.77    1.12
   6   1   5   -0.78    0.43
   6   1   5    0.06    0.52
   6  -1   5   -0.30    0.46
   6  -1   5    0.72    0.56
   6   1   6   -0.30    0.49
   6  -1   6    0.90    0.65
   6   1   7   61.23    3.85
   6  -1   7   60.02    3.77
   6   1   8    0.17    0.85
   6  -1   8    0.37    0.87
   6  -2  -9    2.33    1.10
   6   2  -8    0.41    0.74
   6  -2  -8    0.89    0.75
   6   2  -7    1.13    0.70
   6   2  -7    2.55    0.86
   6  -2  -7    1.81    0.78
   6  -2  -7    3.77    0.93
   6   2  -6    1.66    0.71
   6  -2  -6    1.88    0.68
  -6  -2   6    1.70    0.67
   6  -2  -6    1.41    0.74
   6   2  -5   28.72    1.86
   6  -2  -5   31.02    1.99
   6  -2  -5   28.09    1.80
  -6  -2   5   28.63    1.76
   6   2  -4   57.66    2.76
   6  -2  -4   57.07    2.69
   6  -2  -4   64.06    2.93
   6   2  -3    2.47    0.56
  -6  -2   3    3.15    0.45
   6  -2  -3    3.98    0.72
   6  -2  -3    2.76    0.51
   6   2  -2  130.03    4.65
   6   2  -2  137.91    5.14
   6  -2  -2  137.52    4.91
   6  -2  -2  133.33    5.18
   6   2  -1  281.88   10.13
   6  -2  -1  286.11    9.88
   6   2   0   58.56    2.50
   6   2   0   56.31    2.16
   6  -2   0   57.22    2.32
   6  -2   0   56.28    2.46
   6   2   1   18.96    1.06
   6  -2   1   17.65    1.08
   6   2   2  162.75    6.07
   6   2   2  168.19    6.04
   6  -2   2  137.96    5.87
   6  -2   2  164.35    6.08
   6   2   3  105.58    4.39
   6   2   3  104.03    4.44
   6  -2   3  100.74    4.42
   6  -2   3  108.76    4.29
   6   2   4   16.32    1.59
   6   2   4   13.71    1.37
   6  -2   4   14.41    1.52
   6  -2   4   14.50    1.33
   6   2   5    7.50    1.24
   6   2   5    7.41    1.11
   6  -2   5    2.91    0.81
   6  -2   5    9.07    1.14
   6   2   6   -0.17    0.55
   6  -2   6    0.27    0.56
   6   2   7    2.88    1.12
   6  -2   7    1.60    0.89
   6   2   8   23.37    2.79
   6  -2   8   28.57    3.04
   6  -3  -9    1.97    1.04
   6   3  -8    7.53    1.40
   6  -3  -8    7.76    1.43
   6   3  -7   24.98    2.35
   6   3  -7   27.62    2.08
   6  -3  -7   26.17    2.46
   6  -3  -7   29.02    2.16
   6   3  -6   12.26    1.37
  -6  -3   6   12.52    1.41
   6  -3  -6   13.00    1.48
   6  -3  -6   12.46    1.53
   6   3  -5   20.91    1.51
  -6  -3   5   21.69    1.49
   6  -3  -5   21.86    1.95
   6  -3  -5   20.92    1.56
   6   3  -4   41.36    2.10
   6  -3  -4   39.37    2.21
   6  -3  -4   38.84    2.05
   6   3  -3  537.03   19.27
  -6  -3   3  571.43   19.00
   6  -3  -3  543.39   19.18
   6  -3  -3  562.34   19.47
   6   3  -2   10.28    0.93
   6  -3  -2    7.60    0.69
  -6  -3   2    7.16    0.43
   6   3  -1  137.29    5.22
   6  -3  -1  138.00    5.05
   6   3   0    1.08    0.40
  -6  -3   0    0.70    0.25
   6  -3   0    0.35    0.27
   6  -3   0    1.38    0.37
   6   3   1   19.79    0.96
   6   3   1   19.25    1.10
   6  -3   1   18.68    1.16
   6  -3   1   20.63    1.18
   6   3   2    7.87    0.92
   6   3   2    7.07    0.83
   6  -3   2    8.08    0.92
   6   3   3   23.33    1.62
   6   3   3   24.90    1.64
   6  -3   3   26.67    1.51
   6  -3   3   25.84    1.70
   6   3   4   30.28    1.91
   6   3   4   27.02    1.91
   6  -3   4   28.57    1.71
   6  -3   4   26.98    1.94
   6   3   5   22.75    2.16
   6   3   5   23.84    1.79
   6  -3   5   16.73    1.87
   6  -3   5   24.56    1.67
   6   3   6    1.69    0.78
   6  -3   6    0.83    0.72
   6   3   7    3.26    1.07
   6  -3   7    2.81    1.11
   6   3   8    0.06    0.73
   6  -3   8   -0.15    0.86
   6  -4  -9    1.50    1.06
   6   4  -8    2.65    1.01
   6  -4  -8    2.67    1.03
   6   4  -7    9.07    1.44
   6  -4  -7    8.30    1.41
   6  -4  -7    9.02    1.43
   6   4  -6   25.89    1.95
   6   4  -6   24.96    1.76
   6  -4  -6   24.45    1.89
  -6  -4   6   25.19    1.79
   6  -4  -6   22.34    2.12
   6   4  -5   16.71    1.48
  -6  -4   5   15.01    1.37
   6  -4  -5   14.66    1.50
   6  -4  -5   15.71    1.62
   6   4  -4   22.90    1.47
   6  -4  -4   25.62    1.57
   6  -4  -4   21.33    1.57
   6   4  -3    0.40    0.33
   6  -4  -3    1.18    0.40
  -6  -4   3    0.77    0.28
   6  -4  -3    0.28    0.34
   6   4  -2   30.10    1.56
  -6  -4   2   29.56    1.19
   6  -4  -2   27.51    1.46
   6  -4  -2   30.15    1.63
   6   4  -1   39.20    1.84
   6  -4  -1   40.11    1.77
   6  -4  -1   30.19    1.75
  -6  -4   1   38.70    1.37
   6   4   0  163.87    6.16
   6   4   0  166.69    6.03
   6  -4   0  169.50    6.11
  -6  -4   0  160.88    5.83
   6   4   1    0.13    0.22
   6   4   1    0.09    0.30
   6   4   1    0.30    0.28
   6  -4   1    0.04    0.29
   6  -4   1    0.19    0.30
  -6  -4  -1    0.02    0.30
   6   4   2   15.69    1.19
   6   4   2   17.57    1.21
   6  -4   2   18.43    1.27
   6   4   3   57.26    2.80
   6   4   3   51.93    2.69
   6  -4   3   56.68    2.83
   6  -4   3   56.05    2.53
   6   4   4    3.49    0.82
   6   4   4    2.87    0.75
   6  -4   4    0.53    0.43
   6  -4   4    3.52    0.68
   6   4   5    1.36    0.68
   6   4   5    2.76    0.87
   6  -4   5    3.25    0.88
   6  -4   5    3.19    0.69
   6   4   6   12.34    1.70
   6  -4   6   14.64    1.85
   6   4   7    0.44    0.71
   6  -4   7   -0.01    0.75
   6  -4   8   16.68    2.36
   6  -5  -9    1.36    1.04
   6   5  -8    0.83    0.82
   6  -5  -8    1.28    0.86
   6  -5  -8    1.59    0.91
   6   5  -7    2.85    0.91
   6  -5  -7    3.14    1.02
   6  -5  -7    2.37    0.96
   6   5  -6    0.62    0.61
   6   5  -6    0.74    0.53
   6  -5  -6   -0.11    0.51
   6   5  -5   22.70    1.53
   6   5  -5   21.33    1.92
  -6  -5   5   21.50    1.47
   6  -5  -5   24.40    1.73
   6  -5  -5   18.56    1.81
   6   5  -4   91.08    4.20
   6   5  -4   95.94    3.94
   6  -5  -4   92.43    4.04
   6  -5  -4   99.04    4.24
   6   5  -3  153.48    5.99
   6   5  -3  152.27    5.71
   6  -5  -3  144.52    5.75
  -6  -5   3  150.73    5.48
   6   5  -2  219.35    7.99
   6   5  -2  209.58    7.77
  -6  -5   2  210.62    7.40
   6  -5  -2  220.50    7.95
   6  -5  -2  208.20    7.78
   6   5  -1   12.65    0.94
   6   5  -1   13.62    0.99
   6  -5  -1   12.72    0.94
   6  -5  -1   14.70    1.04
  -6  -5   1   12.97    0.66
   6   5   0  116.34    4.58
   6   5   0  126.37    4.74
  -6  -5   0  118.71    4.43
   6  -5   0  126.12    4.72
   6   5   1    0.33    0.25
   6   5   1    0.51    0.35
   6  -5   1    0.27    0.31
   6  -5   1    0.08    0.30
  -6  -5  -1   -0.36    0.24
   6  -5   2   68.77    3.16
  -6  -5  -2   71.63    3.12
   6   5   3   14.47    1.38
   6   5   3   11.37    1.24
   6  -5   3   12.89    1.09
   6  -5   3   11.40    1.25
   6   5   4    3.35    0.78
   6   5   4    4.83    0.94
   6  -5   4    4.59    0.73
   6   5   5    9.31    1.31
   6   5   5   11.10    1.48
   6  -5   5    9.71    1.12
   6  -5   5   12.71    1.61
   6   5   6    0.06    0.65
   6  -5   6   -0.70    0.58
  -6  -5  -6    0.99    0.78
   6  -5   7   17.45    2.26
  -6  -5  -7   16.81    2.12
  -6  -5  -8    1.24    0.94
   6  -5   8    1.56    1.00
   6  -6  -9   -0.61    0.68
   6   6  -8    3.84    1.12
   6  -6  -8    3.96    1.26
   6  -6  -8    4.59    1.22
   6   6  -7   -0.34    0.65
   6  -6  -7    0.68    0.70
   6   6  -6    0.20    0.66
   6  -6  -6    0.02    0.62
   6   6  -5   16.64    1.44
   6   6  -5   17.35    1.75
   6  -6  -5   16.08    1.63
  -6  -6   5   16.59    1.29
   6   6  -4  171.19    6.45
   6   6  -4  171.79    6.05
  -6  -6   4  135.48    5.86
   6  -6  -4  153.49    6.20
   6   6  -3    5.79    0.74
   6   6  -3    6.23    0.87
   6  -6  -3    7.29    0.94
   6  -6  -3    4.98    0.75
  -6  -6   3    6.24    0.64
   6   6  -2  491.26   17.09
   6   6  -2  484.04   17.29
  -6  -6   2  491.08   16.77
   6  -6  -2  484.34   17.17
   6  -6  -2  502.86   17.29
   6   6  -1    1.37    0.43
   6   6  -1    1.91    0.48
   6  -6  -1    1.28    0.42
  -6  -6   1    1.71    0.30
   6  -6  -1    1.67    0.47
   6   6   0    5.96    0.75
   6  -6   0    4.55    0.68
  -6  -6   0    6.86    0.63
   6   6   1   36.86    1.69
   6   6   1   38.45    1.95
   6  -6   1   37.06    1.77
   6  -6   1   36.19    1.93
   6   6   2   77.98    3.45
   6   6   2   75.42    2.91
   6  -6   2   79.19    3.50
  -6  -6  -2   77.82    3.35
   6  -6   2   77.11    3.14
   6   6   3    0.75    0.47
   6  -6   3    0.03    0.23
  -6  -6  -3    1.88    0.62
   6  -6   3    2.28    0.66
   6   6   4   43.87    2.51
  -6   6  -4   43.96    2.15
   6  -6   4   42.51    2.15
  -6  -6  -4   44.89    2.59
   6  -6   5    7.77    1.29
  -6  -6  -5    7.44    1.28
   6  -6   6   35.47    2.70
  -6  -6  -6   39.50    2.75
  -6  -6  -7    6.00    1.44
   6  -6   7    8.39    1.65
   6  -6   8    0.24    1.00
  -6  -6  -8   -0.79    0.90
   6  -7  -9   -0.18    0.82
   6   7  -8    1.07    0.90
   6  -7  -8   -0.19    0.68
   6  -7  -8    0.39    0.80
   6   7  -7    1.35    0.85
   6  -7  -7    1.77    0.86
   6   7  -6    0.42    0.66
   6  -7  -6    0.92    0.61
   6   7  -5    6.36    1.15
   6   7  -5   10.00    1.06
   6  -7  -5    8.22    1.20
  -6  -7   5    6.09    0.89
   6   7  -4   77.74    3.38
   6   7  -4   81.40    3.83
  -6  -7   4   80.69    3.38
   6  -7  -4   80.85    3.71
   6   7  -3   81.66    3.20
   6   7  -3   57.63    3.30
   6  -7  -3   77.88    3.38
  -6  -7   3   79.83    3.06
   6  -7  -3   78.99    3.47
   6   7  -2   12.91    1.25
   6   7  -2   12.67    0.99
  -6  -7   2   14.24    0.83
   6  -7  -2   14.00    1.09
   6  -7  -2   13.78    1.24
   6   7  -1    0.40    0.36
   6   7  -1    0.26    0.36
  -6  -7   1    0.63    0.26
   6  -7  -1    0.41    0.37
   6  -7  -1    0.53    0.36
   6   7   0    4.76    0.71
   6  -7   0    6.17    0.77
  -6  -7   0    6.93    0.68
   6   7   1    0.33    0.40
   6   7   1    1.54    0.38
   6  -7   1    0.92    0.37
   6  -7   1    0.98    0.45
  -6  -7  -1   -0.11    0.21
   6   7   2   26.70    1.30
   6   7   2   26.24    1.68
   6  -7   2   27.33    1.75
   6  -7   2   30.02    1.45
  -6  -7  -2   25.15    1.61
   6   7   3    0.14    0.19
   6  -7   3    0.21    0.22
  -6  -7  -3    2.95    0.72
   6  -7   3    1.50    0.58
  -6   7  -4    6.21    0.85
   6   7   4    5.05    0.97
  -6  -7  -4    3.43    0.91
  -6  -7  -5    8.94    1.42
   6  -7   5    8.18    1.34
  -6  -7  -6   30.81    2.84
   6  -7   6   31.66    2.92
  -6  -7  -7    6.75    1.46
   6  -7   7    4.21    1.29
  -6  -7  -8    1.18    1.00
   6  -7   8    2.10    1.06
   6  -8  -9    2.83    1.20
   6   8  -8    0.05    0.79
   6  -8  -8    1.24    0.90
   6   8  -7    0.22    0.69
   6  -8  -7   -0.22    0.72
   6   8  -6   -0.44    0.55
   6  -8  -6    0.23    0.61
   6   8  -5   15.59    1.74
   6  -8  -5   15.35    1.65
  -6  -8   5   15.90    1.65
   6   8  -4   60.93    2.84
   6   8  -4   72.84    3.45
   6  -8  -4   64.68    3.22
  -6  -8   4   66.96    2.95
   6   8  -3   -0.03    0.25
   6   8  -3    0.97    0.41
   6  -8  -3    0.97    0.54
  -6  -8   3    0.69    0.32
   6  -8  -3    0.94    0.55
   6   8  -2   74.22    3.31
   6   8  -2   70.44    3.00
   6  -8  -2   65.46    3.17
  -6  -8   2   72.36    2.87
   6  -8  -2   76.21    3.25
   6   8  -1  103.89    4.25
   6   8  -1  100.28    4.08
  -6  -8   1  102.24    3.92
   6  -8  -1  103.68    4.28
   6  -8  -1  105.01    4.18
   6   8   0   13.94    1.19
   6   8   0   14.69    1.10
   6  -8   0   16.45    1.20
  -6  -8   0   14.05    0.97
   6   8   1    0.86    0.32
   6   8   1    1.15    0.47
  -6  -8  -1    2.55    0.51
   6  -8   1    1.66    0.55
   6  -8   1    1.49    0.42
   6   8   2   22.18    1.50
   6   8   2   19.39    1.12
   6  -8   2   20.18    1.16
   6  -8   2   21.50    1.56
  -6  -8  -2   19.03    1.40
   6  -8   3   39.72    2.28
   6  -8   3   30.51    1.67
  -6  -8  -3   43.90    2.28
  -6   8  -4   15.06    1.39
  -6  -8  -4   15.25    1.68
  -6  -8  -5   10.78    1.57
   6  -8   5   11.04    1.64
   6  -8   6    0.67    0.71
  -6  -8  -6    0.58    0.81
  -6  -8  -7    0.97    0.90
   6  -8   7    0.60    0.89
   6  -8   8   15.88    2.40
  -6  -8  -8   12.37    2.11
   6  -9  -9    1.09    1.00
   6   9  -8    2.06    1.02
   6  -9  -8    2.05    1.06
   6   9  -7   20.95    2.26
   6  -9  -7   17.91    2.12
   6   9  -6    0.62    0.69
   6  -9  -6   -0.12    0.54
   6   9  -5    2.34    0.83
   6  -9  -5    3.22    0.88
   6   9  -4    2.66    0.80
   6   9  -4    2.56    0.82
   6  -9  -4    2.47    0.73
  -6  -9   4    2.92    0.60
   6   9  -2    3.08    0.57
   6   9  -2    3.47    0.76
   6  -9  -2    4.18    0.79
   6  -9  -2    3.31    0.68
  -6  -9   2    3.40    0.52
   6   9  -1   26.11    1.47
   6   9  -1   25.07    1.62
   6  -9  -1   25.16    1.49
  -6  -9   1   27.07    1.39
   6  -9  -1   22.60    1.58
   6   9   0   15.17    1.08
   6   9   0   14.53    1.08
   6  -9   0    8.12    0.89
   6  -9   0   12.29    1.20
   6   9   1   33.84    1.91
   6   9   1   26.78    1.67
   6  -9   1   40.23    1.77
  -6  -9  -1   38.86    1.91
   6  -9   1   36.40    2.05
   6   9   2    6.03    0.70
   6   9   2    5.47    0.92
   6  -9   2    6.66    0.97
  -6  -9  -2    4.54    0.80
   6  -9   2    6.37    0.68
   6   9   3    1.34    0.65
   6  -9   3    0.00    0.27
  -6  -9  -3    0.84    0.60
  -6   9  -4    1.91    0.66
  -6  -9  -4    2.20    0.80
   6  -9   5   25.20    2.46
  -6  -9  -5   29.72    2.63
  -6  -9  -6    2.12    1.02
   6  -9   6    3.50    1.16
   6  -9   7    9.72    1.85
  -6  -9  -7    7.84    1.64
  -6  -9  -8    0.20    0.86
   6  -9   8   -0.71    0.72
   6 -10  -9   -0.51    0.85
   6  10  -8    0.37    0.92
   6 -10  -8   -0.37    0.83
   6  10  -7    1.00    0.93
   6 -10  -7    0.94    0.92
   6  10  -6    2.96    0.97
   6 -10  -6    3.33    1.05
   6  10  -5   31.20    2.34
   6 -10  -5   32.80    2.28
   6  10  -4    1.41    0.69
  -6 -10   4    0.70    0.44
   6 -10  -4    0.70    0.60
   6  10  -3    4.47    0.64
   6 -10  -3    5.42    0.93
   6 -10  -3    4.95    0.89
  -6 -10   3    3.21    0.60
   6  10  -2   80.53    3.30
   6  10  -2   82.46    3.71
   6 -10  -2   81.01    3.68
   6 -10  -2   76.05    3.51
   6  10  -1  110.47    4.59
   6  10  -1  105.91    4.34
   6 -10  -1  112.44    4.45
   6 -10  -1  110.96    4.68
   6  10   0    4.78    0.79
   6  10   0    4.66    0.69
  -6 -10   0    4.55    0.69
   6 -10   0    3.91    0.63
   6 -10   0    4.69    0.82
   6  10   1   24.56    1.60
   6  10   1   25.62    1.50
  -6 -10  -1   22.40    1.49
   6 -10   1   25.78    1.36
   6 -10   1   25.04    1.70
   6  10   2    9.58    1.14
   6 -10   2   10.19    1.27
  -6 -10  -2    9.19    1.13
   6 -10   2    9.71    0.83
   6  10   3   28.84    1.92
  -6 -10  -3   25.93    1.87
   6  10   4   10.58    1.44
  -6  10  -4    9.25    1.21
   6 -10   4    8.78    1.38
  -6 -10  -4   12.27    1.53
   6 -10   5   27.91    2.57
  -6 -10  -5   27.62    2.50
  -6 -10  -6   17.46    2.26
   6 -10   6   16.89    2.15
   6 -10   7    0.16    0.82
  -6 -10  -7   -0.67    0.70
  -6 -10  -8    6.01    1.61
   6 -10   8    5.57    1.61
   6  11  -8   -0.69    0.80
   6 -11  -8    0.21    0.88
   6  11  -7    1.02    0.89
   6 -11  -7    1.64    1.02
   6  11  -6    1.33    0.88
   6 -11  -6    1.86    0.86
   6  11  -5    2.00    0.83
   6 -11  -5    3.66    0.99
   6  11  -4   28.97    2.10
  -6 -11   4   29.29    1.76
   6 -11  -4   28.09    2.03
   6 -11  -3   27.05    1.85
  -6 -11   3   26.90    1.61
   6 -11  -3   30.94    1.99
   6  11  -2    4.80    0.67
   6  11  -2    4.45    0.86
  -6 -11   2    3.06    0.59
   6 -11  -2    3.56    0.80
   6 -11  -2    4.15    0.73
   6  11  -1   54.73    2.52
   6  11  -1   55.85    2.79
   6 -11  -1   53.28    2.83
  -6 -11   1   55.05    2.56
   6 -11  -1   58.59    2.65
   6  11   0   13.72    1.30
   6  11   0   14.04    1.26
  -6 -11   0   13.07    1.20
   6 -11   0   12.15    1.33
   6 -11   0   14.17    1.06
   6  11   1   16.84    1.24
   6  11   1   15.48    1.41
   6 -11   1   14.03    0.98
  -6 -11  -1   14.60    1.37
   6 -11   1   17.21    1.65
   6  11   2   -0.24    0.40
   6  11   2    0.40    0.46
  -6 -11  -2    0.38    0.45
   6 -11   2   -0.16    0.36
   6  11   3   10.41    1.32
  -6 -11  -3   11.65    1.42
   6  11   4    6.73    1.17
  -6  11  -4    5.38    1.01
   6 -11   4    8.23    1.34
  -6 -11  -4    4.69    1.08
  -6 -11  -5    1.15    0.80
   6 -11   5    0.78    0.65
   6 -11   6    1.46    0.92
  -6 -11  -6    3.13    1.12
   6 -11   7    6.76    1.61
  -6 -11  -7    7.49    1.63
   6 -11   8    0.70    1.25
   6  12  -8    0.18    0.99
   6 -12  -8    0.30    0.99
   6  12  -7    2.81    1.05
   6 -12  -7    1.46    0.84
   6  12  -6    1.03    0.88
   6 -12  -6    1.03    0.73
   6  12  -5    2.06    0.87
   6 -12  -5    2.29    0.83
   6  12  -4   44.72    2.80
   6 -12  -4   47.68    2.83
   6  12  -3   -0.09    0.28
   6 -12  -3    0.12    0.53
  -6 -12   3   -0.17    0.36
   6 -12  -3   -0.03    0.48
   6  12  -2   74.92    3.56
   6  12  -2   74.17    3.08
   6 -12  -2   73.71    3.38
  -6 -12   2   71.36    3.21
   6 -12  -2   67.61    3.51
   6  12  -1   12.19    1.32
   6  12  -1   10.41    1.01
   6 -12  -1   10.29    1.28
   6 -12  -1   10.84    1.10
  -6 -12   1   12.18    1.19
   6  12   0   -0.11    0.43
   6  12   0    0.47    0.43
   6 -12   0    0.00    0.36
   6 -12   0    0.07    0.47
  -6 -12   0   -0.20    0.37
   6  12   1   16.60    1.49
   6  12   1   17.24    1.34
   6 -12   1   17.29    1.72
  -6 -12  -1   17.49    1.54
   6  12   2   73.74    3.61
   6  12   2   82.01    3.46
  -6 -12  -2   77.26    3.66
   6  12   3   14.81    1.60
  -6 -12  -3   19.49    1.84
  -6  12  -4    7.95    1.27
  -6 -12  -4    9.62    1.43
   6 -12   4    8.74    1.37
   6 -12   5   -0.48    0.60
  -6 -12  -5    0.08    0.73
  -6 -12  -6   20.58    2.41
   6 -12   6   21.24    2.47
  -6 -12  -7    0.75    0.93
   6 -12   7    0.45    0.86
   6  13  -8   -0.27    0.91
   6 -13  -8    1.42    1.14
   6  13  -7    5.31    1.45
   6 -13  -7    5.10    1.32
   6  13  -6   -0.65    0.78
   6 -13  -6    0.95    0.88
   6  13  -5    0.01    0.65
   6 -13  -5    1.60    0.81
   6  13  -4   12.80    1.66
   6 -13  -4   13.28    1.63
   6 -13  -3    3.06    0.83
  -6 -13   3    3.14    0.67
   6 -13  -3    3.15    0.85
   6  13  -2   11.32    1.42
   6 -13  -2   12.67    1.33
   6 -13  -2   14.02    1.57
  -6 -13   2   13.55    1.29
   6  13  -1   29.58    1.99
   6  13  -1   29.04    1.70
  -6 -13   1   29.92    1.82
   6 -13  -1   30.79    2.10
   6 -13  -1   35.19    1.89
   6  13   0    5.21    0.81
   6  13   0    5.03    0.93
   6 -13   0    4.65    0.73
   6 -13   0    4.01    0.90
  -6 -13   0    6.86    0.98
   6  13   1   10.62    1.19
   6  13   1    5.65    0.89
   6 -13   1    5.30    1.01
  -6 -13  -1    8.29    1.14
   6  13   2    2.92    0.72
   6  13   2    2.20    0.77
  -6 -13  -2    2.85    0.81
   6  13   3   36.91    2.40
  -6 -13  -3   33.41    2.32
   6 -13   3   41.38    2.60
   6 -13   4    0.57    0.60
  -6 -13  -4    0.18    0.72
   6 -13   5    6.38    1.36
  -6 -13  -6    0.32    0.94
   6 -13   6    1.63    0.93
   6 -13   7    1.15    0.98
  -6 -13  -7    0.77    0.95
   6  14  -8   -1.56    0.75
   6 -14  -8    0.70    1.07
   6  14  -7    8.31    1.64
   6 -14  -7    7.62    1.59
   6  14  -6    4.54    1.29
   6 -14  -6    1.38    0.90
   6  14  -5    6.67    1.37
   6 -14  -5    9.44    1.57
   6  14  -4   27.44    2.44
   6 -14  -4   24.29    2.34
   6  14  -3    2.71    0.95
  -6 -14   3    3.06    0.70
   6 -14  -3    3.04    0.87
   6 -14  -3    2.69    0.85
   6  14  -2   75.66    3.75
   6 -14  -2   77.43    3.56
  -6 -14   2   75.46    3.47
   6 -14  -2   73.42    3.78
   6  14  -1   20.72    1.39
   6  14  -1   23.67    1.75
   6 -14  -1   21.81    1.51
  -6 -14   1   22.00    1.58
   6 -14  -1   20.15    1.97
   6  14   0    5.21    0.85
   6  14   0    4.97    0.98
  -6 -14   0    6.63    1.03
   6 -14   0    5.06    1.01
   6 -14   0    5.84    0.82
   6  14   1    0.35    0.58
   6  14   1    0.55    0.50
   6 -14   1   -0.35    0.30
  -6 -14  -1    1.47    0.64
   6  14   2    0.38    0.55
   6  14   2    1.02    0.63
   6 -14   2   -0.06    0.27
  -6 -14  -2    1.56    0.70
   6  14   3    1.89    0.71
  -6 -14  -3    1.67    0.74
   6 -14   3    2.22    0.77
  -6 -14  -4    1.36    0.81
   6 -14   4    0.69    0.73
   6 -14   5    4.61    1.21
  -6 -14  -5    4.76    1.30
  -6 -14  -6    5.83    1.45
   6 -14   6   10.31    1.87
  -6 -14  -7    5.81    1.61
   6 -14   7    7.70    1.81
   6  15  -8    0.98    1.07
   6 -15  -8   -0.37    0.89
   6  15  -7    6.44    1.57
   6 -15  -7    8.23    1.65
   6  15  -6    0.00    0.78
   6 -15  -6    0.15    0.76
   6  15  -5   58.39    3.50
   6 -15  -5   52.24    3.36
   6  15  -4    0.42    0.71
   6 -15  -4    1.11    0.78
   6  15  -3    4.53    1.07
   6 -15  -3    5.66    1.02
  -6 -15   3    4.61    0.94
   6 -15  -3    3.32    1.00
   6  15  -2    7.16    1.24
   6 -15  -2    7.61    1.26
  -6 -15   2    8.40    1.12
   6 -15  -2    6.60    1.04
   6  15  -1   64.96    3.16
   6  15  -1   63.33    3.36
  -6 -15   1   67.41    3.23
   6 -15  -1   61.23    3.03
   6 -15  -1   65.33    3.51
   6  15   0   42.05    2.24
   6  15   0   38.66    2.39
  -6 -15   0   44.81    2.45
   6 -15   0   36.49    2.49
   6  15   1    3.82    0.91
   6  15   1    4.19    0.84
  -6 -15  -1    4.22    0.94
   6 -15   1    3.53    0.89
   6  15   2    9.45    1.22
   6  15   2   12.52    1.46
  -6 -15  -2   11.55    1.44
   6 -15   2   10.36    1.51
   6 -15   3    1.76    0.81
  -6 -15  -3    0.88    0.73
   6 -15   4    7.98    1.45
  -6 -15  -4    8.57    1.46
  -6  15  -5    6.54    1.54
   6 -15   5    6.85    1.47
  -6 -15  -5    7.22    1.49
   6 -15   6    2.20    1.10
  -6 -15  -6    1.86    1.09
   6 -15   7   10.74    2.05
  -6 -15  -7   12.53    2.14
   6  16  -8    0.89    1.06
   6  16  -7   -0.30    1.02
   6 -16  -7    1.34    1.11
   6  16  -6   12.69    2.08
   6 -16  -6   16.68    2.25
   6  16  -5   -0.15    0.78
   6 -16  -5   -1.08    0.64
   6  16  -4   16.93    1.99
   6 -16  -4   16.28    2.00
   6  16  -3   -0.19    0.59
   6 -16  -3    0.12    0.56
   6 -16  -3    0.24    0.66
   6  16  -2    0.70    0.82
   6 -16  -2    2.50    0.76
  -6 -16   2    1.75    0.65
   6 -16  -2    2.25    0.87
   6  16  -1    0.18    0.67
   6 -16  -1    0.71    0.53
   6 -16  -1    2.27    0.86
  -6 -16   1    1.32    0.68
   6  16   0   43.50    2.34
   6  16   0   44.25    2.68
   6 -16   0   46.98    2.83
  -6 -16   0   43.70    2.56
   6  16   1    1.19    0.61
   6  16   1    1.54    0.74
  -6 -16  -1    2.01    0.77
   6 -16   1    1.98    0.82
   6  16   2    2.50    0.80
   6  16   2    3.45    0.88
  -6 -16  -2    4.59    0.99
   6 -16   2    2.76    0.89
  -6 -16  -3    0.65    0.72
   6 -16   3    0.35    0.61
   6 -16   4    0.55    0.72
  -6 -16  -4   -0.38    0.76
   6 -16   5    0.33    0.75
  -6 -16  -5   -0.58    0.78
  -6 -16  -6    7.60    1.66
   6 -16   6    4.99    1.39
   6 -16   7   12.22    2.23
  -6 -16  -7   12.21    3.32
   6  17  -7    0.95    1.08
   6 -17  -7   -0.61    0.90
   6  17  -6    9.13    1.77
   6 -17  -6    9.32    1.73
   6  17  -5    2.67    1.07
   6 -17  -5    0.90    0.96
   6  17  -4    6.83    1.41
   6 -17  -4    5.93    1.36
   6  17  -3  106.66    5.35
   6 -17  -3  114.22    5.48
   6 -17  -3  118.31    5.19
   6  17  -2    0.45    0.72
   6 -17  -2    1.17    0.62
  -6 -17   2    0.99    0.54
   6 -17  -2    0.61    0.77
   6  17  -1   16.77    1.87
   6 -17  -1   20.55    2.16
  -6 -17   1   17.26    1.74
   6 -17  -1   16.45    1.70
   6  17   0   62.03    3.36
   6  17   0   66.06    3.06
   6 -17   0   62.78    3.52
  -6 -17   0   59.14    3.26
   6  17   1   14.21    1.60
   6  17   1   12.78    1.40
   6 -17   1   15.92    1.91
  -6 -17  -1   10.54    1.48
   6 -17   2    0.76    0.68
  -6 -17  -2    1.49    0.74
   6 -17   3   -0.60    0.51
  -6 -17  -3    0.77    0.76
   6 -17   4    8.65    1.60
  -6 -17  -4    8.19    1.53
  -6 -17  -5   -0.95    0.67
   6 -17   5   -0.94    0.58
   6 -17   6    6.00    1.55
  -6 -17  -6    5.52    1.55
   6  18  -7    1.22    1.10
   6 -18  -7    0.27    0.94
   6  18  -6    1.52    1.06
   6 -18  -6    0.08    0.89
   6  18  -5    0.54    0.85
   6 -18  -5    1.42    0.88
   6  18  -4   44.11    3.08
   6 -18  -4   47.09    3.17
   6  18  -3    0.81    0.81
   6 -18  -3    0.12    0.60
   6 -18  -3   -0.11    0.66
   6  18  -2   41.85    2.87
   6 -18  -2   44.08    2.98
  -6 -18   2   44.92    2.71
   6 -18  -2   51.16    2.72
   6  18  -1    0.66    0.77
  -6 -18   1    0.61    0.58
   6 -18  -1   -0.79    0.56
   6  18   0    3.72    1.04
  -6 -18   0    2.36    0.86
   6 -18   0    2.63    0.91
   6  18   1    6.97    1.26
  -6 -18  -1    9.36    1.38
   6 -18   1    7.40    1.35
   6 -18   2   22.07    2.39
  -6 -18  -2   22.94    2.21
   6 -18   3   11.80    1.86
  -6 -18  -3   14.97    1.88
   6 -18   4    2.71    1.01
  -6 -18  -4    0.68    0.81
  -6 -18  -5    4.16    1.40
   6 -18   5    5.41    1.44
  -6 -18  -6   12.21    2.11
   6 -18   6   16.35    2.47
   6  19  -7    1.02    1.08
   6  19  -6    0.89    1.03
   6 -19  -6   -0.54    0.80
   6  19  -5   33.10    3.11
   6 -19  -5   31.38    3.09
   6  19  -4    3.05    1.13
   6 -19  -4    3.64    1.05
   6 -19  -4    3.49    1.20
   6  19  -3    4.41    1.25
   6 -19  -3    5.14    1.29
   6 -19  -3    4.79    1.10
   6  19  -2    5.02    1.24
   6 -19  -2    2.55    1.03
   6 -19  -2    2.72    0.80
   6  19  -1   28.49    2.54
   6 -19  -1   25.70    2.58
  -6 -19   1   24.33    2.21
   6  19   0    7.32    1.37
   6 -19   0    7.70    1.39
  -6 -19   0    8.58    1.39
   6  19   1    7.00    1.34
   6 -19   1    6.71    1.34
  -6 -19  -1    6.45    1.27
   6 -19   2    7.77    1.50
  -6 -19  -2    9.17    1.47
  -6 -19  -3    2.12    1.02
   6 -19   3    1.99    0.99
   6 -19   4    1.01    0.91
  -6 -19  -4   -0.24    0.77
  -6 -19  -5    1.97    1.13
   6 -19   5    3.01    1.20
  -6 -19  -6    5.17    1.54
   6 -19   6   10.53    2.02
   6  20  -6   -1.17    0.82
   6 -20  -6    3.61    1.40
   6  20  -5    7.37    1.59
   6 -20  -5    7.45    1.68
   6  20  -4   23.20    2.60
   6 -20  -4   20.28    2.52
   6 -20  -4   20.46    2.25
   6  20  -3    0.95    0.91
   6 -20  -3    4.17    1.26
   6 -20  -3    0.38    0.60
   6  20  -2   10.44    1.68
   6 -20  -2   11.96    1.85
   6  20  -1   28.37    2.63
  -6 -20   1   29.50    2.21
   6 -20  -1   32.24    2.95
   6  20   0    2.74    0.97
  -6 -20   0    2.18    0.95
   6 -20   0    4.82    1.19
   6  20   1   16.29    1.93
   6 -20   1   17.60    2.14
  -6 -20  -1   17.27    1.96
   6 -20   2   -0.10    0.65
  -6 -20  -2    1.15    0.82
   6 -20   3   25.92    2.72
  -6 -20  -3   22.46    2.40
  -6 -20  -4    1.49    0.96
   6 -20   4   -0.08    0.72
  -6 -20  -5   -0.10    0.85
   6 -20   5   -0.22    0.78
   6  21  -6    2.36    1.30
   6 -21  -6    0.58    1.91
   6 -21  -6   -0.67    0.83
   6  21  -5    0.15    0.90
   6 -21  -5    1.38    0.92
   6 -21  -5    1.72    1.14
   6  21  -4    2.70    1.10
   6 -21  -4    1.29    1.08
   6 -21  -4    2.16    0.94
   6  21  -3   65.45    4.00
   6 -21  -3   69.13    4.13
   6 -21  -3   60.12    4.70
   6  21  -2    1.00    0.94
   6 -21  -2    1.71    1.01
   6  21  -1    1.68    0.95
  -6 -21   1    4.31    1.08
   6 -21  -1    2.88    1.02
   6  21   0   -0.19    0.88
   6 -21   0    1.71    0.91
  -6 -21   0    0.50    0.79
   6  21   1   30.54    2.74
   6 -21   1   33.75    3.08
  -6 -21  -1   31.49    2.77
  -6 -21  -2    2.80    0.99
   6 -21   2    2.05    0.98
  -6 -21  -3    0.55    0.86
   6 -21   3    2.71    1.22
   6 -21   4    1.05    0.98
  -6 -21  -4    2.13    1.15
   6 -21   5   -0.87    0.79
  -6 -21  -5    2.59    1.23
   6  22  -6    2.01    1.26
   6 -22  -6    5.92    1.54
   6  22  -5    0.54    0.95
   6 -22  -5    3.16    1.12
   6 -22  -5    1.31    1.14
   6  22  -4    6.47    1.65
   6 -22  -4    5.03    1.26
   6 -22  -4    8.46    1.76
   6  22  -3   -0.86    0.79
   6 -22  -3    0.09    0.80
   6  22  -2    7.44    1.59
   6 -22  -2   10.06    1.79
   6  22  -1    0.62    0.92
   6 -22  -1    0.39    0.75
   6  22   0   34.44    3.11
   6 -22   0   34.13    3.18
  -6 -22   0   36.30    2.74
   6  22   1    2.27    1.03
  -6 -22  -1    1.51    0.97
   6 -22   1    1.80    1.09
  -6 -22  -2    0.07    0.84
   6 -22   2   -0.34    0.70
  -6 -22  -3    1.14    0.98
   6 -22   3    2.46    1.23
   6 -22   4    3.00    1.31
  -6 -22  -4    3.56    1.34
  -6 -22  -5    0.76    1.03
   6  23  -5    0.70    1.04
   6 -23  -5    0.85    0.97
   6  23  -4   -0.12    1.02
   6 -23  -4    0.85    1.11
   6  23  -3   18.64    2.41
   6 -23  -3   18.34    2.49
   6  23  -2    0.94    1.07
   6 -23  -2    1.17    0.97
   6  23  -1    0.56    0.93
   6 -23  -1    0.49    0.74
   6  23   0   34.10    3.03
  -6 -23   0   28.45    2.79
   6 -23   0   27.34    2.92
  -6 -23  -1    0.45    0.80
   6 -23   1    0.77    0.85
   6 -23   2   -1.45    0.68
  -6 -23  -2    0.32    0.89
   6 -23   3    3.89    1.39
  -6 -23  -3    4.07    1.38
  -6 -23  -4    3.02    1.26
   6 -23   4    3.41    1.34
   6  24  -5    0.61    1.24
   6 -24  -5    1.55    0.96
   6  24  -4    5.26    1.63
   6 -24  -4    6.09    1.72
   6  24  -3   -0.20    0.90
   6 -24  -3    0.03    0.87
   6  24  -2   28.12    2.89
   6 -24  -2   19.93    2.64
   6  24  -1   -0.99    0.87
   6 -24  -1    0.18    0.81
   6  24   0   -0.02    0.88
  -6 -24   0    3.03    1.51
   6 -24   0    1.97    1.03
   6 -24   1    0.50    0.87
  -6 -24  -1    0.45    0.84
  -6 -24  -2    2.08    1.19
   6 -24   2    4.12    1.38
   6 -24   3    2.25    1.24
  -6 -24  -3    2.29    1.15
  -6 -24  -4   -1.66    0.69
   6  25  -4   -0.95    0.87
   6  25  -3    0.41    1.02
   6 -25  -3    2.25    1.22
   6  25  -2    4.57    1.53
   6 -25  -2    1.89    1.09
   6  25  -1   21.91    2.67
   6 -25  -1   22.43    2.77
   6  25   0   -0.28    0.87
   6 -25   0    0.72    0.94
  -6 -25  -1    0.26    0.97
   6 -25   1    1.36    1.05
  -6 -25  -2    1.64    1.04
   6 -25   2    2.59    1.35
  -6 -25  -3    0.32    0.98
   6  26  -3    2.58    1.48
   6  26  -2    0.71    1.18
   6 -26  -2    2.34    1.42
   6  26  -1    2.15    1.20
   6 -26  -1    3.65    1.40
   6  26   0   -0.41    0.81
   6 -26   0    0.52    0.97
  -6 -26  -1    5.29    1.59
   6 -26   1    7.13    1.74
  -6 -26  -2    0.66    1.07
  -6 -26  -3    5.02    1.83
   6  27  -2    6.34    1.77
   6  27  -1   -2.15    1.00
  -6 -27  -2    1.08    1.12
   7   0  -8    0.94    0.87
   7   0  -7   -0.35    0.56
   7   0  -6   61.85    3.27
   7   0  -6   58.14    2.99
   7   0  -5    0.07    0.54
   7   0  -5    0.23    0.42
   7   0  -4   54.45    2.43
   7   0  -4   54.41    2.73
   7   0  -3    0.02    0.23
   7   0  -3    0.86    0.44
   7   0  -2   23.81    1.46
   7   0  -2   25.02    1.08
   7   0  -1   -0.07    0.13
   7   0  -1    0.44    0.36
   7   0   0   54.64    2.19
   7   0   0   56.44    2.52
   7   0   1   -0.60    0.28
   7   0   1   -0.67    0.21
   7   0   2    1.56    0.46
   7   0   2    1.25    0.47
   7   0   3    0.66    0.48
   7   0   3   -0.24    0.34
   7   0   4    2.90    0.71
   7   0   4    1.64    0.64
   7   0   5    0.22    0.53
   7   0   5    0.13    0.53
   7   0   6    1.20    0.73
   7   0   7   -0.49    0.68
   7   0   8   -0.23    0.74
   7  -1  -9    3.45    1.26
   7   1  -8    1.38    0.84
   7   1  -8    0.82    0.83
   7  -1  -8    0.93    0.82
   7  -1  -7    3.01    0.93
   7   1  -6   -0.47    0.54
   7  -1  -6   -0.25    0.45
   7  -1  -6    0.21    0.61
   7   1  -5   20.93    1.77
   7   1  -5   16.20    1.25
   7  -1  -5   18.86    1.38
   7  -1  -5   17.72    1.72
   7   1  -4   99.84    3.87
   7   1  -4   99.24    4.20
   7  -1  -4   96.10    3.93
   7  -1  -4   95.67    4.22
   7   1  -3   69.48    3.11
   7   1  -3   71.97    2.73
   7  -1  -3   69.69    2.81
   7  -1  -3   67.43    3.13
   7   1  -2    0.52    0.40
   7   1  -2    0.19    0.14
   7  -1  -2    0.31    0.21
   7  -1  -2    0.09    0.32
   7   1  -1  114.45    3.91
   7   1  -1  111.26    4.48
   7  -1  -1  114.34    4.11
   7   1   0   31.88    1.35
   7  -1   0   29.72    1.64
   7  -1   0   29.31    1.39
   7   1   1  266.70    9.51
   7   1   1  263.31    9.30
   7  -1   1  258.93    9.33
   7  -1   1  256.11    9.45
   7   1   2    0.82    0.37
   7   1   2    0.21    0.36
   7  -1   2    0.66    0.35
   7  -1   2    0.32    0.40
   7   1   3    5.20    0.85
   7   1   3    3.64    0.72
   7  -1   3    6.22    0.93
   7  -1   3    3.77    0.71
   7   1   4   12.20    1.37
   7   1   4   12.96    1.47
   7  -1   4   11.16    1.40
   7  -1   4   12.49    1.30
   7   1   5   53.08    3.13
   7   1   5   54.39    2.88
   7  -1   5   51.73    2.78
   7  -1   5   52.74    3.09
   7   1   6    3.96    1.08
   7  -1   6    2.76    0.90
   7   1   7   44.06    3.19
   7  -1   7   45.73    3.27
   7   1   8    0.84    1.02
   7  -1   8    0.72    0.84
   7  -2  -9    0.57    0.90
   7   2  -8    3.18    1.04
   7  -2  -8    3.72    1.21
   7   2  -7   -0.18    0.58
   7  -2  -7    0.48    0.68
   7   2  -6    3.08    0.84
   7  -2  -6    3.05    0.78
   7  -2  -6    2.94    0.91
   7   2  -5    8.94    1.15
   7   2  -5    8.74    0.99
   7  -2  -5    8.88    1.23
   7  -2  -5    8.53    1.05
  -7  -2   5    7.68    0.97
   7   2  -4   72.84    3.35
   7   2  -4   76.48    3.05
   7  -2  -4   73.18    3.17
   7  -2  -4   70.88    3.42
   7   2  -3   80.17    3.41
   7   2  -3   76.72    2.96
   7  -2  -3   79.88    3.18
   7  -2  -3   78.75    3.48
   7   2  -2    9.87    0.99
   7  -2  -2   10.09    0.71
   7  -2  -2    8.73    0.98
   7   2  -1  340.83   12.16
   7  -2  -1  345.06   12.18
   7  -2  -1  339.44   11.82
   7   2   0   24.44    1.46
   7   2   0   25.60    1.15
   7  -2   0   25.47    1.49
   7  -2   0   27.39    1.31
   7   2   1   56.53    2.61
   7   2   1   59.01    2.43
   7  -2   1   55.18    2.47
   7  -2   1   55.47    2.53
   7   2   2   24.02    1.52
   7   2   2   23.08    1.44
   7  -2   2   24.13    1.49
   7  -2   2   24.92    1.47
   7   2   3   68.57    3.26
   7   2   3   61.36    3.17
   7  -2   3   74.72    3.19
   7  -2   3   75.07    3.34
   7   2   4   13.97    1.49
   7   2   4   13.39    1.52
   7  -2   4   15.80    1.44
   7  -2   4   13.90    1.53
   7   2   5    8.33    1.33
   7   2   5    8.25    1.20
   7  -2   5    7.07    1.07
   7  -2   5    6.60    1.19
   7   2   6   36.43    2.74
   7  -2   6   41.76    2.84
   7   2   7    7.16    1.50
   7  -2   7    7.93    1.56
   7   2   8    7.82    1.65
   7  -2   8    9.28    1.81
   7  -3  -9    1.52    1.09
   7   3  -8    0.19    0.75
   7  -3  -8    1.31    0.91
   7   3  -7   54.57    3.22
   7   3  -7   63.73    3.52
   7  -3  -7   60.43    3.47
   7   3  -6   14.19    1.53
   7  -3  -6   15.54    1.60
   7  -3  -6   14.15    1.66
   7   3  -5   92.66    4.12
   7  -3  -5   91.34    4.27
  -7  -3   5   93.70    3.93
   7  -3  -5   92.90    4.06
   7   3  -4    0.81    0.50
  -7  -3   4    0.46    0.32
   7  -3  -4    0.10    0.47
   7  -3  -4   -0.07    0.39
   7   3  -3    2.50    0.60
  -7  -3   3    3.49    0.42
   7  -3  -3    2.98    0.52
   7  -3  -3    2.96    0.64
   7   3  -2   88.19    3.70
   7  -3  -2   91.69    3.51
   7   3  -1   49.32    2.29
   7  -3  -1   48.30    2.06
   7  -3  -1   48.15    2.27
   7   3   0   95.72    3.58
   7   3   0  101.11    4.01
   7  -3   0   98.24    3.95
   7  -3   0   98.24    3.80
   7   3   1    0.03    0.09
   7   3   1    0.79    0.31
   7  -3   1    0.40    0.38
   7  -3   1    0.71    0.37
   7   3   2  120.51    5.06
   7   3   2  127.59    5.01
   7  -3   2  128.25    5.07
   7  -3   2  128.91    4.97
   7   3   3   45.65    2.39
   7   3   3   42.83    2.38
   7  -3   3   43.12    2.42
   7  -3   3   43.68    2.22
   7   3   4    1.85    0.67
   7   3   4    1.29    0.62
   7  -3   4    1.16    0.63
   7  -3   4    1.46    0.57
   7   3   5    8.41    1.37
   7   3   5    9.94    1.33
   7  -3   5   10.08    1.20
   7  -3   5    8.96    1.37
   7   3   6    0.48    0.73
   7  -3   6    0.99    0.76
   7   3   7    0.88    0.77
   7  -3   7    1.30    0.87
   7   3   8    1.40    1.00
   7  -3   8    0.78    0.84
   7  -4  -9    1.20    0.98
   7   4  -8    3.66    1.15
   7  -4  -8    4.72    1.30
   7   4  -7    0.36    0.66
   7  -4  -7    0.94    0.73
   7  -4  -7   -0.09    0.57
   7   4  -6    4.40    0.95
   7   4  -6    3.68    0.97
   7  -4  -6    4.51    0.98
   7  -4  -6    3.35    0.96
   7   4  -5    0.45    0.52
   7  -4  -5    1.02    0.61
  -7  -4   5    0.88    0.70
   7  -4  -5    1.26    0.64
   7   4  -4   15.20    1.35
   7  -4  -4   14.75    1.16
  -7  -4   4   11.11    1.01
   7  -4  -4   16.22    1.53
   7   4  -3   56.35    2.68
  -7  -4   3   61.98    2.35
   7  -4  -3   57.33    2.59
   7   4  -2  124.37    4.84
  -7  -4   2  120.66    4.23
   7  -4  -2  122.02    4.68
   7  -4  -2  127.80    4.95
   7   4  -1   29.24    1.64
   7  -4  -1   30.08    1.64
   7  -4  -1   31.76    1.53
   7   4   0   39.78    2.03
   7  -4   0   39.43    1.99
  -7  -4   0   42.82    1.71
   7  -4   0   40.86    1.93
   7   4   1   42.59    1.88
   7   4   1   41.68    1.75
   7   4   1   40.11    2.05
   7  -4   1   35.53    1.90
   7  -4   1   40.39    2.00
   7   4   2   77.75    3.32
   7   4   2   75.23    3.39
   7  -4   2   73.81    3.36
   7  -4   2   76.56    3.23
   7   4   3   43.64    2.34
   7   4   3   39.14    2.26
   7  -4   3   39.04    2.29
   7  -4   3   43.60    2.13
   7   4   4   98.97    4.53
   7   4   4   96.83    4.43
   7  -4   4   99.18    4.16
   7  -4   4   98.41    4.57
   7   4   5   -0.08    0.60
   7   4   5    0.86    0.66
   7  -4   5    0.39    0.48
   7  -4   5    1.28    0.69
   7   4   6  112.51    5.47
   7  -4   6  111.67    5.51
   7   4   7    5.52    1.33
   7  -4   7    4.64    1.28
   7   4   8    4.50    1.39
   7  -4   8    5.37    1.45
  -7  -4  -8    3.64    1.22
   7  -5  -9    2.00    1.10
   7   5  -8    1.70    0.99
   7  -5  -8    4.44    1.23
   7   5  -7    0.81    0.67
   7  -5  -7    1.99    0.89
   7  -5  -7    2.22    0.90
   7   5  -6    0.61    0.63
   7   5  -6    0.05    0.54
   7  -5  -6   -0.30    0.56
   7  -5  -6    0.53    0.62
   7   5  -5   33.89    2.25
   7   5  -5   35.93    2.05
   7  -5  -5   31.34    2.04
   7  -5  -5   32.49    2.19
   7   5  -4  102.53    4.38
   7   5  -4  113.83    4.78
   7  -5  -4  107.82    4.50
   7   5  -3   49.19    2.47
   7  -5  -3   56.98    2.52
  -7  -5   3   54.51    2.17
   7   5  -2    7.87    0.92
   7  -5  -2    9.96    1.03
  -7  -5   2    8.47    0.46
   7  -5  -2    8.07    0.83
   7   5  -1   23.72    1.43
   7   5  -1   22.84    1.40
   7  -5  -1   22.81    1.43
   7  -5  -1   26.68    1.40
  -7  -5   1   23.58    0.98
   7   5   0  747.37   26.76
  -7  -5   0  782.98   26.39
   7  -5   0  791.80   26.72
   7  -5   0  780.99   26.71
   7   5   1  133.16    4.83
   7   5   1  130.52    5.21
   7  -5   1  127.37    5.12
   7   5   2   16.13    1.21
   7  -5   2   16.35    1.26
  -7  -5  -2   14.63    1.15
   7  -5   2   16.62    1.14
   7   5   3   26.06    1.76
   7   5   3   24.29    1.69
   7  -5   3   27.94    1.56
   7  -5   3   26.48    1.78
   7   5   4   17.10    1.69
   7   5   4   17.75    1.69
   7  -5   4   16.63    1.75
   7  -5   4   16.90    1.29
   7   5   5   33.60    2.36
   7   5   5   32.28    2.30
   7  -5   5   31.94    1.96
   7  -5   5   35.11    2.42
   7   5   6   14.75    1.92
   7  -5   6   14.62    1.91
   7   5   7   21.01    2.42
   7  -5   8    0.87    0.89
  -7  -5  -8    0.38    0.86
   7  -6  -9   -0.06    0.95
   7   6  -8    1.49    0.95
   7  -6  -8    0.49    0.91
   7   6  -7    0.42    0.67
   7  -6  -7   -0.62    0.50
   7  -6  -7   -0.07    0.62
   7   6  -6   83.85    4.23
   7  -6  -6   88.82    4.36
   7  -6  -6   82.59    4.13
   7   6  -5    9.66    1.32
   7   6  -5    9.75    1.12
   7  -6  -5    8.91    1.21
   7  -6  -5    8.69    1.27
   7   6  -4   96.25    4.01
   7   6  -4  102.29    4.39
   7  -6  -4   88.43    4.07
   7   6  -3   12.60    1.13
   7  -6  -3   11.24    1.10
   7  -6  -3    9.78    1.15
  -7  -6   3   11.28    0.74
   7   6  -2  140.20    5.44
   7   6  -2  141.90    5.62
   7  -6  -2  144.05    5.47
  -7  -6   2  142.21    4.99
   7  -6  -2  137.58    5.57
   7   6  -1   28.23    1.63
   7   6  -1   29.36    1.64
  -7  -6   1   29.74    1.27
   7  -6  -1   31.81    1.67
   7  -6  -1   30.38    1.68
   7   6   0    3.75    0.67
   7  -6   0    3.86    0.65
   7  -6   0    5.05    0.70
  -7  -6   0    4.74    0.54
   7   6   1   15.46    1.34
   7   6   1   14.85    0.95
   7  -6   1   15.28    1.17
   7   6   2  131.33    4.67
   7   6   2  132.49    5.29
   7  -6   2  122.37    4.95
  -7  -6  -2  133.39    5.16
   7  -6   2  123.76    5.26
   7   6   3   15.72    1.52
   7  -6   3   16.70    1.17
   7  -6   3   18.02    1.68
  -7  -6  -3   17.83    1.58
   7   6   4    1.67    0.74
  -7  -6  -4    3.27    0.93
   7  -6   4    3.51    0.92
   7  -6   4    2.74    0.65
   7   6   5   -0.54    0.49
   7  -6   5    0.05    0.53
  -7  -6  -5    0.36    0.68
   7  -6   6   12.18    1.80
  -7  -6  -6   11.63    1.72
   7  -6   7    2.61    1.08
  -7  -6  -7    2.95    1.14
   7  -6   8    1.38    1.20
  -7  -6  -8    3.48    1.34
   7  -7  -9    1.41    1.06
   7   7  -8    0.84    0.85
   7  -7  -8    0.28    0.84
   7   7  -7    8.08    1.50
   7  -7  -7    8.99    1.62
   7  -7  -7    8.45    1.43
   7   7  -6    2.61    0.89
   7  -7  -6    3.01    0.92
   7  -7  -6    1.78    0.80
   7   7  -5    2.24    0.85
   7   7  -5    3.87    0.75
   7  -7  -5    1.67    0.79
   7  -7  -5    2.64    0.82
   7   7  -4    5.10    0.81
   7   7  -4    5.66    1.02
   7  -7  -4    4.93    0.87
   7   7  -3   47.71    2.31
  -7  -7   3   51.46    2.09
   7  -7  -3   47.04    2.41
   7  -7  -3   45.57    2.54
   7   7  -2   19.93    1.31
   7   7  -2   21.48    1.49
   7  -7  -2   18.89    1.31
  -7  -7   2   20.35    0.99
   7  -7  -2   19.70    1.38
   7   7  -1   -0.01    0.39
   7   7  -1   -0.13    0.36
   7  -7  -1    0.37    0.40
  -7  -7   1    0.16    0.21
   7  -7  -1    0.37    0.38
   7   7   0  457.07   16.03
   7   7   0  454.15   16.14
  -7  -7   0  471.60   15.84
   7  -7   0  458.97   16.18
   7  -7   0  443.15   16.03
   7   7   1    0.16    0.36
   7   7   1    0.13    0.28
  -7  -7  -1   -0.33    0.26
   7  -7   1    0.18    0.35
   7  -7   1   -0.30    0.26
   7   7   2   48.96    2.07
   7   7   2   49.13    2.58
   7  -7   2   49.75    2.58
  -7  -7  -2   49.41    2.44
   7   7   3   -0.18    0.17
  -7  -7  -3    0.86    0.58
   7  -7   3    0.49    0.53
   7  -7   3    0.25    0.35
   7   7   4   10.23    1.34
   7  -7   4    6.60    1.16
  -7  -7  -4    7.52    1.21
   7   7   5   88.30    4.50
  -7  -7  -5   96.97    4.66
   7  -7   5   91.31    4.65
  -7  -7  -6    1.37    0.99
   7  -7   6    2.45    0.94
  -7  -7  -7   16.43    2.23
   7  -7   7   17.25    2.32
  -7  -7  -8   -0.14    0.89
   7  -7   8    0.40    0.93
   7  -8  -9    0.60    1.00
   7   8  -8    4.31    1.26
   7  -8  -8    5.28    1.36
   7   8  -7    8.77    1.54
   7  -8  -7    7.02    1.34
   7  -8  -7   10.49    1.75
   7   8  -6   19.51    2.11
   7  -8  -6   24.52    2.21
   7  -8  -6   18.88    2.05
   7   8  -5   11.53    1.53
   7  -8  -5   11.01    1.44
   7  -8  -5   11.91    1.46
   7   8  -4   82.21    3.46
   7  -8  -4   77.74    3.68
   7   8  -3   17.08    1.23
   7  -8  -3   18.81    1.41
   7  -8  -3   19.31    1.46
  -7  -8   3   17.46    1.05
   7   8  -2   32.14    1.62
   7   8  -2   26.38    1.71
   7  -8  -2   24.49    1.64
  -7  -8   2   25.27    1.27
   7  -8  -2   25.83    1.64
   7   8  -1   58.52    2.79
   7   8  -1   59.64    2.72
  -7  -8   1   59.44    2.45
   7  -8  -1   63.36    2.79
   7  -8  -1   59.54    2.84
   7   8   0   42.77    2.19
   7   8   0   45.92    2.28
   7  -8   0   45.98    2.33
   7  -8   0   45.36    2.20
  -7  -8   0   46.98    2.06
   7   8   1    5.94    0.87
  -7  -8  -1    5.35    0.73
   7  -8   1    3.78    0.74
   7   8   2   11.84    1.29
   7   8   2   13.17    0.89
   7  -8   2   12.31    1.37
  -7  -8  -2   12.72    1.25
   7  -8   3   43.73    2.52
  -7  -8  -3   39.22    2.33
   7  -8   3   39.98    1.98
   7   8   4    1.74    0.70
   7  -8   4    3.56    0.95
  -7  -8  -4    2.54    0.89
   7   8   5    0.79    0.72
   7  -8   5    0.56    0.66
  -7  -8  -5    0.41    0.64
   7  -8   6   29.96    2.81
  -7  -8  -6   31.98    2.88
   7  -8   7    1.70    1.11
  -7  -8  -7    2.25    1.12
  -7  -8  -8    4.84    1.50
   7  -8   8    1.99    1.14
   7  -9  -9    0.57    1.02
   7   9  -8   -0.48    0.79
   7  -9  -8   -0.08    0.88
   7  -9  -8   -0.55    0.91
   7   9  -7   25.82    2.63
   7  -9  -7   31.40    2.90
   7  -9  -7   28.49    2.70
   7   9  -6    0.36    0.66
   7  -9  -6    0.94    0.79
   7  -9  -6    0.35    0.55
   7   9  -5   63.21    3.47
   7  -9  -5   64.35    3.36
   7  -9  -5   61.82    3.40
   7   9  -4    3.38    0.86
   7   9  -4    4.18    0.72
   7  -9  -4    2.89    0.77
   7  -9  -4    3.96    0.92
   7   9  -3    0.87    0.45
   7   9  -3   -0.06    0.24
  -7  -9   3    1.55    0.40
   7  -9  -3   -0.51    0.41
   7  -9  -3   -0.17    0.39
   7   9  -2   28.55    1.85
   7   9  -2   30.52    1.67
   7  -9  -2   29.16    1.82
  -7  -9   2   30.28    1.48
   7  -9  -2   29.74    1.84
   7   9  -1   23.32    1.45
   7   9  -1   24.36    1.56
   7  -9  -1   24.45    1.59
  -7  -9   1   21.50    1.24
   7  -9  -1   22.28    1.47
   7   9   0    5.54    0.82
   7   9   0    7.56    0.88
   7  -9   0    6.14    0.79
   7  -9   0    5.34    0.83
   7   9   1    3.94    0.65
   7   9   1    3.82    0.77
   7  -9   1    1.91    0.66
   7  -9   1    0.96    0.43
  -7  -9  -1    3.26    0.61
   7   9   2    6.32    0.70
   7   9   2    6.99    0.99
  -7  -9  -2    4.28    0.78
   7  -9   2    6.83    1.04
   7  -9   3   47.31    2.86
  -7  -9  -3   56.48    2.84
   7   9   4    3.20    0.88
  -7  -9  -4    6.32    1.18
   7  -9   4    5.70    1.08
   7   9   5    8.71    1.43
  -7  -9  -5   12.05    1.66
   7  -9   5    9.46    1.49
  -7  -9  -6   -0.05    0.75
   7  -9   6    0.64    0.71
   7  -9   7    7.67    1.67
  -7  -9  -7    6.80    1.55
  -7  -9  -8    0.08    0.97
   7  -9   8    0.08    0.90
   7 -10  -9   -0.14    0.83
   7  10  -8    2.22    1.10
   7 -10  -8    5.22    1.47
   7 -10  -8    2.85    1.11
   7  10  -7    2.01    0.99
   7 -10  -7    2.83    0.96
   7 -10  -7    2.41    1.07
   7  10  -6   21.69    2.29
   7 -10  -6   23.94    2.29
   7 -10  -6   25.07    2.45
   7  10  -5    1.22    0.77
   7 -10  -5    1.22    0.72
   7 -10  -5    0.91    0.70
   7  10  -4   22.96    2.11
   7 -10  -4   26.24    1.91
   7 -10  -4   21.67    1.99
   7  10  -3    0.41    0.36
   7  10  -3    1.32    0.49
   7 -10  -3    1.34    0.63
  -7 -10   3    0.16    0.24
   7 -10  -3    1.60    0.66
   7  10  -2   10.90    1.05
   7  10  -2   10.30    1.24
   7 -10  -2    9.29    1.11
  -7 -10   2   10.70    0.82
   7 -10  -2    9.70    1.17
   7  10  -1   44.34    2.15
   7  10  -1   40.21    2.25
   7 -10  -1   43.60    2.37
   7 -10  -1   40.55    2.14
  -7 -10   1   39.97    1.96
   7  10   0   73.98    3.18
   7  10   0   70.74    3.16
  -7 -10   0   61.59    2.92
   7 -10   0   68.98    3.03
   7 -10   0   72.71    3.32
   7  10   1   21.51    1.48
   7  10   1   21.57    1.34
   7 -10   1   15.35    1.15
  -7 -10  -1   18.93    1.35
   7 -10   1   18.04    1.68
   7  10   2   22.05    1.65
  -7 -10  -2   23.38    1.65
   7 -10   2   23.98    1.82
   7  10   3   36.88    2.31
  -7 -10  -3   37.05    2.30
   7  10   4   10.19    1.41
   7 -10   4   10.43    1.48
  -7 -10  -4   15.52    1.74
  -7 -10  -5    7.45    1.39
   7 -10   5    6.78    1.32
  -7 -10  -6   63.76    3.87
   7 -10   6   61.79    3.95
   7 -10   7    6.24    1.57
  -7 -10  -7    6.64    1.56
   7  11  -8   13.54    2.15
   7 -11  -8   14.26    2.22
   7 -11  -8   17.93    2.34
   7  11  -7    5.19    1.37
   7 -11  -7    4.32    1.23
   7 -11  -7    5.51    1.34
   7  11  -6    3.24    1.03
   7 -11  -6    2.60    0.93
   7 -11  -6    3.34    1.08
   7  11  -5   53.23    3.27
   7 -11  -5   51.18    3.12
   7 -11  -5   57.78    3.19
   7  11  -4   10.16    1.43
   7 -11  -4    9.51    1.33
   7 -11  -4    8.17    1.25
   7  11  -3   44.19    2.18
   7 -11  -3   40.11    2.43
   7 -11  -3   48.32    2.66
   7  11  -2   10.05    1.29
   7  11  -2   12.28    1.09
   7 -11  -2   12.99    1.34
   7 -11  -2    8.71    1.18
   7  11  -1    3.58    0.68
   7  11  -1    3.77    0.80
   7 -11  -1    4.43    0.87
   7 -11  -1    5.39    0.83
   7  11   0   73.36    3.30
   7  11   0   77.54    3.35
   7 -11   0   73.39    3.17
   7 -11   0   72.78    3.50
  -7 -11   0   67.45    3.14
   7  11   1   13.41    1.27
   7  11   1   14.94    1.45
  -7 -11  -1   11.92    1.25
   7 -11   1   14.95    1.52
   7 -11   1   15.21    1.10
   7  11   2    0.50    0.47
   7  11   2    1.01    0.63
  -7 -11  -2    0.39    0.52
   7 -11   2    0.90    0.59
   7  11   3    2.74    0.77
  -7 -11  -3    3.15    0.83
   7 -11   3    3.80    0.95
   7  11   4    0.23    0.68
  -7 -11  -4    0.75    0.70
   7 -11   4    0.68    0.59
   7 -11   5   21.45    2.30
  -7 -11  -5   20.61    2.22
  -7 -11  -6    4.21    1.26
   7 -11   6    3.56    1.14
  -7 -11  -7    9.08    1.79
   7 -11   7    9.95    1.87
   7  12  -8    7.20    1.60
   7 -12  -8    8.13    1.68
   7 -12  -8    8.35    1.73
   7  12  -7   -0.16    0.85
   7 -12  -7    0.70    0.86
   7 -12  -7   -0.04    0.72
   7  12  -6   46.66    3.11
   7 -12  -6   47.16    3.07
   7 -12  -6   42.35    2.96
   7  12  -5    6.39    1.27
   7 -12  -5    6.33    1.20
   7 -12  -5    4.44    1.10
   7  12  -4   10.99    1.51
   7 -12  -4   12.25    1.55
   7 -12  -4   12.94    1.53
   7  12  -3   16.78    1.77
   7 -12  -3   16.21    1.65
   7 -12  -3   18.05    1.78
   7  12  -2    1.69    0.75
   7  12  -2    0.70    0.44
  -7 -12   2    0.83    0.42
   7 -12  -2    1.64    0.60
   7 -12  -2    0.39    0.54
   7  12  -1   22.98    1.50
   7  12  -1   22.06    1.65
  -7 -12   1   21.39    1.41
   7 -12  -1   22.25    1.52
   7 -12  -1   22.00    1.70
   7  12   0   16.77    1.54
   7  12   0   16.25    1.46
  -7 -12   0   16.11    1.41
   7 -12   0   14.45    1.56
   7 -12   0   15.81    1.21
   7  12   1    4.60    0.85
   7  12   1    5.68    0.88
   7 -12   1    5.70    0.78
   7 -12   1    7.11    1.13
  -7 -12  -1    6.42    0.93
   7  12   2    0.68    0.57
   7  12   2    1.63    0.59
  -7 -12  -2    0.77    0.60
   7 -12   2    0.41    0.55
   7  12   3    0.15    0.59
  -7 -12  -3    0.39    0.60
   7 -12   3    0.22    0.58
   7  12   4   42.85    2.77
  -7 -12  -4   44.76    2.85
   7 -12   4   43.08    2.86
   7 -12   5    3.41    1.07
  -7 -12  -5    0.63    0.84
  -7 -12  -6   10.57    1.75
   7 -12   6   14.22    2.11
   7 -12   7    1.44    1.13
  -7 -12  -7    1.79    1.10
   7  13  -8   -0.99    0.91
   7 -13  -8    0.37    0.93
   7 -13  -8   -0.16    0.84
   7  13  -7    3.68    1.22
   7 -13  -7    4.46    1.31
   7 -13  -7    2.89    1.19
   7  13  -6    0.83    0.77
   7 -13  -6    0.15    0.67
   7 -13  -6    1.37    0.89
   7  13  -5    5.93    1.27
   7 -13  -5    4.49    1.16
   7 -13  -5    8.77    1.48
   7  13  -4    6.19    1.26
   7 -13  -4    5.11    1.12
   7 -13  -4    3.38    0.98
   7  13  -3   92.31    4.43
   7 -13  -3   91.47    4.27
   7 -13  -3   92.31    4.39
   7  13  -2    0.32    0.62
   7  13  -2   -0.03    0.39
  -7 -13   2   -0.12    0.32
   7 -13  -2   -0.39    0.45
   7 -13  -2    0.27    0.58
   7  13  -1    0.28    0.57
   7  13  -1    0.14    0.42
   7 -13  -1    1.12    0.54
   7 -13  -1    0.45    0.58
  -7 -13   1    1.34    0.53
   7  13   0    0.39    0.46
   7  13   0    0.26    0.51
  -7 -13   0   -0.14    0.42
   7 -13   0    0.12    0.50
   7 -13   0    0.16    0.41
   7  13   1    5.51    0.93
   7  13   1    6.38    0.98
   7 -13   1    5.55    1.12
  -7 -13  -1    5.65    0.92
   7  13   2   24.10    1.83
   7  13   2   26.03    1.69
  -7 -13  -2   26.45    1.93
   7 -13   2   30.86    2.13
   7  13   3   24.39    2.19
  -7 -13  -3   27.24    2.01
   7 -13   3   27.05    2.50
   7  13   4    2.58    0.88
   7 -13   4    1.58    0.76
  -7 -13  -4    3.72    1.05
   7 -13   5   53.49    3.46
  -7 -13  -5   52.21    3.35
  -7 -13  -6    0.24    0.84
   7 -13   6    0.88    0.87
  -7 -13  -7    8.12    1.78
   7 -13   7    6.24    1.64
   7  14  -8    3.23    1.36
   7 -14  -8    0.99    1.10
   7 -14  -8    2.53    1.26
   7  14  -7   24.06    2.74
   7 -14  -7   18.37    2.38
   7 -14  -7   22.51    2.54
   7  14  -6   19.58    2.34
   7 -14  -6   19.47    2.28
   7 -14  -6   22.64    2.41
   7  14  -5   17.84    2.12
   7 -14  -5   13.51    1.77
   7 -14  -5   16.59    1.96
   7  14  -4   31.50    2.43
   7 -14  -4   41.56    2.65
   7 -14  -4   36.28    2.43
   7  14  -3    1.61    0.82
   7 -14  -3    1.48    0.82
   7 -14  -3    0.98    0.67
   7  14  -2   12.53    1.53
   7 -14  -2   11.43    1.32
  -7 -14   2    9.85    1.12
   7 -14  -2    9.26    1.36
   7  14  -1    0.02    0.43
   7  14  -1   -0.37    0.59
   7 -14  -1    0.98    0.67
  -7 -14   1    0.10    0.43
   7 -14  -1    0.25    0.47
   7  14   0   16.60    1.69
   7  14   0   13.56    1.40
   7 -14   0   17.84    1.46
   7 -14   0   13.99    1.67
  -7 -14   0   18.73    1.65
   7  14   1   48.84    2.67
   7  14   1   50.14    2.71
   7 -14   1   48.66    2.93
  -7 -14  -1   52.64    2.76
   7  14   2    6.95    1.04
   7  14   2    5.30    1.00
   7 -14   2    5.58    1.11
  -7 -14  -2    5.00    1.03
   7  14   3   -0.33    0.51
   7 -14   3   -0.35    0.45
  -7 -14  -3    0.96    0.69
  -7 -14  -4   14.93    1.89
   7 -14   4   14.93    1.95
  -7 -14  -5    4.98    1.32
   7 -14   5    3.64    1.15
  -7 -14  -6    9.67    1.80
   7 -14   6   12.61    2.07
   7 -14   7    5.97    1.62
  -7 -14  -7    6.27    1.60
   7  15  -8   -1.10    1.03
   7 -15  -8    1.38    1.02
   7 -15  -8    0.35    1.03
   7  15  -7    8.90    1.82
   7 -15  -7    9.24    1.79
   7 -15  -7    7.78    1.62
   7  15  -6   -1.36    0.77
   7 -15  -6   -0.16    0.65
   7 -15  -6    0.23    0.76
   7  15  -5   59.55    3.68
   7 -15  -5   63.51    3.66
   7 -15  -5   54.59    3.43
   7  15  -4   11.52    1.65
   7 -15  -4   11.42    1.66
   7 -15  -4    9.93    1.43
   7  15  -3   14.11    1.74
   7 -15  -3   13.40    1.74
   7 -15  -3   15.83    1.69
   7  15  -2   65.80    3.47
   7 -15  -2   60.82    3.19
   7 -15  -2   67.23    3.55
   7  15  -1    8.80    1.05
   7  15  -1    7.71    1.22
  -7 -15   1   10.94    1.27
   7 -15  -1   10.70    1.22
   7 -15  -1   10.85    1.51
   7  15   0   12.64    1.50
   7  15   0   10.64    1.20
  -7 -15   0   13.72    1.46
   7 -15   0   10.93    1.49
   7  15   1   89.42    4.11
   7  15   1   84.54    4.06
  -7 -15  -1   96.71    4.21
   7 -15   1   85.75    4.41
   7  15   2    9.15    1.19
   7  15   2    7.97    1.25
   7 -15   2    9.11    1.43
  -7 -15  -2    9.92    1.36
   7  15   3   88.44    4.37
   7 -15   3   86.96    4.53
  -7 -15  -3   86.67    4.36
  -7 -15  -4    6.72    1.36
   7 -15   4    5.14    1.23
   7 -15   5   12.80    1.95
  -7 -15  -5   11.18    1.78
  -7 -15  -6   -1.43    0.72
   7 -15   6    0.15    0.87
   7 -15   7    4.04    1.55
  -7 -15  -7    4.79    1.51
   7  16  -7   -1.06    0.73
   7 -16  -7    0.50    0.78
   7 -16  -7   -0.81    0.77
   7  16  -6    4.23    1.34
   7 -16  -6    5.06    1.37
   7 -16  -6    2.26    1.09
   7  16  -5    3.09    1.11
   7 -16  -5    2.09    0.96
   7 -16  -5    1.89    1.03
   7  16  -4   19.54    2.18
   7 -16  -4   25.44    2.34
   7 -16  -4   16.06    2.03
   7  16  -3   31.18    2.34
   7 -16  -3   29.33    2.10
   7 -16  -3   29.43    2.31
   7  16  -2   27.77    2.16
   7 -16  -2   27.40    1.94
   7 -16  -2   24.02    2.32
   7  16  -1    6.39    1.16
  -7 -16   1    9.21    1.25
   7 -16  -1    8.23    1.09
   7 -16  -1    6.85    1.29
   7  16   0    2.34    0.85
   7  16   0    2.64    0.71
  -7 -16   0    3.35    0.86
   7 -16   0    3.75    0.98
   7  16   1   11.44    1.45
   7  16   1   13.92    1.45
  -7 -16  -1   14.82    1.63
   7 -16   1   13.06    1.71
   7  16   2   27.43    2.03
   7  16   2   31.13    2.61
   7 -16   2   26.49    2.46
  -7 -16  -2   25.30    1.99
   7  16   3    1.08    0.71
   7 -16   3    1.73    0.85
  -7 -16  -3    1.02    0.78
  -7 -16  -4   47.60    3.13
   7 -16   4   47.18    3.22
  -7 -16  -5    5.20    1.35
   7 -16   5    8.60    1.65
   7 -16   6   12.21    2.05
  -7 -16  -6   17.24    2.36
   7  17  -7    2.79    1.36
   7 -17  -7    1.22    1.20
   7 -17  -7    4.27    1.29
   7  17  -6    4.61    1.46
   7 -17  -6    6.38    1.50
   7 -17  -6    8.16    1.62
   7  17  -5   23.49    2.53
   7 -17  -5   24.56    2.53
   7 -17  -5   29.01    2.83
   7  17  -4   79.36    4.51
   7 -17  -4   92.08    4.74
   7 -17  -4   95.66    4.56
   7  17  -3   48.59    3.12
   7 -17  -3   47.37    2.88
   7 -17  -3   50.77    3.16
   7  17  -2    0.28    0.78
   7 -17  -2    1.04    0.73
   7 -17  -2    2.32    0.76
   7  17  -1  106.75    4.92
   7 -17  -1   93.76    4.93
  -7 -17   1  108.60    4.73
   7  17   0   19.09    1.67
   7  17   0   21.32    2.06
  -7 -17   0   23.18    2.00
   7 -17   0   15.80    1.93
   7  17   1   50.07    2.91
   7  17   1   50.94    2.81
  -7 -17  -1   53.95    3.01
   7 -17   1   50.65    3.20
   7  17   2    3.96    0.92
  -7 -17  -2    4.06    1.07
   7 -17   2    4.89    1.14
  -7 -17  -3    0.82    0.73
   7 -17   3    0.86    0.66
   7 -17   4   14.09    2.09
  -7 -17  -4   12.61    1.81
   7 -17   5   10.31    1.83
  -7 -17  -5   10.24    1.82
  -7 -17  -6    3.81    1.33
   7 -17   6    3.08    1.23
   7  18  -7   -0.84    1.01
   7 -18  -7   -0.44    0.91
   7 -18  -7    0.84    1.08
   7  18  -6   25.64    2.85
   7 -18  -6   32.67    3.06
   7 -18  -6   21.13    2.68
   7  18  -5    8.08    1.57
   7 -18  -5    6.34    1.37
   7 -18  -5    7.37    1.54
   7  18  -4    6.45    1.48
   7 -18  -4    9.06    1.47
   7 -18  -4    7.10    1.49
   7  18  -3    0.87    0.94
   7 -18  -3    1.08    0.89
   7 -18  -3    1.48    0.77
   7  18  -2   42.84    2.90
   7 -18  -2   41.34    2.55
   7 -18  -2   41.79    2.91
   7  18  -1   40.72    2.73
   7 -18  -1   41.71    2.92
  -7 -18   1   43.55    2.67
   7  18   0    0.06    0.72
  -7 -18   0   -0.13    0.58
   7 -18   0    1.05    0.71
   7  18   1    0.89    0.61
   7  18   1    1.23    0.84
  -7 -18  -1    1.06    0.77
   7 -18   1    0.41    0.73
   7  18   2   57.30    3.15
   7 -18   2   49.48    3.30
  -7 -18  -2   51.62    3.10
   7 -18   3   14.05    1.97
  -7 -18  -3   12.89    1.77
  -7 -18  -4    1.83    0.98
   7 -18   4    1.44    0.88
   7 -18   5    0.89    0.91
  -7 -18  -5   -1.02    0.68
   7 -18   6    1.67    1.26
  -7 -18  -6    0.66    1.08
   7  19  -7    2.05    1.32
   7 -19  -7    1.12    1.14
   7  19  -6    1.08    1.04
   7 -19  -6    0.75    0.84
   7 -19  -6    0.40    0.82
   7  19  -5   20.25    2.46
   7 -19  -5   20.29    2.45
   7 -19  -5   23.18    2.48
   7  19  -4    1.75    0.96
   7 -19  -4    0.40    0.68
   7 -19  -4    2.09    1.06
   7  19  -3    1.24    0.90
   7 -19  -3    2.36    0.91
   7 -19  -3    4.45    1.21
   7  19  -2    6.46    1.38
   7 -19  -2    9.32    2.03
   7 -19  -2    7.74    1.46
   7  19  -1   54.19    3.33
   7 -19  -1   51.74    3.34
   7  19   0    9.45    1.54
  -7 -19   0    8.70    1.39
   7 -19   0    9.54    1.56
   7  19   1   44.47    2.70
   7  19   1   48.43    2.97
  -7 -19  -1   45.34    2.86
   7 -19   1   47.24    3.17
   7 -19   2    3.07    1.06
  -7 -19  -2    2.46    0.97
  -7 -19  -3    6.75    1.41
   7 -19   3   10.57    1.76
  -7 -19  -4   18.66    2.25
   7 -19   4   18.08    2.39
  -7 -19  -5    8.97    1.75
   7 -19   5    8.08    1.74
  -7 -19  -6   -0.32    1.08
   7  20  -6    4.47    1.53
   7 -20  -6    3.10    1.34
   7 -20  -6    5.13    1.42
   7  20  -5    8.73    1.73
   7 -20  -5    9.91    1.68
   7 -20  -5   10.54    1.93
   7  20  -4   23.82    2.62
   7 -20  -4   28.27    2.65
   7 -20  -4   26.74    2.82
   7  20  -3   20.43    2.37
   7 -20  -3   21.45    2.55
   7 -20  -3   22.33    2.17
   7  20  -2    0.05    0.74
   7 -20  -2   -0.28    0.79
   7  20  -1   -0.23    0.77
   7 -20  -1    0.34    0.77
   7  20   0   -0.57    0.72
  -7 -20   0   -0.68    0.58
   7 -20   0    0.28    0.62
   7  20   1    0.56    0.79
   7 -20   1    0.05    0.73
  -7 -20  -1   -0.49    0.59
   7 -20   2    4.44    1.30
  -7 -20  -2    4.58    1.13
  -7 -20  -3    2.79    0.97
   7 -20   3    1.66    1.08
  -7 -20  -4    2.68    1.09
   7 -20   4    2.82    1.17
  -7 -20  -5    2.90    1.34
   7 -20   5    6.07    1.68
   7  21  -6    0.63    1.09
   7 -21  -6    0.68    0.86
   7  21  -5    7.37    1.65
   7 -21  -5   11.67    1.87
   7 -21  -5   10.42    2.03
   7  21  -4    0.37    1.02
   7 -21  -4    1.32    1.03
   7 -21  -4   -0.41    0.69
   7  21  -3    0.36    0.97
   7 -21  -3    0.67    0.89
   7  21  -2    0.41    0.91
   7 -21  -2    2.00    1.10
   7  21  -1   17.54    2.19
   7 -21  -1   17.37    2.29
   7  21   0    8.77    1.51
  -7 -21   0    9.90    1.58
   7 -21   0   10.49    1.73
   7  21   1    2.48    1.00
  -7 -21  -1    2.70    1.05
   7 -21   1    0.91    0.83
  -7 -21  -2    3.01    1.12
   7 -21   2    3.67    1.21
   7 -21   3   13.67    2.15
  -7 -21  -3   14.18    1.93
   7 -21   4   11.15    2.07
  -7 -21  -4   12.17    1.98
   7 -21   5    1.93    1.21
  -7 -21  -5   -0.70    0.82
   7  22  -5    0.44    0.96
   7 -22  -5    0.14    0.81
   7 -22  -5    0.05    0.98
   7  22  -4   13.83    2.18
   7 -22  -4   15.11    1.95
   7 -22  -4   13.36    2.15
   7  22  -3   -0.84    0.85
   7 -22  -3    0.11    0.82
   7  22  -2   17.10    2.32
   7 -22  -2   18.23    2.42
   7  22  -1    5.42    1.36
   7 -22  -1    6.16    1.53
   7  22   0    3.61    1.22
   7 -22   0    1.10    0.87
   7  22   1    6.02    1.38
  -7 -22  -1    4.98    1.29
   7 -22   1    7.52    1.59
  -7 -22  -2   13.63    1.98
   7 -22   2   12.75    2.00
   7 -22   3   10.95    2.05
  -7 -22  -3    8.16    1.64
   7 -22   4    5.56    1.49
  -7 -22  -4    2.41    1.15
  -7 -22  -5    1.09    1.96
   7  23  -5    2.47    1.29
   7 -23  -5    0.63    0.98
   7  23  -4   12.40    2.18
   7 -23  -4   11.12    2.03
   7  23  -3    7.66    1.76
   7 -23  -3    6.77    1.64
   7  23  -2    2.15    1.15
   7 -23  -2    1.08    0.93
   7  23  -1    0.28    0.89
   7 -23  -1    1.67    1.00
   7  23   0   -0.06    0.82
   7 -23   0   -1.07    0.60
   7  23   1    1.85    0.93
   7 -23   1    0.35    0.79
  -7 -23  -1    1.42    0.88
  -7 -23  -2    2.66    1.12
   7 -23   2    5.32    1.45
  -7 -23  -3    1.73    1.05
   7 -23   3    0.12    0.93
   7 -23   4    3.35    1.67
  -7 -23  -4    0.97    1.05
   7  24  -4    7.44    1.75
   7 -24  -4    6.61    2.60
   7  24  -3    0.93    1.10
   7 -24  -3    0.40    0.96
   7  24  -2    1.32    1.02
   7 -24  -2    0.61    0.89
   7  24  -1    2.61    1.22
   7 -24  -1   -0.12    0.82
   7  24   0    0.48    0.94
   7 -24   0    0.12    0.75
   7 -24   1    9.07    1.84
   7 -24   2    1.94    1.14
  -7 -24  -2    3.76    1.29
   7 -24   3    5.78    1.69
  -7 -24  -3    4.70    1.43
  -7 -24  -4    0.47    1.14
   7  25  -4   -1.23    0.98
   7  25  -3    1.86    1.24
   7 -25  -3    0.77    1.30
   7  25  -2    4.13    1.37
   7 -25  -2    4.50    1.46
   7  25  -1   24.52    2.79
   7 -25  -1   23.54    2.78
   7  25   0    2.21    1.26
   7 -25   0    1.44    1.09
   7 -25   1   15.97    2.37
  -7 -25  -2    2.77    1.25
   7 -25   2    4.13    1.41
  -7 -25  -3    2.40    1.18
   7  26  -3   15.43    2.42
   7  26  -2    0.91    1.15
   7  26  -1   10.35    2.00
   7 -26  -1    4.58    1.75
   7  26   0    3.25    1.46
   7 -26   0    2.14    1.24
   7  27  -1   12.36    2.16
   7  27   0    7.30    1.88
   8   0  -8   80.30    4.38
   8   0  -7   -0.62    0.51
   8   0  -6    8.68    1.32
   8   0  -5   -0.57    0.48
   8   0  -5    0.18    0.63
   8   0  -4   11.34    1.30
   8   0  -4   11.16    0.96
   8   0  -3    0.34    0.46
   8   0  -3    0.25    0.23
   8   0  -2  192.70    7.50
   8   0  -2  205.02    6.95
   8   0  -1    0.04    0.14
   8   0  -1   -0.02    0.30
   8   0   0   25.81    1.56
   8   0   0   26.41    1.25
   8   0   1    0.49    0.43
   8   0   1   -0.39    0.20
   8   0   2   24.70    1.55
   8   0   2   27.03    1.67
   8   0   3   -0.17    0.39
   8   0   3    0.06    0.41
   8   0   4   49.54    2.80
   8   0   4   49.86    2.69
   8   0   5   -0.26    0.48
   8   0   5   -0.16    0.49
   8   0   6   23.79    2.43
   8   0   6   25.74    2.33
   8   0   7   -0.52    0.63
   8   0   8   -0.23    0.77
   8  -1  -9   12.28    1.97
   8   1  -8   11.88    1.73
   8  -1  -8    9.32    1.66
   8   1  -7    9.00    1.38
   8  -1  -7   10.34    1.54
   8   1  -6   -0.33    0.52
   8  -1  -6   -0.13    0.57
   8   1  -5   25.04    1.77
   8  -1  -5   23.73    1.78
   8  -1  -5   24.96    1.59
   8   1  -4   35.44    2.07
   8   1  -4   34.44    1.71
   8  -1  -4   35.72    1.80
   8  -1  -4   35.88    2.11
   8   1  -3   79.48    3.55
   8   1  -3   81.35    3.04
   8  -1  -3   81.01    3.62
   8  -1  -3   81.30    3.15
   8   1  -2   29.14    1.06
   8   1  -2   26.18    1.61
   8  -1  -2   24.22    1.56
   8  -1  -2   27.79    1.25
   8   1  -1   58.02    2.05
   8   1  -1   56.67    2.64
   8  -1  -1   55.67    2.21
   8   1   0  138.43    4.91
   8  -1   0  139.39    5.35
   8  -1   0  130.16    4.97
   8   1   1   30.78    1.60
   8   1   1   36.05    1.89
   8  -1   1   31.26    1.64
   8  -1   1   34.45    1.84
   8   1   2   14.95    1.10
   8   1   2   13.40    1.31
   8  -1   2   14.10    1.30
   8  -1   2   13.08    1.20
   8   1   3  313.26   11.67
   8   1   3  313.97   11.66
   8  -1   3  323.46   11.62
   8  -1   3  315.98   11.72
   8   1   4    6.82    1.04
   8   1   4    5.86    1.03
   8  -1   4    7.67    1.16
   8  -1   4    6.67    1.02
   8   1   5   34.05    2.24
   8   1   5   32.27    2.38
   8  -1   5   32.04    2.10
   8  -1   5   34.92    2.42
   8   1   6    1.60    0.90
   8   1   6    1.03    0.66
   8  -1   6    2.54    0.86
   8  -1   6    1.74    0.83
   8   1   7    2.40    1.04
   8  -1   7    3.02    1.16
   8   1   8    4.38    1.35
   8  -1   8    5.41    1.44
   8  -2  -9    4.95    1.34
   8   2  -8    3.96    1.08
   8  -2  -8    6.09    1.34
   8   2  -7   15.59    1.81
   8  -2  -7   14.31    1.82
   8   2  -6   24.81    1.91
   8  -2  -6   25.03    2.27
   8   2  -5    0.72    0.57
   8  -2  -5    0.79    0.53
   8  -2  -5    0.02    0.52
   8   2  -4    6.99    0.72
   8   2  -4    8.67    1.12
   8  -2  -4    5.94    0.98
   8  -2  -4    7.74    0.86
   8   2  -3   31.55    1.36
   8   2  -3   32.50    1.83
   8  -2  -3   31.46    1.55
   8  -2  -3   34.39    1.94
   8   2  -2    1.35    0.47
   8  -2  -2    0.89    0.38
   8  -2  -2    2.15    0.38
   8   2  -1    0.63    0.42
   8  -2  -1    0.79    0.43
   8  -2  -1    1.12    0.30
   8   2   0    8.15    0.98
   8   2   0   12.36    0.71
   8  -2   0   13.13    0.85
   8  -2   0   12.05    1.15
   8   2   1   30.59    1.52
   8   2   1   28.90    1.72
   8  -2   1   28.46    1.66
   8  -2   1   30.25    1.59
   8   2   2  118.18    4.66
   8   2   2  113.20    4.77
   8  -2   2  118.10    4.72
   8  -2   2  111.33    4.67
   8   2   3   21.68    1.80
   8   2   3   19.89    1.51
   8  -2   3   19.39    1.40
   8  -2   3   18.59    1.46
   8   2   4   56.51    2.92
   8   2   4   51.59    2.93
   8  -2   4   58.96    3.09
   8  -2   4   51.54    2.75
   8   2   5    7.56    1.31
   8   2   5   11.78    1.49
   8  -2   5    7.28    1.27
   8  -2   5    9.93    1.28
   8   2   6   12.88    1.85
   8   2   6   16.50    1.86
   8  -2   6   14.80    1.91
   8  -2   6   13.35    1.60
   8   2   7    0.83    0.87
   8  -2   7    1.42    0.90
   8   2   8    3.23    1.29
   8  -2   8    2.16    1.09
   8  -3  -9    6.58    1.57
   8   3  -8   -0.15    0.60
   8  -3  -8    2.72    1.06
   8   3  -7   70.37    3.72
   8   3  -7   69.10    3.88
   8  -3  -7   71.48    3.94
   8   3  -6   -0.08    0.50
   8  -3  -6    0.57    0.66
   8   3  -5   15.19    1.53
   8  -3  -5   14.15    1.38
   8  -3  -5   12.20    1.50
   8   3  -4   71.04    3.17
   8  -3  -4   62.29    2.92
   8   3  -3    7.52    0.98
   8   3  -3    6.85    0.48
   8  -3  -3    7.81    0.79
   8  -3  -3    6.41    0.92
   8   3  -2   23.07    1.47
   8  -3  -2   23.90    1.25
   8   3  -1  328.08   11.50
   8  -3  -1  316.21   11.48
   8  -3  -1  310.74   11.14
   8   3   0   38.99    2.05
   8   3   0   38.93    1.64
   8  -3   0   40.38    2.05
   8  -3   0   40.47    1.87
   8   3   1   26.11    1.40
   8  -3   1   26.32    1.50
   8  -3   1   25.10    1.52
   8   3   2   35.56    1.95
   8   3   2   34.14    2.06
   8  -3   2   40.66    2.02
   8  -3   2   37.25    2.02
   8   3   3    1.31    0.64
   8   3   3    1.17    0.54
   8  -3   3    0.43    0.47
   8  -3   3    1.18    0.49
   8   3   4   24.41    1.79
   8   3   4   23.05    2.11
   8  -3   4   21.76    2.02
   8  -3   4   24.20    1.64
   8   3   5   70.10    3.76
   8   3   5   72.17    3.64
   8  -3   5   65.61    3.34
   8  -3   5   70.43    3.82
   8   3   6    7.27    1.40
   8   3   6    6.83    1.27
   8  -3   6    8.69    1.23
   8  -3   6    5.41    1.24
   8   3   7    1.78    0.99
   8  -3   7    3.88    1.22
   8   3   8    0.09    0.84
   8  -3   8   -0.63    0.73
   8  -4  -9    2.46    1.14
   8   4  -8   13.20    1.87
   8  -4  -8   17.37    2.22
   8   4  -7    2.10    0.83
   8  -4  -7    3.37    1.03
   8   4  -6    6.52    1.11
   8  -4  -6    6.77    1.12
   8  -4  -6    7.58    1.33
   8   4  -5    6.13    1.01
   8  -4  -5    7.38    1.16
   8  -4  -5    7.73    1.08
   8   4  -4    1.81    0.60
   8  -4  -4    2.19    0.67
   8  -4  -4    1.34    0.49
   8   4  -3   35.62    1.96
   8   4  -3   33.42    1.38
   8  -4  -3   35.54    1.76
   8   4  -2   86.13    3.54
   8  -4  -2   76.21    3.52
   8  -4  -2   80.54    3.28
   8   4  -1   18.98    1.33
   8  -4  -1   19.74    1.34
   8  -4  -1   21.52    1.19
   8   4   0   17.26    1.27
   8  -4   0   18.56    1.27
   8  -4   0   19.04    1.17
  -8  -4   0   19.41    0.97
   8   4   1   46.26    2.50
   8   4   1   52.11    2.32
   8   4   1   56.73    2.24
   8  -4   1   54.00    2.50
   8  -4   1   54.67    2.52
   8   4   2  293.04   10.67
   8   4   2  291.24   10.82
   8  -4   2  298.22   10.66
   8  -4   2  289.58   10.77
   8   4   3   10.11    1.28
   8   4   3   13.92    1.41
   8  -4   3   10.97    1.30
   8  -4   3   12.41    1.21
   8   4   4   50.17    2.91
   8   4   4   53.47    2.93
   8  -4   4   55.84    2.73
   8  -4   4   54.36    3.01
   8   4   5    8.39    1.29
   8   4   5    9.18    1.39
   8  -4   5    7.67    1.08
   8  -4   5    8.03    1.37
   8   4   6    1.68    0.91
   8  -4   6    0.40    0.68
   8   4   7    5.28    1.37
   8  -4   7    5.85    1.40
   8   4   8    1.97    1.22
   8  -4   8    1.41    1.03
  -8  -4  -8    0.64    0.94
   8  -5  -9   27.15    3.04
   8   5  -8    9.89    1.72
   8  -5  -8   13.52    1.93
   8   5  -7   15.68    1.88
   8  -5  -7   16.30    1.99
   8   5  -6    1.71    0.85
   8   5  -6    2.64    0.78
   8  -5  -6    1.54    0.73
   8  -5  -6    1.08    0.77
   8   5  -5   33.31    2.06
   8   5  -5   29.97    2.21
   8  -5  -5   34.72    2.31
   8  -5  -5   37.65    2.14
   8   5  -4    0.85    0.53
   8  -5  -4    0.10    0.41
   8  -5  -4   -0.17    0.25
   8   5  -3   59.81    2.80
   8  -5  -3   63.12    2.75
  -8  -5   3   58.04    2.49
   8   5  -2    6.86    0.89
   8  -5  -2    5.04    0.81
   8  -5  -2    5.70    0.71
   8   5  -1   28.89    1.70
   8  -5  -1   29.72    1.56
  -8  -5   1   28.89    1.12
   8  -5  -1   30.12    1.71
   8   5   0    1.00    0.48
   8   5   0    0.10    0.29
  -8  -5   0    1.18    0.31
   8  -5   0    0.28    0.37
   8  -5   0    2.08    0.52
   8   5   1   56.63    2.79
   8   5   1   59.00    2.41
   8  -5   1   56.20    2.70
   8  -5   1   57.42    2.66
   8   5   2    0.00    0.14
   8   5   2    1.74    0.50
   8   5   2    1.05    0.29
   8  -5   2    0.39    0.39
   8  -5   2    0.64    0.45
   8   5   3   58.87    2.91
   8   5   3   50.91    2.71
   8  -5   3   53.87    2.81
   8  -5   3   47.35    2.48
   8   5   4    4.44    0.94
   8   5   4    3.44    0.88
   8  -5   4    1.52    0.72
   8  -5   4    4.08    0.78
   8   5   5    8.21    1.31
   8   5   5    6.17    1.23
   8  -5   5    6.25    1.27
   8  -5   5    5.73    1.09
   8   5   6    0.94    0.77
   8  -5   6    0.86    0.75
   8   5   7   -0.54    0.67
  -8  -5  -7    0.13    0.83
   8  -5   7   -0.38    0.61
  -8  -5  -8    3.44    1.38
   8  -5   8    5.91    1.51
   8   6  -9    0.73    1.09
   8  -6  -9   -1.32    0.69
   8   6  -8   36.60    3.18
   8  -6  -8   28.92    2.98
   8   6  -7    2.04    0.99
   8  -6  -7    2.13    0.96
   8   6  -6    2.70    0.89
   8  -6  -6    2.40    0.85
   8  -6  -6    2.80    0.87
   8   6  -5    9.36    1.35
   8   6  -5    9.07    1.11
   8  -6  -5   11.92    1.37
   8  -6  -5    8.22    1.27
   8   6  -3   16.48    1.28
   8   6  -3   20.49    1.49
   8  -6  -3   18.95    1.66
   8  -6  -3   16.27    1.24
   8   6  -2    3.51    0.72
   8   6  -2    3.30    0.62
  -8  -6   2    3.45    0.28
   8  -6  -2    4.55    0.69
   8  -6  -2    2.86    0.67
   8   6  -1    0.66    0.46
   8   6  -1    0.65    0.42
  -8  -6   1    0.12    0.17
   8  -6  -1    0.68    0.47
   8  -6  -1    0.00    0.32
   8   6   0   40.45    2.13
   8   6   0   38.33    1.94
  -8  -6   0   37.14    1.71
   8  -6   0   39.95    2.01
   8  -6   0   40.88    2.06
   8   6   1   19.16    1.16
   8   6   1   20.38    1.45
   8  -6   1   21.86    1.39
   8  -6   1   21.38    1.42
   8   6   2    6.80    0.63
   8   6   2    5.01    0.85
   8  -6   2    7.68    1.02
   8  -6   2    6.55    0.86
  -8  -6  -2    9.76    1.04
   8   6   3    0.04    0.30
   8  -6   3    0.45    0.46
  -8  -6  -3    0.47    0.61
   8  -6   3   -0.18    0.47
   8   6   4   18.18    1.81
   8   6   4   18.11    1.86
   8  -6   4   19.90    1.96
  -8  -6  -4   17.73    1.81
   8  -6   4   17.47    1.35
   8   6   5   -0.15    0.56
   8   6   5    0.40    0.58
  -8  -6  -5    0.54    0.74
   8  -6   5    0.78    0.65
   8  -6   6   35.74    2.76
  -8  -6  -7    1.08    1.00
   8  -6   7    1.17    0.88
   8  -6   8   -0.14    0.76
  -8  -6  -8   -1.02    0.80
   8   7  -9   -0.92    0.80
   8  -7  -9   -0.52    0.74
   8   7  -8    6.47    1.42
   8  -7  -8    4.23    1.39
   8   7  -7   28.56    2.66
   8  -7  -7   24.06    2.47
   8   7  -6    0.83    0.72
   8  -7  -6    0.20    0.62
   8  -7  -6   -0.25    0.55
   8   7  -5    1.58    0.79
   8   7  -5    2.03    0.67
   8  -7  -5    3.29    0.94
   8  -7  -5    2.82    0.78
   8   7  -3    1.45    0.54
   8   7  -3    1.90    0.57
   8  -7  -3    1.14    0.50
   8  -7  -3    0.75    0.55
   8   7  -2    1.68    0.57
   8   7  -2    1.03    0.49
  -8  -7   2    1.12    0.23
   8  -7  -2    0.73    0.44
   8  -7  -2    0.92    0.53
   8   7  -1  243.42    8.88
   8   7  -1  244.86    8.85
   8  -7  -1  232.06    8.82
  -8  -7   1  233.51    8.31
   8  -7  -1  238.10    8.81
   8   7   0   60.36    2.89
   8   7   0   62.97    2.75
  -8  -7   0   63.01    2.55
   8  -7   0   59.80    2.84
   8  -7   0   58.51    2.77
   8   7   1  122.15    5.07
  -8  -7  -1  121.22    4.78
   8  -7   1  121.66    4.86
   8  -7   1  125.07    5.07
   8   7   2   41.36    2.41
   8   7   2   46.24    1.95
   8  -7   2   47.36    2.50
   8  -7   2   44.02    2.20
  -8  -7  -2   42.03    2.27
  -8  -7  -3   86.18    3.96
   8  -7   3   83.52    4.06
   8  -7   3   88.38    3.68
   8   7   4   49.54    2.89
  -8  -7  -4   47.21    2.81
   8  -7   4   49.90    2.94
   8   7   5   33.01    2.36
  -8  -7  -5   30.23    2.40
   8  -7   5   32.85    2.46
  -8  -7  -6    6.69    1.39
   8  -7   6    5.98    1.32
  -8  -7  -7    1.00    0.95
   8  -7   7    0.10    0.84
  -8  -7  -8    0.61    1.11
   8  -7   8   -0.22    0.93
   8   8  -9   -0.55    0.79
   8  -8  -9    0.78    0.98
   8   8  -8    7.55    1.55
   8  -8  -8    8.67    1.65
   8   8  -7    3.48    1.11
   8  -8  -7    3.88    1.14
   8  -8  -7    2.38    1.01
   8   8  -6   49.20    3.04
   8  -8  -6   47.47    2.89
   8  -8  -6   41.28    2.85
   8   8  -5    1.71    0.81
   8  -8  -5    1.77    0.74
   8  -8  -5    1.59    0.68
   8   8  -4   14.24    1.34
   8  -8  -4   16.71    1.73
   8  -8  -4   14.22    1.45
   8   8  -3   13.57    1.46
   8   8  -3   14.27    1.28
   8  -8  -3   13.76    1.37
   8  -8  -3   17.17    1.61
   8   8  -2  121.01    4.99
   8   8  -2  114.78    4.73
   8  -8  -2  116.81    4.91
   8  -8  -2  116.60    4.83
  -8  -8   2  118.84    4.30
   8   8  -1    0.24    0.47
   8   8  -1   -0.54    0.36
  -8  -8   1    0.18    0.24
   8  -8  -1   -0.21    0.34
   8  -8  -1    0.39    0.38
   8   8   0    1.54    0.52
   8   8   0    1.43    0.50
   8  -8   0    0.85    0.46
   8  -8   0    1.12    0.48
  -8  -8   0    1.84    0.42
   8   8   1    9.09    1.12
   8  -8   1   10.54    1.21
  -8  -8  -1   10.45    1.00
   8  -8   1   10.70    1.07
   8   8   2  196.68    6.98
   8   8   2  191.26    7.54
  -8  -8  -2  189.32    7.31
   8  -8   2  183.48    7.53
   8  -8   2  190.63    7.13
   8  -8   3   12.50    1.52
  -8  -8  -3   15.27    1.57
   8  -8   3   12.68    1.16
   8   8   4    6.34    1.11
  -8  -8  -4    5.12    1.09
   8  -8   4    4.09    1.00
   8   8   5    8.25    1.39
  -8  -8  -5    7.41    1.38
   8  -8   5    7.77    1.42
   8  -8   6    2.36    1.03
  -8  -8  -6    2.92    1.03
  -8  -8  -7    4.92    1.41
   8  -8   7    4.29    1.32
  -8  -8  -8    0.12    1.11
   8   9  -9    5.75    1.58
   8  -9  -9    3.51    1.32
   8   9  -8   -1.14    0.78
   8  -9  -8   -1.25    0.75
   8   9  -7   13.74    1.95
   8  -9  -7   20.68    2.24
   8  -9  -7   15.74    2.08
   8   9  -6    0.49    0.73
   8  -9  -6    0.65    0.68
   8  -9  -6    0.15    0.58
   8   9  -5   -0.49    0.54
   8  -9  -5    0.07    0.51
   8  -9  -5   -0.29    0.49
   8   9  -4    0.13    0.46
   8   9  -4    0.67    0.51
   8  -9  -4    0.07    0.51
   8  -9  -4    0.27    0.47
   8   9  -3   -0.04    0.42
   8   9  -3    0.46    0.48
   8  -9  -3   -0.24    0.51
   8  -9  -3   -0.59    0.39
   8   9  -2    5.60    0.82
   8   9  -2    3.41    0.80
   8  -9  -2    3.52    0.78
  -8  -9   2    3.75    0.49
   8  -9  -2    2.85    0.75
   8   9  -1  106.00    4.55
   8   9  -1  109.34    4.48
   8  -9  -1  109.87    4.51
   8  -9  -1  106.79    4.56
  -8  -9   1  107.48    4.12
   8   9   0    9.19    1.09
   8   9   0    7.89    0.98
   8  -9   0    8.05    1.04
   8  -9   0    9.41    1.03
   8   9   1    9.28    1.15
   8   9   1   12.57    1.12
  -8  -9  -1   10.64    1.07
   8  -9   1   12.21    1.31
   8  -9   1   10.10    1.04
   8   9   2   21.68    1.84
   8   9   2   14.37    1.38
   8  -9   2   19.03    1.24
   8  -9   2   16.92    1.67
  -8  -9  -2   18.56    1.61
   8   9   3   -0.26    0.38
   8  -9   3    1.78    0.70
  -8  -9  -3    1.75    0.75
   8   9   4    2.09    0.82
   8  -9   4    0.97    0.68
  -8  -9  -4    1.43    0.73
   8   9   5   37.67    2.68
  -8  -9  -5   36.00    2.62
   8  -9   5   38.41    2.73
   8  -9   6    0.21    0.69
  -8  -9  -6    2.77    1.07
   8  -9   7    7.38    1.68
  -8  -9  -7    6.72    1.58
   8  10  -8    8.42    1.62
   8 -10  -8    4.17    1.27
   8  10  -7   -0.23    0.71
   8 -10  -7   -0.62    0.70
   8 -10  -7   -0.30    0.72
   8  10  -6   25.28    2.51
   8 -10  -6   21.27    2.15
   8 -10  -6   22.35    2.38
   8  10  -5    0.54    0.64
   8 -10  -5    0.04    0.58
   8 -10  -5    1.01    0.69
   8  10  -4    7.45    1.25
   8 -10  -4    6.54    1.13
   8 -10  -4    5.54    1.03
   8  10  -3   20.00    1.37
   8  10  -3   17.68    1.77
   8 -10  -3   17.71    1.73
   8 -10  -3   15.85    1.54
   8  10  -2   23.59    1.74
   8  10  -2   25.32    1.55
   8 -10  -2   23.64    1.69
   8 -10  -2   22.87    1.66
   8  10  -1    0.83    0.53
   8  10  -1    0.91    0.52
   8 -10  -1    0.64    0.56
   8 -10  -1    1.28    0.56
  -8 -10   1    0.30    0.31
   8  10   0    0.70    0.49
   8  10   0    0.46    0.49
   8 -10   0   -0.23    0.37
   8 -10   0   -0.19    0.38
  -8 -10   0   -0.12    0.29
   8  10   1   53.32    2.74
   8  10   1   54.98    2.50
  -8 -10  -1   49.33    2.49
   8 -10   1   49.42    2.74
   8 -10   1   50.56    2.45
   8  10   2   81.73    3.95
   8 -10   2   85.82    4.07
  -8 -10  -2   86.79    3.84
   8 -10   2   85.28    3.56
   8  10   3    0.69    0.63
  -8 -10  -3   -0.82    0.43
   8 -10   3    0.30    0.55
   8  10   4   71.29    3.76
   8 -10   4   68.83    3.84
  -8 -10  -4   76.25    3.82
   8  10   5   16.80    1.99
   8 -10   5   19.12    2.18
  -8 -10  -5   18.76    2.11
  -8 -10  -6    1.11    0.94
   8 -10   6   -0.46    0.72
   8 -10   7   -0.14    0.73
  -8 -10  -7    0.52    0.89
   8  11  -8    1.10    1.04
   8 -11  -8   -0.52    0.81
   8  11  -7   10.45    1.86
   8 -11  -7    6.91    1.44
   8 -11  -7    9.52    1.63
   8  11  -6    5.84    1.29
   8 -11  -6    4.91    1.17
   8 -11  -6    5.28    1.20
   8  11  -5   25.30    2.49
   8 -11  -5   27.43    2.14
   8 -11  -5   28.19    2.54
   8  11  -4   67.86    3.73
   8 -11  -4   69.06    3.58
   8 -11  -4   75.38    3.72
   8  11  -3   23.91    2.16
   8  11  -3   29.71    1.68
   8 -11  -3   25.03    1.85
   8 -11  -3   26.48    1.89
   8  11  -2   -0.31    0.42
   8  11  -2    0.56    0.57
   8 -11  -2    0.21    0.50
   8 -11  -2    0.53    0.57
   8  11  -1    4.07    0.78
   8  11  -1    6.20    1.01
   8 -11  -1    4.80    0.81
   8 -11  -1    5.21    0.95
   8  11   0    2.95    0.71
   8  11   0    4.04    0.83
   8 -11   0    3.90    0.81
   8 -11   0    3.83    0.72
  -8 -11   0    3.95    0.69
   8  11   1   41.10    2.38
   8  11   1   45.37    2.26
   8 -11   1   39.34    2.47
  -8 -11  -1   44.09    2.29
   8 -11   1   43.73    2.19
   8  11   2    4.38    0.90
   8 -11   2    6.01    1.10
  -8 -11  -2    3.60    0.80
   8  11   3    6.18    1.11
  -8 -11  -3    6.75    1.17
   8 -11   3    7.91    1.30
   8  11   4   22.87    2.20
  -8 -11  -4   21.95    2.15
   8 -11   4   25.84    2.42
   8  11   5   15.91    1.93
  -8 -11  -5   18.83    2.13
   8 -11   5   19.65    2.23
   8 -11   6    0.79    0.85
  -8 -11  -6    0.13    0.81
  -8 -11  -7    0.27    0.95
   8 -11   7   -0.60    0.67
   8  12  -8   10.45    1.91
   8 -12  -8   15.44    2.23
   8  12  -7    0.53    0.86
   8 -12  -7    0.34    0.78
   8 -12  -7    0.50    0.76
   8  12  -6    0.90    0.85
   8 -12  -6    0.66    0.79
   8 -12  -6    1.06    0.83
   8  12  -5    1.06    0.81
   8 -12  -5    1.55    0.76
   8 -12  -5    1.56    0.73
   8  12  -4    8.59    1.41
   8 -12  -4   10.54    1.46
   8 -12  -4    5.09    1.07
   8  12  -3   28.32    2.15
   8 -12  -3   32.10    2.20
   8 -12  -3   31.75    2.15
   8  12  -2   22.66    2.01
   8  12  -2   23.27    1.54
   8 -12  -2   24.73    1.82
   8 -12  -2   22.56    1.70
   8  12  -1   -0.08    0.48
   8  12  -1    0.32    0.45
   8 -12  -1    0.69    0.51
  -8 -12   1   -0.37    0.34
   8 -12  -1   -0.01    0.53
   8  12   0   10.66    1.22
   8  12   0   10.30    1.20
   8 -12   0    9.16    1.06
   8 -12   0    8.77    1.21
  -8 -12   0    9.64    1.09
   8  12   1    1.24    0.59
   8  12   1    2.21    0.67
   8 -12   1    1.16    0.50
   8 -12   1    1.58    0.66
  -8 -12  -1    1.18    0.59
   8  12   2    3.52    0.88
  -8 -12  -2    2.96    0.82
   8 -12   2    4.20    0.97
   8  12   3    1.16    0.73
  -8 -12  -3    2.62    0.93
   8 -12   3    1.44    0.74
   8  12   4   40.04    2.71
   8 -12   4   39.56    2.76
  -8 -12  -4   39.21    2.63
   8 -12   5    5.12    1.23
  -8 -12  -5    3.06    1.07
   8 -12   6   28.44    3.00
  -8 -12  -6   24.27    2.69
  -8 -12  -7    1.02    1.07
   8 -12   7    1.71    1.04
   8  13  -8    1.80    1.25
   8 -13  -8   -0.08    0.82
   8  13  -7   19.27    2.45
   8 -13  -7   20.57    2.41
   8 -13  -7   18.62    2.37
   8  13  -6    3.06    1.04
   8 -13  -6    2.20    1.04
   8 -13  -6    2.71    1.01
   8  13  -5   10.70    1.61
   8 -13  -5    8.18    1.39
   8 -13  -5   10.44    1.56
   8  13  -4    5.53    1.19
   8 -13  -4    6.04    1.18
   8 -13  -4    5.82    1.19
   8  13  -3    3.30    0.97
   8 -13  -3    0.64    0.65
   8 -13  -3    1.18    0.67
   8  13  -2   15.26    1.67
   8  13  -2   14.76    1.33
   8 -13  -2   11.64    1.49
   8 -13  -2   15.05    1.57
   8  13  -1   29.36    1.78
   8  13  -1   27.27    1.97
   8 -13  -1   27.66    1.80
   8 -13  -1   26.25    1.97
  -8 -13   1   27.25    1.69
   8  13   0   -0.24    0.42
   8  13   0   -0.30    0.52
  -8 -13   0   -0.02    0.43
   8 -13   0   -0.17    0.40
   8 -13   0    0.07    0.55
   8  13   1   17.21    1.57
   8  13   1   15.82    1.63
  -8 -13  -1   15.03    1.47
   8 -13   1   15.23    1.68
   8  13   2   33.15    2.24
   8 -13   2   31.12    2.29
  -8 -13  -2   35.35    2.23
   8  13   3   62.53    3.40
  -8 -13  -3   61.51    3.35
   8 -13   3   62.90    3.60
   8  13   4    0.71    0.67
   8 -13   4   -0.31    0.54
  -8 -13  -4    0.08    0.76
   8 -13   5   21.03    2.41
  -8 -13  -5   14.95    2.02
   8 -13   6    4.29    1.38
  -8 -13  -6    3.68    1.19
   8 -13   7    0.51    1.05
  -8 -13  -7    0.12    0.97
   8  14  -8   13.83    2.29
   8 -14  -8   12.00    2.01
   8  14  -7    3.39    1.30
   8 -14  -7    4.46    1.31
   8 -14  -7    4.35    1.30
   8  14  -6   10.72    1.80
   8 -14  -6   10.25    1.74
   8 -14  -6    8.97    1.67
   8  14  -5    2.47    1.04
   8 -14  -5    3.67    1.06
   8 -14  -5    3.13    0.99
   8  14  -4    1.77    0.89
   8 -14  -4    0.03    0.58
   8 -14  -4    0.16    0.64
   8  14  -3    4.17    1.08
   8 -14  -3    4.62    0.99
   8 -14  -3    5.98    1.21
   8  14  -2   15.61    1.83
   8 -14  -2   15.27    1.57
   8 -14  -2   18.44    1.90
   8  14  -1    1.05    0.67
   8  14  -1    1.46    0.58
   8 -14  -1    2.25    0.72
  -8 -14   1    1.52    0.62
   8 -14  -1    2.49    0.83
   8  14   0    1.23    0.66
   8  14   0    0.09    0.50
   8 -14   0    1.05    0.67
  -8 -14   0   -0.61    0.43
   8 -14   0    0.56    0.49
   8  14   1   -0.20    0.52
   8  14   1    0.96    0.63
  -8 -14  -1   -0.31    0.45
   8 -14   1   -0.41    0.47
   8  14   2    0.76    0.66
   8 -14   2    1.13    0.66
  -8 -14  -2    0.17    0.52
   8  14   3    0.19    0.60
   8 -14   3    0.82    0.73
  -8 -14  -3    1.63    0.84
   8  14   4   46.55    3.04
  -8 -14  -4   42.57    3.00
   8 -14   4   52.77    3.27
   8 -14   5    2.06    0.95
  -8 -14  -5    2.42    1.04
  -8 -14  -6    3.14    1.27
   8 -14   6    2.36    1.17
  -8 -14  -7   -0.06    1.07
   8 -14   7   -1.14    0.75
   8  15  -8   -0.31    1.03
   8 -15  -8   -0.36    0.76
   8  15  -7    2.45    1.25
   8 -15  -7    2.00    1.14
   8 -15  -7    2.13    1.10
   8  15  -6    0.53    1.00
   8 -15  -6   -0.14    0.82
   8 -15  -6    0.80    0.78
   8  15  -5    1.88    0.94
   8 -15  -5    3.31    1.00
   8 -15  -5    2.19    0.95
   8  15  -4   17.43    2.05
   8 -15  -4   19.46    2.11
   8 -15  -4   19.29    2.02
   8  15  -3   16.39    1.90
   8 -15  -3   16.64    1.85
   8 -15  -3   14.70    1.67
   8  15  -2   37.83    2.49
   8 -15  -2   31.97    2.13
   8 -15  -2   37.15    2.55
   8  15  -1   42.16    2.30
   8  15  -1   39.23    2.51
   8 -15  -1   39.78    2.32
   8 -15  -1   40.95    2.62
   8  15   0  124.78    5.51
   8  15   0  134.74    5.45
  -8 -15   0  128.91    5.42
   8 -15   0  125.91    5.76
   8  15   1    0.47    0.58
   8  15   1   -0.38    0.59
   8 -15   1   -0.10    0.58
  -8 -15  -1    1.59    0.69
   8  15   2   17.85    1.78
   8 -15   2   16.00    1.93
  -8 -15  -2   17.85    1.76
   8  15   3   15.45    1.83
  -8 -15  -3   16.68    1.92
   8 -15   3   13.04    1.80
   8  15   4    4.41    1.13
  -8 -15  -4    4.22    1.10
   8 -15   4    4.04    1.14
   8 -15   5   12.68    1.98
  -8 -15  -5   14.40    2.02
   8 -15   6   -1.00    0.72
  -8 -15  -6   -0.92    0.85
   8  16  -7    7.28    1.67
   8 -16  -7    8.24    1.66
   8 -16  -7    6.36    1.59
   8  16  -6   43.59    3.29
   8 -16  -6   45.88    3.22
   8 -16  -6   45.16    3.31
   8  16  -5    7.26    1.50
   8 -16  -5    8.36    1.53
   8 -16  -5   10.22    1.66
   8  16  -4    0.86    0.78
   8 -16  -4    0.77    0.75
   8 -16  -4    0.81    0.73
   8  16  -3   25.68    2.50
   8 -16  -3   20.91    2.25
   8 -16  -3   27.94    2.11
   8  16  -2   22.35    2.19
   8 -16  -2   22.34    1.96
   8 -16  -2   23.04    2.28
   8  16  -1   38.54    2.51
   8 -16  -1   36.53    2.27
   8 -16  -1   40.18    2.64
   8  16   0    0.18    0.59
   8  16   0    1.00    0.57
   8 -16   0    0.23    0.65
  -8 -16   0    0.27    0.54
   8  16   1   24.85    1.88
   8  16   1   24.69    1.91
  -8 -16  -1   26.91    1.96
   8 -16   1   25.63    2.47
   8  16   2   35.40    2.43
   8 -16   2   40.49    2.72
  -8 -16  -2   36.36    2.45
   8  16   3    2.57    0.91
  -8 -16  -3    3.18    1.03
   8 -16   3    2.03    0.88
  -8 -16  -4   26.31    2.61
   8 -16   4   23.60    2.57
  -8 -16  -5    4.53    1.28
   8 -16   5    8.27    1.58
   8 -16   6    2.46    1.24
  -8 -16  -6    0.92    1.06
   8  17  -7    5.91    1.70
   8 -17  -7    5.45    1.57
   8 -17  -7    6.71    1.71
   8  17  -6   -0.32    0.95
   8 -17  -6    1.23    1.05
   8 -17  -6    0.30    0.97
   8  17  -5    5.82    1.39
   8 -17  -5    6.53    1.49
   8 -17  -5    5.36    1.27
   8  17  -4   -0.07    0.71
   8 -17  -4    2.17    1.05
   8 -17  -4    1.60    0.89
   8  17  -3    3.25    1.04
   8 -17  -3    4.20    1.10
   8 -17  -3    5.59    1.18
   8  17  -2    7.67    1.36
   8 -17  -2    6.27    1.30
   8 -17  -2    7.59    1.22
   8  17  -1   23.53    2.23
   8 -17  -1   25.20    2.44
   8  17   0    8.73    1.40
   8  17   0    8.89    1.21
   8 -17   0   14.56    1.82
  -8 -17   0   11.90    1.45
   8  17   1   26.08    2.00
   8  17   1   27.48    1.96
  -8 -17  -1   24.49    1.91
   8 -17   1   23.19    2.35
   8  17   2    0.73    0.69
   8 -17   2    1.69    0.80
  -8 -17  -2    0.04    0.63
   8  17   3    9.04    1.53
   8 -17   3   11.57    1.76
  -8 -17  -3    7.23    1.36
   8 -17   4    0.64    0.81
  -8 -17  -4   -0.23    0.67
   8 -17   5   14.85    2.23
  -8 -17  -5   11.63    1.92
   8 -17   6    0.10    0.91
  -8 -17  -6   -1.21    0.91
   8  18  -7    0.06    1.08
   8 -18  -7    0.75    1.01
   8 -18  -7    2.25    1.06
   8  18  -6    0.77    0.97
   8 -18  -6    1.14    0.96
   8 -18  -6    0.01    0.82
   8  18  -5    0.99    0.91
   8 -18  -5    0.68    0.86
   8 -18  -5    1.53    0.97
   8  18  -4   -0.51    0.67
   8 -18  -4   -0.29    0.68
   8 -18  -4   -0.56    0.75
   8  18  -3   11.38    1.75
   8 -18  -3   11.02    1.67
   8 -18  -3    9.20    1.50
   8  18  -2    1.52    0.85
   8 -18  -2    0.75    0.82
   8 -18  -2    0.90    0.70
   8  18  -1    2.25    0.99
   8 -18  -1    0.05    0.66
   8  18   0    1.51    0.78
  -8 -18   0    2.28    1.25
   8 -18   0    0.99    0.75
   8  18   1   18.56    1.94
   8  18   1   13.94    1.56
   8 -18   1   12.03    1.79
  -8 -18  -1   19.61    1.96
   8  18   2   19.95    2.03
   8 -18   2   18.56    2.21
  -8 -18  -2   16.69    1.89
  -8 -18  -3    3.72    1.06
   8 -18   3    4.03    1.22
  -8 -18  -4    6.10    1.35
   8 -18   4    6.56    1.49
  -8 -18  -5    4.66    1.38
   8 -18   5    5.55    1.45
  -8 -18  -6    6.84    1.65
   8  19  -6    0.45    0.94
   8 -19  -6    0.56    0.91
   8 -19  -6    1.24    1.03
   8  19  -5   35.21    3.33
   8 -19  -5   40.27    3.12
   8 -19  -5   42.15    3.05
   8  19  -4   12.77    1.93
   8 -19  -4   13.27    1.81
   8 -19  -4   13.49    1.99
   8  19  -3   30.16    2.81
   8 -19  -3   31.22    2.95
   8 -19  -3   24.36    2.38
   8  19  -2    1.16    0.89
   8 -19  -2    2.10    0.96
   8  19  -1   15.15    1.89
   8 -19  -1   14.18    1.88
   8  19   0    9.85    1.51
   8 -19   0   12.83    1.84
   8  19   1    3.58    1.06
   8  19   1    3.68    0.91
  -8 -19  -1    6.56    1.27
   8 -19   1    2.48    0.99
   8  19   2    4.25    1.03
  -8 -19  -2    7.15    1.36
   8 -19   2    3.41    1.12
   8 -19   3  100.84    5.37
  -8 -19  -3   97.96    5.03
  -8 -19  -4    3.78    1.20
   8 -19   4    4.34    1.29
   8 -19   5   -0.29    0.77
  -8 -19  -5   -1.06    0.71
   8  20  -6   14.74    2.34
   8 -20  -6   14.24    2.18
   8 -20  -6   15.44    2.12
   8  20  -5   -1.03    0.76
   8 -20  -5    1.68    1.01
   8 -20  -5    0.55    0.81
   8  20  -4    0.66    0.93
   8 -20  -4   -0.91    0.69
   8 -20  -4    0.00    0.83
   8  20  -3    9.82    1.69
   8 -20  -3   10.68    1.60
   8 -20  -3   10.36    1.80
   8  20  -2   22.04    2.42
   8 -20  -2   24.39    2.67
   8  20  -1   18.01    2.15
   8 -20  -1   25.38    2.62
   8  20   0    0.93    0.87
   8 -20   0    2.52    1.05
   8  20   1   20.91    2.20
   8 -20   1   20.08    2.33
  -8 -20  -1   18.76    2.08
  -8 -20  -2   23.39    2.37
   8 -20   2   26.00    2.73
  -8 -20  -3    9.26    1.63
   8 -20   3   11.71    1.96
  -8 -20  -4    9.64    1.73
   8 -20   4   11.09    1.94
   8 -20   5    0.49    0.94
  -8 -20  -5    0.13    1.03
   8  21  -6   -1.68    0.87
   8 -21  -6    0.98    0.93
   8  21  -5    1.47    1.09
   8 -21  -5    0.14    0.85
   8 -21  -5   -0.14    0.85
   8  21  -4   -0.16    0.95
   8 -21  -4   -0.28    0.82
   8 -21  -4    1.08    0.91
   8  21  -3   -1.60    0.76
   8 -21  -3   -0.02    0.75
   8  21  -2    8.35    1.64
   8 -21  -2    7.42    1.66
   8  21  -1    0.36    0.95
   8 -21  -1    2.04    1.01
   8  21   0   26.92    2.56
   8 -21   0   20.55    2.46
   8  21   1    3.08    1.10
   8 -21   1    3.64    1.14
   8 -21   2    6.77    1.48
  -8 -21  -2    5.68    1.42
  -8 -21  -3    4.12    1.17
   8 -21   3    4.03    1.33
  -8 -21  -4   -0.36    0.91
   8 -21   4    0.53    0.84
  -8 -21  -5   15.57    2.34
   8  22  -5   -0.42    0.96
   8 -22  -5   -1.03    0.67
   8 -22  -5   -0.25    0.99
   8  22  -4   13.71    2.14
   8 -22  -4   16.62    2.15
   8 -22  -4   11.35    2.04
   8  22  -3    4.28    1.33
   8 -22  -3    3.21    1.34
   8  22  -2    5.84    1.51
   8 -22  -2    5.36    1.49
   8  22  -1   -0.27    0.85
   8 -22  -1   -0.19    0.71
   8  22   0    2.84    1.23
   8 -22   0    3.39    1.18
   8  22   1    8.28    1.55
   8 -22   1    7.78    1.65
   8 -22   2   36.03    3.40
  -8 -22  -2   35.74    2.79
  -8 -22  -3    2.02    1.12
   8 -22   3    1.29    0.95
   8 -22   4    8.45    1.83
  -8 -22  -4   15.52    2.25
   8  23  -5    0.79    1.04
   8 -23  -5   -0.66    0.86
   8  23  -4   -1.41    0.76
   8 -23  -4    0.92    1.02
   8  23  -3    1.82    1.14
   8 -23  -3    1.50    1.08
   8  23  -2    2.46    1.30
   8 -23  -2    1.55    1.11
   8  23  -1    0.10    0.78
   8 -23  -1    1.56    0.95
   8  23   0   22.84    2.55
   8 -23   0   20.28    2.55
   8  23   1    4.35    1.95
   8 -23   1    2.04    1.06
  -8 -23  -2    6.62    1.86
   8 -23   2    4.36    1.43
   8 -23   3   16.45    2.39
  -8 -23  -3   14.37    2.10
  -8 -23  -4   -0.97    0.88
   8  24  -4    0.09    1.13
   8  24  -3    0.88    1.14
   8 -24  -3   -0.86    0.98
   8  24  -2    0.43    0.96
   8 -24  -2    2.07    1.14
   8  24  -1    4.81    1.42
   8 -24  -1    6.68    1.52
   8  24   0    1.92    1.18
   8 -24   0    2.13    1.04
   8 -24   1   17.59    2.45
   8 -24   2    5.63    1.53
  -8 -24  -3   -0.58    0.78
   8  25  -3    1.19    1.25
   8  25  -2    0.37    1.02
   8 -25  -2   -0.14    0.92
   8  25  -1   -0.74    0.91
   8 -25  -1   -0.13    0.84
   8  25   0    6.41    1.60
   8 -25   0    4.85    1.42
   8 -25   1    0.32    0.97
   8  26  -2    1.78    1.19
   8  26  -1    0.01    1.02
   8  26   0   -0.66    0.93
   8  27  -1    1.96    1.45
   8  27   0   21.24    2.76
   9   0  -8   14.25    2.00
   9   0  -7   -0.55    0.65
   9   0  -6    0.91    0.69
   9   0  -5   -0.22    0.55
   9   0  -4   56.77    2.95
   9   0  -3    0.50    0.48
   9   0  -3   -0.05    0.21
   9   0  -2    3.31    0.69
   9   0  -2    4.38    0.37
   9   0  -1   -0.10    0.22
   9   0  -1    0.04    0.15
   9   0   0   17.34    1.29
   9   0   0   16.05    0.94
   9   0   1    0.60    0.43
   9   0   1   -0.09    0.26
   9   0   2   71.77    3.32
   9   0   2   79.42    3.49
   9   0   3   -0.17    0.42
   9   0   3    0.63    0.45
   9   0   4   50.74    2.88
   9   0   4   49.46    2.77
   9   0   5    0.26    0.63
   9   0   5   -0.39    0.51
   9   0   6   10.59    1.71
   9   0   6   13.31    1.68
   9   0   7   -1.31    0.58
   9   0   8    0.42    0.91
   9   1  -9   11.93    2.34
   9  -1  -9   11.15    1.89
   9   1  -8   -0.36    0.72
   9  -1  -8    0.28    0.81
   9   1  -7    2.87    0.96
   9  -1  -7    2.70    0.94
   9   1  -6   22.09    2.10
   9  -1  -6   20.55    2.11
   9   1  -5    8.38    1.29
   9  -1  -5   11.54    1.38
   9   1  -4    3.85    0.84
   9  -1  -4    4.72    0.96
   9  -1  -4    3.90    0.63
   9   1  -3   13.47    1.35
   9  -1  -3   14.69    1.41
   9  -1  -3   14.76    0.88
   9   1  -2   33.19    1.89
   9  -1  -2   30.67    1.86
   9  -1  -2   33.81    1.43
   9   1  -1  192.27    7.37
   9   1  -1  194.23    6.66
   9  -1  -1  193.76    6.83
   9   1   0   40.66    1.74
   9  -1   0   37.93    1.77
   9  -1   0   43.50    2.22
   9   1   1  150.05    5.98
   9   1   1  151.44    5.66
   9  -1   1  149.99    5.94
   9  -1   1  149.88    5.70
   9   1   2   36.69    2.12
   9   1   2   35.08    1.95
   9  -1   2   37.87    2.01
   9  -1   2   39.73    2.14
   9   1   3    1.51    0.67
   9   1   3    0.75    0.49
   9  -1   3    1.92    0.64
   9  -1   3    2.03    0.70
   9   1   4    1.06    0.66
   9   1   4    0.87    0.60
   9  -1   4    0.32    0.57
   9  -1   4    1.14    0.59
   9   1   5    0.72    0.67
   9   1   5    0.47    0.63
   9  -1   5    0.38    0.72
   9  -1   5    0.40    0.57
   9   1   6   21.88    2.45
   9   1   6   26.01    2.33
   9  -1   6   21.57    2.31
   9  -1   6   26.83    2.36
   9   1   7    3.45    1.28
   9  -1   7    4.00    1.26
   9   1   8    2.35    1.23
   9  -1   8    3.24    1.26
   9   2  -9    2.39    1.10
   9  -2  -9    1.36    1.06
   9   2  -8    2.41    0.96
   9  -2  -8    2.39    0.97
   9   2  -7    9.23    1.49
   9  -2  -7    7.82    1.43
   9   2  -6    2.35    0.88
   9  -2  -6    3.30    1.00
   9   2  -5    2.98    0.84
   9  -2  -5    3.73    0.94
   9   2  -4   65.73    3.22
   9  -2  -4   69.08    3.33
   9  -2  -4   64.08    2.84
   9   2  -3   33.90    1.99
   9  -2  -3   32.92    1.59
   9  -2  -3   33.08    2.04
   9   2  -2   17.58    1.31
   9  -2  -2   18.06    1.00
   9   2  -1   13.96    1.29
   9  -2  -1   13.99    0.83
   9  -2  -1    9.90    1.11
   9   2   0  193.49    7.01
   9  -2   0  198.89    7.18
   9  -2   0  203.49    7.55
   9   2   1   15.06    1.40
   9   2   1   14.98    1.02
   9  -2   1   14.32    1.06
   9  -2   1   16.30    1.40
   9   2   2    7.59    0.92
   9   2   2    6.73    0.98
   9  -2   2    8.42    1.05
   9  -2   2    7.65    0.96
   9   2   3    4.46    0.83
   9   2   3    3.62    0.82
   9  -2   3    3.38    0.73
   9  -2   3    2.05    0.71
   9   2   4    0.51    0.59
   9   2   4    0.83    0.61
   9  -2   4    0.45    0.57
   9  -2   4    1.07    0.61
   9   2   5   21.20    2.15
   9   2   5   21.73    2.04
   9  -2   5   22.24    2.21
   9  -2   5   20.33    1.88
   9   2   6    2.59    1.00
   9   2   6    4.78    1.11
   9  -2   6    3.06    0.92
   9  -2   6    4.14    1.17
   9   2   7   -0.80    0.62
   9  -2   7   -0.09    0.70
   9   2   8   -0.03    0.92
   9  -2   8    1.23    0.98
   9   3  -9    1.41    1.06
   9  -3  -9    4.65    1.47
   9   3  -8    3.00    1.13
   9  -3  -8    2.05    1.00
   9   3  -7   13.78    1.78
   9  -3  -7   18.42    2.19
   9   3  -6    0.61    0.56
   9  -3  -6    0.64    0.68
   9   3  -5    2.86    0.80
   9  -3  -5    2.06    0.72
   9   3  -4    7.48    1.06
   9  -3  -4    9.46    1.26
   9  -3  -4    8.14    0.90
   9   3  -3    3.23    0.77
   9  -3  -3    5.35    0.67
   9  -3  -3    2.49    0.66
   9   3  -2    0.92    0.51
   9  -3  -2    0.12    0.27
   9  -3  -2    0.07    0.19
   9   3  -1    0.34    0.45
   9  -3  -1    0.50    0.29
   9  -3  -1    0.72    0.45
   9   3   0    0.54    0.25
   9   3   0   -0.34    0.38
   9  -3   0    0.80    0.52
   9  -3   0    0.30    0.30
   9   3   1   74.96    3.21
   9  -3   1   79.91    3.35
   9  -3   1   79.95    3.46
   9   3   2    5.69    0.92
   9   3   2    5.17    0.76
   9  -3   2    5.02    0.79
   9  -3   2    5.89    0.91
   9   3   3  158.58    6.42
   9   3   3  151.61    6.29
   9  -3   3  160.33    6.25
   9  -3   3  152.94    6.37
   9   3   4    0.60    0.65
   9  -3   4    1.09    0.65
   9  -3   4    1.60    0.63
   9   3   5    1.89    0.81
   9   3   5    1.58    0.72
   9  -3   5    1.51    0.69
   9  -3   5    0.24    0.63
   9   3   6    1.22    0.84
   9   3   6    1.59    0.89
   9  -3   6    0.79    0.83
   9   3   7    4.75    1.40
   9  -3   7    4.79    1.28
   9   3   8    3.76    1.28
   9  -3   8    1.93    1.14
   9   4  -9    4.40    1.31
   9  -4  -9    3.75    1.45
   9   4  -8   11.40    1.84
   9  -4  -8   20.14    2.38
   9   4  -7    7.43    1.37
   9   4  -7    8.13    1.47
   9  -4  -7    6.68    1.46
   9   4  -6   14.16    1.58
   9  -4  -6   11.84    1.64
   9   4  -5    5.03    0.97
   9  -4  -5    5.74    1.09
   9  -4  -5    7.22    0.98
   9   4  -4   41.28    2.24
   9  -4  -4   39.54    2.01
   9  -4  -4   31.59    2.19
   9   4  -3    3.05    0.67
   9  -4  -3    2.14    0.51
   9   4  -2    1.96    0.60
   9  -4  -2    2.03    0.61
   9   4  -1   27.72    1.75
   9  -4  -1   31.56    1.57
   9  -4  -1   30.21    1.81
   9   4   0  147.64    5.88
   9  -4   0  149.40    5.64
   9  -4   0  144.18    5.80
  -9  -4   0  149.00    5.34
   9   4   1   12.01    0.84
   9   4   1    9.71    0.91
   9  -4   1   13.35    1.28
   9  -4   1   11.67    1.11
   9   4   2   80.47    3.54
   9   4   2   80.63    3.73
   9  -4   2   84.02    3.61
   9  -4   2   77.04    3.60
   9   4   3    5.59    1.01
   9   4   3    5.93    0.96
   9  -4   3    6.17    0.93
   9  -4   3    4.92    0.96
   9   4   4    3.13    0.86
   9   4   4    3.00    0.83
   9  -4   4    1.30    0.68
   9  -4   4    2.24    0.68
   9   4   5    6.04    1.20
   9   4   5    4.83    1.09
   9  -4   5    4.72    0.94
   9  -4   5    5.47    1.18
   9   4   6    0.12    0.74
   9   4   6    0.93    0.80
   9  -4   6    0.94    0.76
   9   4   7   -1.25    0.72
   9  -4   7   -0.54    0.59
   9   4   8    0.77    1.06
   9  -4   8    1.36    1.10
  -9  -4  -8    2.05    1.12
   9   5  -9   31.24    3.17
   9  -5  -9   30.97    3.17
   9   5  -8    1.17    0.91
   9  -5  -8    1.00    0.90
   9   5  -7    4.84    1.17
   9  -5  -7    6.98    1.47
   9   5  -6    3.18    0.87
   9   5  -6    3.76    1.03
   9  -5  -6    2.78    1.02
   9   5  -5    4.66    0.95
   9  -5  -5    5.52    1.09
   9  -5  -5    5.42    0.94
   9   5  -4   16.11    1.49
   9  -5  -4   17.16    1.30
   9   5  -3    7.41    0.97
   9  -5  -3    2.79    0.65
   9  -5  -3    5.12    0.72
   9   5  -2    7.46    0.99
   9  -5  -2    7.38    0.81
   9  -5  -2    6.16    0.93
   9   5  -1   75.23    3.47
   9  -5  -1   79.21    3.30
   9  -5  -1   82.80    3.56
   9   5   0    0.71    0.46
   9   5   0    0.22    0.36
  -9  -5   0    0.25    0.24
   9  -5   0    1.22    0.43
   9  -5   0    1.26    0.53
   9   5   1  193.75    6.96
   9   5   1  190.87    7.41
   9  -5   1  187.06    7.25
   9  -5   1  190.85    7.26
   9   5   2   66.33    2.96
   9  -5   2   58.90    3.02
   9  -5   2   64.43    2.99
   9   5   3    0.33    0.57
   9   5   3    0.25    0.43
   9  -5   3    0.30    0.48
   9  -5   3   -0.36    0.42
   9   5   4   21.04    1.99
   9   5   4   23.80    2.15
   9  -5   4   19.90    2.03
   9  -5   4   21.87    1.61
   9   5   5    0.32    0.58
   9   5   5    1.02    0.66
   9  -5   5    1.05    0.69
   9   5   6   10.65    1.69
   9   5   6   12.45    1.78
   9  -5   6   10.66    1.70
   9   5   7   -0.72    0.80
   9  -5   7    0.04    0.69
  -9  -5  -7    0.56    0.92
   9  -5   8    1.49    1.01
  -9  -5  -8   -0.74    0.85
   9   6  -9   -0.49    0.83
   9  -6  -9   -0.51    0.93
   9   6  -8    6.36    1.42
   9  -6  -8   10.22    1.85
   9   6  -7    2.62    0.97
   9  -6  -7    2.68    1.04
   9   6  -6    2.48    0.88
   9   6  -6    0.79    0.72
   9  -6  -6    3.32    0.96
   9   6  -5    3.35    0.85
   9   6  -5    3.90    1.00
   9  -6  -5    3.98    0.98
   9  -6  -5    2.78    0.76
   9   6  -4   -0.26    0.43
   9   6  -4    0.40    0.36
   9  -6  -4    0.41    0.50
   9  -6  -4    0.16    0.28
   9   6  -3    6.48    1.05
   9   6  -3    7.39    0.99
   9  -6  -3    8.17    1.15
   9  -6  -3    8.32    0.96
   9   6  -2    5.19    0.87
   9   6  -2    5.08    0.81
   9  -6  -2    7.07    0.97
   9  -6  -2    5.04    0.74
   9   6  -1    0.60    0.43
   9   6  -1    0.14    0.42
  -9  -6   1    0.68    0.19
   9  -6  -1    0.67    0.46
   9  -6  -1    0.66    0.37
   9   6   0   66.01    2.93
   9   6   0   66.37    3.13
   9  -6   0   63.35    3.04
  -9  -6   0   69.39    2.70
   9  -6   0   65.77    3.01
   9   6   1    1.28    0.54
   9   6   1   -0.17    0.20
   9  -6   1    0.30    0.40
   9  -6   1    0.53    0.45
  -9  -6  -1    0.99    0.41
  -9  -6  -2   66.25    3.10
   9  -6   2   68.16    3.11
   9  -6   2   67.98    3.29
   9   6   3   -0.19    0.29
  -9  -6  -3    0.13    0.57
   9  -6   3   -0.03    0.39
   9  -6   3    0.61    0.54
   9   6   4   48.55    2.85
   9   6   4   45.99    2.76
   9  -6   4   44.76    2.48
   9  -6   4   49.83    2.93
   9   6   5    5.68    1.27
   9   6   5    6.07    1.18
   9  -6   5    6.71    1.27
  -9  -6  -5    4.29    1.17
   9   6   6   25.39    2.57
   9  -6   6   32.93    3.00
  -9  -6  -7   -0.16    0.79
   9  -6   7    0.07    0.72
  -9  -6  -8    0.29    1.42
   9   7  -9   -0.62    0.80
   9   7  -8   -0.14    0.80
   9  -7  -8    1.74    1.03
   9   7  -7   10.99    1.72
   9  -7  -7   12.61    1.94
   9   7  -6    2.09    0.97
   9  -7  -6    1.20    0.87
   9   7  -5   36.86    2.25
   9   7  -5   39.33    2.58
   9  -7  -5   41.28    2.62
   9  -7  -5   41.48    2.37
   9   7  -4   18.78    1.61
   9  -7  -4   17.95    1.43
   9   7  -3   16.57    1.64
   9   7  -3   16.96    1.48
   9  -7  -3   16.61    1.31
   9  -7  -3   15.27    1.55
   9   7  -2    3.03    0.73
   9   7  -2    2.76    0.70
   9  -7  -2    2.76    0.71
   9  -7  -2    4.22    0.76
   9   7  -1   91.84    4.03
   9   7  -1   97.19    4.05
  -9  -7   1   91.39    3.41
   9  -7  -1   95.22    4.05
   9  -7  -1   92.20    3.92
   9   7   0   12.39    1.30
   9   7   0   13.75    1.20
   9  -7   0   13.24    1.27
   9  -7   0   13.14    1.27
  -9  -7   0   13.49    0.90
   9   7   1  228.27    8.89
  -9  -7  -1  236.70    8.56
   9  -7   1  239.02    8.75
   9  -7   1  230.64    8.86
   9  -7   2   13.79    1.27
   9  -7   2   10.23    1.27
  -9  -7  -2   10.27    1.13
   9  -7   3    9.41    1.07
   9  -7   3    6.06    1.14
  -9  -7  -3    9.21    1.21
   9   7   4    0.20    0.62
  -9  -7  -4    1.75    0.80
   9  -7   4    1.71    0.77
   9   7   5    0.45    0.75
   9  -7   5    0.43    0.71
  -9  -7  -5    1.33    0.81
   9   7   6    1.52    0.86
  -9  -7  -6    3.49    1.14
   9  -7   6    2.57    1.00
   9  -7   7    0.01    0.71
  -9  -7  -7   -1.07    0.71
   9   8  -9    1.26    1.08
   9  -8  -9    1.58    1.15
   9   8  -8   10.39    1.84
   9  -8  -8    8.10    1.65
   9   8  -7    3.38    1.13
   9  -8  -7    1.98    1.03
   9   8  -6    0.47    0.74
   9  -8  -6    0.31    0.67
   9  -8  -6    0.51    0.61
   9   8  -5   29.61    2.23
   9  -8  -5   28.68    2.16
   9  -8  -5   27.38    1.93
   9   8  -4   10.92    1.23
   9   8  -4    7.61    1.24
   9  -8  -4    8.27    1.17
   9  -8  -4   11.41    1.44
   9   8  -3   19.70    1.46
   9   8  -3   17.70    1.73
   9  -8  -3   17.94    1.43
   9  -8  -3   17.31    1.69
   9   8  -2   29.39    1.93
   9   8  -2   31.58    1.84
   9  -8  -2   29.66    1.83
   9  -8  -2   28.70    1.90
   9   8  -1   21.04    1.49
   9   8  -1   20.92    1.50
   9  -8  -1   19.30    1.44
   9  -8  -1   19.22    1.40
  -9  -8   1   19.47    1.02
   9   8   0  146.84    5.91
   9   8   0  157.02    6.14
   9  -8   0  155.12    6.00
   9  -8   0  148.44    6.05
  -9  -8   0  153.43    5.67
   9   8   1   89.63    3.59
   9   8   1   84.85    3.91
   9  -8   1   80.77    3.87
  -9  -8  -1   87.36    3.62
   9  -8   1   85.47    3.72
   9   8   2   62.34    3.18
   9  -8   2   62.72    3.17
  -9  -8  -2   63.34    2.98
   9  -8   2   56.84    2.80
   9  -8   3    6.77    0.94
  -9  -8  -3    9.20    1.25
   9  -8   3    5.89    1.10
   9   8   4    3.25    0.98
  -9  -8  -4    4.41    1.04
   9  -8   4    3.63    0.97
   9   8   5    5.02    1.20
  -9  -8  -5    5.57    1.24
   9  -8   5    4.31    1.14
  -9  -8  -6    4.30    1.24
   9  -8   6    1.31    0.87
  -9  -8  -7   -0.23    0.82
   9  -8   7    1.72    1.07
   9   9  -8   -0.04    0.85
   9  -9  -8    0.53    0.95
   9   9  -7    0.21    0.78
   9  -9  -7    0.74    0.89
   9   9  -6    5.06    1.27
   9  -9  -6    4.12    1.10
   9  -9  -6    3.19    0.93
   9   9  -5    2.23    0.90
   9  -9  -5    2.69    0.84
   9  -9  -5    1.08    0.73
   9   9  -4    5.79    1.11
   9   9  -4    5.05    0.92
   9  -9  -4    6.82    1.19
   9  -9  -4    6.03    1.01
   9   9  -3    2.04    0.65
   9   9  -3    1.35    0.67
   9  -9  -3    2.01    0.71
   9  -9  -3    1.80    0.61
   9   9  -2    3.08    0.80
   9   9  -2    1.37    0.60
   9  -9  -2    4.01    0.77
   9  -9  -2    3.25    0.83
   9   9  -1   15.05    1.45
   9   9  -1   16.98    1.51
   9  -9  -1   15.10    1.42
  -9  -9   1   16.91    1.21
   9  -9  -1   13.69    1.38
   9   9   0    2.96    0.68
   9   9   0    3.36    0.78
   9  -9   0    3.10    0.72
   9  -9   0    3.84    0.77
   9   9   1   47.20    2.23
   9   9   1   41.99    2.43
   9  -9   1   37.89    2.36
  -9  -9  -1   44.07    2.22
   9  -9   1   46.18    2.30
   9   9   2    3.13    0.83
   9  -9   2    3.12    0.81
   9  -9   2    3.35    0.71
  -9  -9  -2    1.72    0.63
   9   9   3  116.80    5.27
   9  -9   3  115.16    5.33
  -9  -9  -3  121.05    5.18
   9   9   4    1.21    0.61
   9  -9   4   -0.24    0.55
  -9  -9  -4   -0.40    0.50
   9   9   5   -0.73    0.59
  -9  -9  -5    0.94    0.75
   9  -9   5   -0.45    0.59
  -9  -9  -6   -0.21    0.71
   9  -9   6    0.67    0.72
   9  -9   7    1.05    0.89
  -9  -9  -7    1.04    1.06
   9  10  -8   12.62    2.12
   9 -10  -8   14.84    2.27
   9  10  -7    9.95    1.71
   9 -10  -7   10.12    1.78
   9  10  -6    5.85    1.36
   9 -10  -6    9.25    1.44
   9 -10  -6    9.65    1.58
   9  10  -5    2.28    0.91
   9 -10  -5    2.17    0.79
   9 -10  -5    1.72    0.87
   9  10  -4   33.63    2.37
   9 -10  -4   28.83    2.19
   9 -10  -4   33.03    2.18
   9  10  -3   17.33    1.84
   9  10  -3   23.69    1.57
   9 -10  -3   23.48    1.76
   9 -10  -3   23.54    1.76
   9  10  -2    6.67    0.92
   9  10  -2    6.20    1.02
   9 -10  -2    5.45    1.00
   9 -10  -2    4.32    0.91
   9  10  -1   -0.07    0.45
   9  10  -1    0.76    0.53
   9 -10  -1    0.02    0.41
   9 -10  -1    0.05    0.47
   9  10   0  275.71   10.03
   9  10   0  271.12   10.12
   9 -10   0  264.20   10.21
   9 -10   0  268.74    9.98
   9  10   1   -0.24    0.48
   9  10   1    0.58    0.49
  -9 -10  -1    0.28    0.43
   9 -10   1    0.28    0.47
   9 -10   1    0.05    0.50
   9  10   2   30.65    2.14
  -9 -10  -2   30.24    1.93
   9 -10   2   32.86    2.19
   9 -10   2   29.97    1.79
   9  10   3    1.76    0.78
   9 -10   3    4.25    0.97
  -9 -10  -3    2.68    0.81
   9  10   4   21.80    2.13
   9 -10   4   18.09    2.01
  -9 -10  -4   15.47    1.81
   9  10   5   -0.09    0.63
   9 -10   5    0.61    0.82
  -9 -10  -5   -0.25    0.68
   9 -10   6   -0.85    0.52
  -9 -10  -6   -0.49    0.72
  -9 -10  -7    0.54    1.07
   9 -10   7    1.14    0.97
   9  11  -8    0.02    0.85
   9 -11  -8   -0.59    0.75
   9  11  -7    0.37    0.80
   9 -11  -7    0.23    0.74
   9  11  -6    1.38    0.95
   9 -11  -6    0.57    0.76
   9 -11  -6    1.64    0.95
   9  11  -5    2.27    0.97
   9 -11  -5    4.98    1.10
   9 -11  -5    5.88    1.20
   9  11  -4    0.12    0.56
   9 -11  -4    1.02    0.70
   9 -11  -4    0.91    0.63
   9  11  -3    4.80    0.85
   9  11  -3    3.91    0.98
   9 -11  -3    3.55    0.88
   9  11  -2   30.40    2.06
   9  11  -2   29.89    1.84
   9 -11  -2   28.25    2.01
   9 -11  -2   29.07    1.93
   9  11  -1    0.98    0.57
   9  11  -1    1.05    0.62
   9 -11  -1    1.72    0.64
   9 -11  -1    0.58    0.55
   9  11   0   27.14    1.83
   9  11   0   30.76    1.89
   9 -11   0   30.61    1.81
  -9 -11   0   25.80    1.60
   9 -11   0   27.25    1.92
   9  11   1  131.78    5.05
   9  11   1  120.22    5.29
  -9 -11  -1  120.52    5.02
   9 -11   1  123.68    4.99
   9 -11   1  116.20    5.34
   9  11   2   35.82    2.38
  -9 -11  -2   36.90    2.24
   9 -11   2   37.03    2.45
   9  11   3    3.11    0.96
  -9 -11  -3    1.56    0.71
   9 -11   3    2.68    0.86
   9  11   4    0.96    0.72
   9 -11   4    0.95    0.75
  -9 -11  -4    1.40    0.84
   9  11   5    1.75    0.83
   9 -11   5    4.69    1.20
  -9 -11  -5    2.64    1.03
   9 -11   6   16.41    2.22
  -9 -11  -6   14.58    2.06
  -9 -11  -7    1.88    1.18
   9 -11   7    0.35    0.83
   9  12  -8    1.04    1.01
   9 -12  -8    2.52    1.27
   9  12  -7    2.21    1.24
   9 -12  -7    3.38    1.19
   9  12  -6    0.65    0.85
   9 -12  -6    1.23    0.78
   9 -12  -6    1.54    0.87
   9  12  -5    0.81    0.79
   9 -12  -5    0.52    0.64
   9 -12  -5    0.05    0.65
   9  12  -4    0.66    0.71
   9 -12  -4   -0.01    0.64
   9 -12  -4    0.08    0.58
   9  12  -3   -0.69    0.52
   9 -12  -3   -0.07    0.56
   9 -12  -3    0.27    0.54
   9  12  -2    1.76    0.65
   9  12  -2    2.34    0.81
   9 -12  -2    2.33    0.72
   9 -12  -2    3.27    0.89
   9  12  -1   15.21    1.57
   9  12  -1   17.74    1.58
   9 -12  -1   19.36    1.82
   9 -12  -1   18.20    1.64
   9  12   0    2.52    0.75
   9  12   0    2.95    0.79
   9 -12   0    4.12    0.92
  -9 -12   0    2.00    0.63
   9 -12   0    3.50    0.76
   9  12   1   25.87    1.87
   9  12   1   25.29    1.69
  -9 -12  -1   22.25    1.60
   9 -12   1   22.88    2.08
   9 -12   1   21.23    1.52
   9  12   2   62.92    3.36
  -9 -12  -2   65.56    3.23
   9 -12   2   59.76    3.43
   9  12   3    0.64    0.61
  -9 -12  -3   -0.48    0.51
   9 -12   3   -0.19    0.54
   9  12   4   72.43    3.85
   9 -12   4   66.82    3.90
  -9 -12  -4   68.17    3.75
   9  12   5    2.08    0.91
  -9 -12  -5    1.61    0.89
   9 -12   5    1.94    0.90
  -9 -12  -6    3.10    1.18
   9 -12   6    3.42    1.23
  -9 -12  -7    1.48    1.20
   9 -12   7    1.49    1.02
   9  13  -8   -0.51    0.98
   9 -13  -8   -0.45    0.88
   9  13  -7    5.17    1.44
   9 -13  -7    6.32    1.56
   9 -13  -7    7.60    1.54
   9  13  -6   11.17    1.87
   9 -13  -6   10.21    1.69
   9 -13  -6   13.94    1.88
   9  13  -5   32.63    2.89
   9 -13  -5   28.71    2.65
   9 -13  -5   26.61    2.48
   9  13  -4    0.87    0.74
   9 -13  -4   -0.32    0.56
   9 -13  -4    1.28    0.70
   9  13  -3    0.07    0.68
   9 -13  -3   -0.27    0.58
   9 -13  -3    0.76    0.65
   9  13  -2   23.59    1.65
   9  13  -2   22.37    2.06
   9 -13  -2   20.64    1.93
   9 -13  -2   23.74    2.16
   9  13  -1  158.21    6.59
   9  13  -1  151.22    6.32
   9 -13  -1  158.66    6.40
   9 -13  -1  167.59    6.73
   9  13   0    2.47    0.76
   9  13   0    1.19    0.63
  -9 -13   0    0.71    0.55
   9 -13   0    1.39    0.63
   9 -13   0    1.30    0.71
   9  13   1   15.42    1.68
   9  13   1   17.90    1.63
  -9 -13  -1   15.63    1.53
   9 -13   1   19.91    1.98
   9  13   2    7.06    1.18
   9 -13   2    5.15    1.13
  -9 -13  -2    8.66    1.21
   9  13   3   10.84    1.46
  -9 -13  -3   10.77    1.43
   9 -13   3    8.84    1.45
   9  13   4    7.28    1.38
  -9 -13  -4    6.74    1.33
   9 -13   4    8.03    1.49
   9  13   5    0.71    0.79
  -9 -13  -5   -0.21    0.75
   9 -13   5    0.52    0.79
   9 -13   6    0.56    0.80
  -9 -13  -6   -0.96    0.85
   9 -13   7    1.14    1.76
  -9 -13  -7    1.01    1.10
   9  14  -8    5.85    1.58
   9 -14  -8    4.67    1.51
   9  14  -7    1.29    1.02
   9 -14  -7   -0.40    0.76
   9 -14  -7   -0.10    0.88
   9  14  -6    0.20    0.86
   9 -14  -6   -0.56    0.62
   9 -14  -6    0.32    0.71
   9  14  -5    0.96    0.95
   9 -14  -5    1.12    0.86
   9 -14  -5   -0.02    0.62
   9  14  -4   14.99    1.98
   9 -14  -4   16.20    1.88
   9 -14  -4   14.06    1.73
   9  14  -3   26.85    2.44
   9 -14  -3   26.33    1.99
   9 -14  -3   26.11    2.40
   9  14  -2    0.11    0.64
   9 -14  -2   -0.05    0.54
   9 -14  -2    0.18    0.57
   9  14  -1   -0.06    0.65
   9  14  -1    0.77    0.54
   9 -14  -1    0.89    0.65
   9 -14  -1    0.82    0.58
   9  14   0   43.54    2.53
   9  14   0   43.03    2.47
   9 -14   0   38.30    2.59
  -9 -14   0   43.33    2.67
   9 -14   0   41.80    2.34
   9  14   1   56.35    2.99
   9  14   1   59.41    3.18
  -9 -14  -1   61.05    3.07
   9 -14   1   58.93    3.35
   9  14   2   37.84    2.50
  -9 -14  -2   40.72    2.48
   9 -14   2   39.90    2.70
   9  14   3   17.64    1.94
   9 -14   3   14.47    1.91
  -9 -14  -3   19.98    2.03
   9  14   4   -0.14    0.68
  -9 -14  -4    1.02    0.86
   9 -14   4    0.34    0.72
  -9 -14  -5    5.57    1.44
   9 -14   5    5.06    1.35
   9 -14   6    2.16    1.12
  -9 -14  -6    2.02    1.09
   9  15  -7    2.99    1.23
   9 -15  -7    1.07    1.09
   9 -15  -7    2.23    1.21
   9  15  -6   -0.30    0.79
   9 -15  -6    0.18    0.71
   9 -15  -6   -0.66    0.63
   9  15  -5    3.46    1.19
   9 -15  -5    3.50    1.09
   9 -15  -5    2.43    1.07
   9  15  -4   -0.11    0.65
   9 -15  -4   -0.45    0.58
   9 -15  -4    0.26    0.78
   9  15  -3    3.21    1.01
   9 -15  -3    3.96    0.95
   9 -15  -3    6.40    1.23
   9  15  -2    1.64    0.77
   9 -15  -2   -0.14    0.66
   9 -15  -2   -0.17    0.57
   9  15  -1   31.57    2.18
   9  15  -1   27.75    1.89
   9 -15  -1   29.24    1.96
   9 -15  -1   29.55    2.25
   9  15   0    0.61    0.61
   9  15   0    0.37    0.57
   9 -15   0    0.37    0.62
   9  15   1   97.56    4.56
   9  15   1   94.97    4.46
   9 -15   1  104.08    4.92
   9  15   2   15.46    1.73
   9 -15   2   14.95    1.84
  -9 -15  -2   20.29    1.88
   9  15   3   83.33    4.35
  -9 -15  -3   88.28    4.42
   9 -15   3   86.91    4.63
   9  15   4    0.27    0.71
  -9 -15  -4    0.26    0.67
   9 -15   4   -0.21    0.61
  -9 -15  -5    1.02    0.90
   9 -15   5    1.89    0.99
  -9 -15  -6    0.49    0.96
   9 -15   6   -0.94    0.64
   9  16  -7    2.65    1.34
   9 -16  -7   -1.06    0.73
   9 -16  -7    0.91    0.97
   9  16  -6   -0.32    0.82
   9 -16  -6   -0.56    0.65
   9 -16  -6    0.24    0.85
   9  16  -5   10.62    1.73
   9 -16  -5    9.24    1.66
   9 -16  -5    8.90    1.58
   9  16  -4   19.28    2.20
   9 -16  -4   16.12    1.98
   9 -16  -4   17.16    2.05
   9  16  -3   56.67    3.45
   9 -16  -3   57.94    3.24
   9 -16  -3   58.08    3.44
   9  16  -2    7.84    1.36
   9 -16  -2   10.60    1.38
   9 -16  -2    9.92    1.51
   9  16  -1   38.39    2.56
   9 -16  -1   35.84    2.24
   9 -16  -1   35.87    2.54
   9  16   0   75.15    3.79
   9  16   0   76.97    3.66
   9 -16   0   68.07    3.87
   9  16   1   40.03    2.56
   9  16   1   41.99    2.53
  -9 -16  -1   42.74    2.55
   9 -16   1   43.77    2.90
   9  16   2    0.62    0.65
  -9 -16  -2    0.67    0.63
   9 -16   2    1.13    0.72
   9  16   3    7.91    1.42
  -9 -16  -3    9.75    1.45
   9 -16   3    8.47    1.54
   9  16   4    4.49    1.23
  -9 -16  -4    3.98    1.21
   9 -16   4    2.70    1.16
   9 -16   5    2.56    1.12
  -9 -16  -5    4.15    1.22
  -9 -16  -6    2.39    1.17
   9 -16   6    0.38    0.91
   9  17  -7    3.32    1.40
   9 -17  -7    1.18    1.01
   9 -17  -7    1.58    1.12
   9  17  -6    1.18    1.06
   9 -17  -6    0.37    0.90
   9 -17  -6    1.03    0.98
   9  17  -5   -0.22    0.81
   9 -17  -5   -0.19    0.87
   9 -17  -5    0.00    0.82
   9  17  -4    1.93    0.97
   9 -17  -4    2.12    0.94
   9 -17  -4    2.20    0.97
   9  17  -3   28.34    2.67
   9 -17  -3   29.78    2.26
   9 -17  -3   31.21    2.44
   9  17  -2    8.77    1.51
   9 -17  -2    8.43    1.32
   9 -17  -2    9.37    1.53
   9  17  -1   43.02    2.84
   9 -17  -1   44.78    2.93
   9  17   0   21.44    2.07
   9  17   0   23.49    1.80
   9 -17   0   23.49    2.33
   9  17   1   24.74    2.25
   9  17   1   24.31    2.14
  -9 -17  -1   21.10    2.03
   9 -17   1   26.73    2.56
   9  17   2    0.30    0.62
   9 -17   2    0.43    0.72
  -9 -17  -2    0.84    0.69
   9  17   3    7.93    1.44
   9 -17   3    6.01    1.44
  -9 -17  -3    4.89    1.21
  -9 -17  -4    3.26    1.14
   9 -17   4    6.59    1.46
  -9 -17  -5   -0.02    0.90
   9 -17   5    0.33    0.82
   9 -17   6    2.19    1.75
  -9 -17  -6    4.84    1.53
   9  18  -7    4.46    1.53
   9 -18  -7    1.47    1.33
   9 -18  -7    1.76    1.27
   9  18  -6    3.66    1.33
   9 -18  -6    4.80    1.47
   9 -18  -6    2.24    1.09
   9  18  -5    0.10    0.95
   9 -18  -5    1.61    0.89
   9 -18  -5    0.12    0.89
   9  18  -4    1.10    1.03
   9 -18  -4    2.03    0.98
   9 -18  -4    0.17    0.90
   9  18  -3    2.68    1.07
   9 -18  -3    1.11    0.69
   9 -18  -3    2.94    1.08
   9  18  -2    1.29    0.89
   9 -18  -2    3.37    0.96
   9 -18  -2    3.28    1.10
   9  18  -1    3.00    1.09
   9 -18  -1    5.48    1.26
   9  18   0    7.48    1.37
   9 -18   0    6.46    1.31
   9  18   1    3.19    0.99
   9  18   1    3.34    0.94
   9 -18   1    3.18    1.04
   9  18   2   69.76    3.79
   9 -18   2   72.19    4.13
  -9 -18  -2   71.27    3.84
   9  18   3    4.77    1.20
   9 -18   3    4.86    1.32
  -9 -18  -3    5.60    1.23
   9 -18   4    1.11    0.83
  -9 -18  -4    0.67    0.88
   9 -18   5   -0.13    0.74
  -9 -18  -5   -0.95    0.88
  -9 -18  -6   -1.28    1.03
   9  19  -6    0.55    1.11
   9 -19  -6    1.07    0.95
   9 -19  -6    1.06    1.17
   9  19  -5    2.79    1.19
   9 -19  -5    3.05    1.31
   9 -19  -5    4.09    1.23
   9  19  -4   11.43    1.87
   9 -19  -4   13.51    1.85
   9 -19  -4   14.67    2.07
   9  19  -3    1.27    1.00
   9 -19  -3    0.20    0.83
   9 -19  -3    3.45    0.97
   9  19  -2   11.41    1.73
   9 -19  -2   12.97    1.92
   9  19  -1   30.23    2.73
   9 -19  -1   33.82    2.65
   9  19   0    1.83    0.91
   9 -19   0    2.84    1.06
   9  19   1   18.96    1.98
   9  19   1   16.64    1.84
   9 -19   1   12.63    1.86
   9  19   2    9.10    1.46
   9 -19   2    9.68    1.68
  -9 -19  -2    7.40    1.41
   9 -19   3    0.20    0.71
  -9 -19  -3   -0.54    0.66
   9 -19   4    6.69    1.56
  -9 -19  -4    4.84    1.40
  -9 -19  -5   -0.47    0.88
   9 -19   5   -0.30    0.75
   9  20  -6    0.63    1.18
   9 -20  -6    1.03    1.13
   9 -20  -6    0.99    1.22
   9  20  -5    0.55    1.04
   9 -20  -5    0.27    0.93
   9 -20  -5    0.85    0.90
   9  20  -4   -0.91    0.87
   9 -20  -4    0.95    0.83
   9 -20  -4    0.67    0.98
   9  20  -3    1.06    1.05
   9 -20  -3   -0.11    0.88
   9 -20  -3    3.02    0.93
   9  20  -2   -0.20    0.79
   9 -20  -2    0.34    0.88
   9  20  -1    0.52    0.91
   9 -20  -1    1.62    0.87
   9  20   0   25.19    2.47
   9 -20   0   25.87    2.71
   9 -20   1   10.51    1.75
   9  20   2    8.82    1.50
  -9 -20  -2    6.09    1.40
   9 -20   2    7.47    1.60
  -9 -20  -3    1.65    0.91
   9 -20   3   -0.21    0.74
   9 -20   4    1.59    1.03
  -9 -20  -4    1.17    0.99
  -9 -20  -5   16.10    2.28
   9  21  -5    5.01    1.53
   9 -21  -5    4.46    1.35
   9 -21  -5    3.69    1.34
   9  21  -4    7.19    1.62
   9 -21  -4    5.33    1.44
   9 -21  -4    4.21    1.15
   9  21  -3   -1.00    0.79
   9 -21  -3    0.34    0.93
   9  21  -2    4.21    1.34
   9 -21  -2    5.57    1.37
   9  21  -1   -0.16    0.85
   9 -21  -1   -0.82    0.60
   9  21   0    6.34    1.37
   9 -21   0    8.53    1.64
   9 -21   1   19.55    2.48
   9 -21   2    2.70    1.09
  -9 -21  -3   22.33    2.47
   9 -21   3   23.04    2.75
  -9 -21  -4   -0.10    0.78
   9 -21   4    1.11    1.07
  -9 -21  -5    2.32    1.32
   9  22  -5    0.04    0.96
   9 -22  -5    0.35    0.78
   9 -22  -5   -0.69    0.80
   9  22  -4    3.42    1.39
   9 -22  -4    4.94    1.47
   9 -22  -4    2.78    1.29
   9  22  -3    4.40    1.39
   9 -22  -3    5.20    1.44
   9  22  -2   13.98    2.07
   9 -22  -2   19.34    2.45
   9  22  -1   -0.21    0.88
   9 -22  -1    0.06    0.85
   9  22   0    6.49    1.52
   9 -22   0    8.50    1.67
   9 -22   1    1.47    0.97
   9 -22   2    4.94    1.39
   9 -22   3    1.27    0.96
  -9 -22  -3    0.45    0.82
  -9 -22  -4   -1.44    0.82
   9  23  -4    1.27    1.12
   9 -23  -4    4.19    1.44
   9  23  -3   -0.60    0.85
   9 -23  -3   -0.42    0.76
   9  23  -2    0.52    1.01
   9 -23  -2    0.15    0.79
   9  23  -1    7.55    1.69
   9 -23  -1    4.40    1.40
   9  23   0    2.36    1.11
   9 -23   0    0.79    1.01
   9 -23   1    6.23    1.51
   9 -23   2   15.91    2.32
   9 -23   3   14.09    2.21
  -9 -23  -4   14.68    2.27
   9  24  -4    2.53    1.31
   9  24  -3    2.16    1.28
   9 -24  -3    4.45    1.50
   9  24  -2   -0.47    0.91
   9 -24  -2    0.86    0.95
   9  24  -1    1.41    1.16
   9 -24  -1    4.13    1.31
   9  24   0    0.61    0.94
   9 -24   0   -0.55    0.84
   9 -24   1   -0.86    0.70
   9 -24   2   10.92    2.01
   9  25  -3   -1.24    0.81
   9  25  -2    1.37    1.26
   9 -25  -2    2.14    1.96
   9  25  -1    6.05    1.63
   9 -25  -1    8.43    1.86
   9  25   0   -0.02    1.01
   9 -25   0    0.32    0.98
   9  26  -2   -0.45    1.11
   9  26  -1   -0.02    1.10
   9  26   0    5.02    1.51
  10   0  -8   15.41    2.10
  10   0  -7    0.61    0.74
  10   0  -6    2.57    0.84
  10   0  -5   -0.38    0.51
  10   0  -4   18.12    1.70
  10   0  -3    0.13    0.47
  10   0  -2  136.54    4.65
  10   0  -2  125.46    5.38
  10   0  -1    0.12    0.17
  10   0  -1    0.20    0.23
  10   0   0  201.39    7.83
  10   0   0  205.95    7.32
  10   0   1   -0.12    0.27
  10   0   1   -0.03    0.46
  10   0   2   17.89    1.33
  10   0   2   17.24    1.63
  10   0   3   -0.19    0.47
  10   0   3   -0.01    0.36
  10   0   4   60.03    3.13
  10   0   4   52.62    3.09
  10   0   5   -0.91    0.50
  10   0   5    1.18    0.69
  10   0   6   15.75    2.01
  10   0   6   15.13    1.85
  10   0   7   -0.89    0.66
  10   0   8    0.82    1.57
  10   1  -9    0.38    0.93
  10  -1  -9    0.37    0.95
  10   1  -8    2.21    1.02
  10  -1  -8    1.75    0.95
  10   1  -7   26.99    2.59
  10  -1  -7   31.35    2.74
  10   1  -6    1.13    0.76
  10  -1  -6    0.00    0.60
  10   1  -5   -0.15    0.53
  10  -1  -5    0.36    0.66
  10   1  -4    5.18    1.00
  10  -1  -4    5.81    1.01
  10   1  -3   20.24    1.55
  10  -1  -3   20.64    1.79
  10   1  -2   35.61    2.12
  10  -1  -2   38.27    2.18
  10  -1  -2   40.58    1.64
  10   1  -1   56.47    2.78
  10   1  -1   56.51    2.07
  10  -1  -1   52.50    2.70
  10  -1  -1   55.20    2.22
  10   1   0    1.86    0.54
  10   1   0    3.09    0.43
  10  -1   0    1.49    0.36
  10  -1   0    2.30    0.72
  10   1   1   12.97    0.98
  10   1   1   12.98    1.34
  10  -1   1   13.48    1.34
  10  -1   1   12.98    1.01
  10   1   2   85.92    3.81
  10   1   2   80.95    3.56
  10  -1   2   78.09    3.70
  10  -1   2   78.75    3.58
  10   1   3    0.30    0.52
  10   1   3    1.47    0.61
  10  -1   3    1.46    0.60
  10  -1   3    0.83    0.51
  10   1   4   12.85    1.53
  10   1   4   15.74    1.70
  10  -1   4   13.64    1.63
  10  -1   4   15.66    1.65
  10   1   5    3.32    0.95
  10   1   5    1.04    0.71
  10  -1   5    1.86    0.82
  10  -1   5    3.16    0.95
  10   1   6    2.95    0.93
  10   1   6    1.88    0.95
  10  -1   6    2.11    0.88
  10  -1   6    3.87    1.15
  10   1   7   -0.40    0.75
  10  -1   7    0.82    0.96
  10   1   8    1.53    1.80
  10   2  -9    0.55    0.94
  10  -2  -9    1.00    1.07
  10   2  -8   13.74    2.61
  10  -2  -8   16.98    2.18
  10   2  -7   -0.64    0.63
  10  -2  -7    0.94    0.83
  10   2  -6    1.18    0.80
  10  -2  -6    1.30    0.82
  10   2  -5    3.33    0.91
  10  -2  -5    3.31    0.92
  10   2  -4   24.44    1.80
  10  -2  -4   25.58    1.91
  10   2  -3   44.72    2.38
  10  -2  -3   39.64    2.36
  10  -2  -3   40.73    1.88
  10   2  -2   74.81    3.45
  10  -2  -2   73.34    2.89
  10   2  -1   11.95    1.31
  10  -2  -1   11.44    1.24
  10  -2  -1   11.51    0.79
  10   2   0   42.39    1.79
  10  -2   0   41.13    2.25
  10  -2   0   39.98    1.91
  10   2   1    7.01    0.79
  10   2   1    6.19    1.00
  10  -2   1    8.50    0.89
  10  -2   1    8.10    1.04
  10   2   2    3.47    0.66
  10   2   2    2.82    0.76
  10  -2   2    2.46    0.71
  10  -2   2    2.06    0.58
  10   2   3   39.81    2.43
  10   2   3   40.26    2.37
  10  -2   3   43.60    2.45
  10  -2   3   42.25    2.41
  10   2   4    2.90    0.88
  10   2   4    1.82    0.73
  10  -2   4    3.40    0.86
  10  -2   4    3.00    0.84
  10   2   5    0.49    0.65
  10   2   5    0.20    0.66
  10  -2   5   -0.50    0.49
  10  -2   5    1.69    0.75
  10   2   6    4.16    1.26
  10   2   6    4.71    1.16
  10  -2   6    2.96    0.96
  10  -2   6    5.13    1.28
  10   2   7    0.14    0.80
  10  -2   7    0.50    0.90
  10   2   8   12.38    3.33
  10   3  -9    1.05    0.92
  10  -3  -9    3.61    1.35
  10   3  -8    4.55    1.20
  10  -3  -8    4.89    1.31
  10   3  -7    0.21    0.75
  10  -3  -7    2.09    0.92
  10   3  -6    1.92    0.79
  10  -3  -6    2.42    0.94
  10   3  -5   12.05    1.40
  10  -3  -5   11.36    1.51
  10   3  -4    0.10    0.56
  10  -3  -4    0.39    0.55
  10   3  -3   57.73    2.87
  10  -3  -3   54.49    2.43
  10   3  -2   13.17    1.37
  10  -3  -2   12.58    0.88
  10  -3  -2   14.56    1.39
  10   3  -1  193.09    7.61
  10  -3  -1  199.75    7.18
  10  -3  -1  198.43    7.61
  10   3   0    3.68    0.46
  10   3   0    2.14    0.63
  10  -3   0    3.67    0.56
  10  -3   0    3.31    0.76
  10   3   1   54.59    2.34
  10   3   1   41.45    2.47
  10  -3   1   49.31    2.53
  10  -3   1   51.50    2.41
  10   3   2    4.04    0.73
  10   3   2    4.39    0.88
  10  -3   2    3.82    0.74
  10  -3   2    6.52    1.02
  10   3   3    1.58    0.74
  10   3   3    0.22    0.45
  10  -3   3    0.55    0.56
  10  -3   3    0.12    0.47
  10   3   4    1.51    0.66
  10   3   4    0.29    0.57
  10  -3   4   -0.19    0.43
  10  -3   4   -0.20    0.55
  10   3   5   33.91    2.43
  10   3   5   41.27    2.72
  10  -3   5   33.38    2.27
  10  -3   5   35.24    2.55
  10   3   6    1.17    0.86
  10   3   6    0.84    0.82
  10  -3   6    0.26    0.74
  10   3   7    7.29    1.61
  10  -3   7   11.24    1.94
  10   4  -9    0.12    0.84
  10  -4  -9    0.36    0.96
  10   4  -8    2.29    1.10
  10  -4  -8    2.28    1.02
  10   4  -7    5.56    1.25
  10   4  -7    8.53    1.40
  10  -4  -7    2.67    0.98
  10   4  -6    4.66    1.05
  10  -4  -6    3.85    1.05
  10   4  -5    0.14    0.54
  10  -4  -5   -0.57    0.62
  10   4  -4    8.52    1.13
  10  -4  -4    6.50    1.12
  10  -4  -4    6.72    1.06
  10   4  -3    8.10    1.10
  10  -4  -3    8.37    0.89
  10   4  -2   87.49    4.02
  10  -4  -2   93.59    3.67
  10  -4  -2   91.91    4.06
  10   4  -1   31.47    1.95
  10  -4  -1   33.67    1.66
  10  -4  -1   29.06    1.86
  10   4   0   46.84    2.50
 -10  -4   0   45.20    1.94
  10  -4   0   47.07    2.44
  10  -4   0   44.90    2.19
  10   4   1    5.03    0.66
  10   4   1    0.11    0.28
  10   4   1    2.03    0.41
  10  -4   1    3.95    0.68
  10  -4   1    4.02    0.80
  10   4   2   17.57    1.31
  10   4   2   15.70    1.57
  10  -4   2   15.70    1.51
  10  -4   2   17.00    1.34
  10   4   3    8.56    1.32
  10   4   3    8.45    1.13
  10  -4   3    8.83    1.22
  10  -4   3    8.18    1.12
  10   4   4    6.40    1.12
  10   4   4    5.15    1.06
  10  -4   4    4.92    1.05
  10  -4   4    4.21    0.92
  10   4   5    3.46    1.03
  10   4   5    5.04    1.11
  10  -4   5    4.04    1.10
  10  -4   5    3.90    0.90
  10   4   6    2.28    1.02
  10   4   6    2.12    1.02
  10  -4   6    2.66    1.05
  10   4   7    1.66    0.99
  10  -4   7    2.95    1.25
  10   5  -9    0.36    0.96
  10  -5  -9   -0.34    0.95
  10   5  -8    1.15    0.98
  10  -5  -8   -0.16    0.80
  10   5  -7    1.50    0.86
  10  -5  -7    2.02    0.95
  10   5  -6    4.17    0.98
  10   5  -6    3.05    1.03
  10  -5  -6    3.43    1.05
  10   5  -5   11.40    1.39
  10  -5  -5    7.15    1.27
  10   5  -4    0.54    0.55
  10  -5  -4    1.00    0.47
  10  -5  -4   -0.17    0.41
  10   5  -3   32.93    2.04
  10  -5  -3   36.62    1.90
  10   5  -2   49.57    2.47
  10  -5  -2   43.46    2.16
  10  -5  -2   42.92    2.41
  10   5  -1  132.97    5.43
  10  -5  -1  132.36    5.15
  10  -5  -1  131.06    5.41
  10   5   0   14.07    1.40
  10   5   0   15.55    1.16
  10  -5   0   16.11    1.46
 -10  -5   0   15.64    0.91
  10  -5   0   14.61    1.13
  10   5   1   69.47    3.35
 -10  -5  -1   70.01    2.95
  10  -5   1   69.11    3.20
  10  -5   1   64.60    3.12
  10   5   2   38.32    2.08
  10  -5   2   37.38    2.18
  10  -5   2   38.70    2.21
  10   5   3    1.12    0.57
  10   5   3    1.92    0.78
  10  -5   3    0.78    0.65
  10  -5   3    1.11    0.59
  10   5   4    4.55    1.00
  10   5   4    5.19    1.13
  10  -5   4    5.11    0.95
  10  -5   4    4.99    1.06
  10   5   5    0.84    0.68
  10   5   5    0.42    0.66
  10  -5   5   -0.47    0.54
  10   5   6   13.74    1.92
  10   5   6   13.26    1.83
  10  -5   6   13.77    1.98
  10   5   7    0.26    1.01
  10  -5   7   -0.82    0.71
 -10  -5  -7   -0.72    0.69
  10   6  -9    0.25    0.96
  10  -6  -9   -0.61    0.77
  10   6  -8    6.57    1.44
  10  -6  -8    4.58    1.46
  10   6  -7    0.79    0.74
  10  -6  -7    1.47    0.92
  10   6  -6    9.21    1.34
  10   6  -6    8.83    1.46
  10  -6  -6    6.99    1.34
  10   6  -5    3.34    0.86
  10   6  -5    2.83    0.91
  10  -6  -5    4.03    0.99
  10   6  -4    0.44    0.48
  10   6  -4    0.66    0.55
  10  -6  -4   -0.21    0.40
  10  -6  -4    0.27    0.44
  10   6  -3    9.24    1.18
  10  -6  -3    9.58    1.04
  10  -6  -3   11.83    1.36
  10   6  -2   26.69    1.80
  10   6  -2   26.01    1.78
  10  -6  -2   26.24    1.80
  10  -6  -2   27.90    1.62
  10   6  -1    7.90    1.03
  10   6  -1    5.37    0.84
  10  -6  -1    6.48    0.98
  10  -6  -1    7.65    0.90
  10   6   0  296.66   10.79
  10   6   0  303.26   11.10
 -10  -6   0  312.53   10.49
  10  -6   0  284.47   10.95
  10  -6   0  291.39   10.85
  10   6   1    4.88    0.93
  10  -6   1    6.03    0.96
 -10  -6  -1    6.05    0.77
  10  -6   1    6.03    0.90
  10  -6   2    3.26    0.76
 -10  -6  -2    2.68    0.67
  10  -6   2    2.47    0.71
  10   6   3    2.78    0.85
  10  -6   3    1.57    0.70
  10  -6   3    1.67    0.67
 -10  -6  -3    0.59    0.55
  10   6   4   21.03    2.06
  10   6   4   18.00    1.86
  10  -6   4   21.06    1.59
  10  -6   4   20.75    2.08
  10   6   5    1.56    0.82
  10   6   5    1.09    0.81
  10  -6   5    0.98    0.76
 -10  -6  -5    1.63    0.92
  10   6   6    1.32    0.81
  10  -6   6    1.23    0.87
 -10  -6  -6    1.02    0.95
 -10  -6  -7    0.99    0.95
  10  -6   7    0.17    0.79
  10   7  -8    1.71    1.04
  10  -7  -8    0.39    0.86
  10   7  -7    2.72    1.06
  10  -7  -7    3.37    1.10
  10   7  -6    2.24    0.89
  10  -7  -6    1.90    0.88
  10   7  -5    2.62    0.88
  10   7  -5    1.86    0.70
  10  -7  -5    1.07    0.73
  10   7  -4    7.81    1.24
  10   7  -4    8.32    1.15
  10  -7  -4    8.64    1.07
  10  -7  -4    9.78    1.36
  10   7  -3    6.18    1.06
  10   7  -3    6.92    1.05
  10  -7  -3    6.14    1.07
  10  -7  -3    4.93    0.81
  10   7  -2    1.53    0.69
  10   7  -2    1.55    0.62
  10  -7  -2    1.75    0.65
  10  -7  -2    1.55    0.55
  10   7  -1  137.54    5.41
  10   7  -1  127.48    5.42
  10  -7  -1  126.66    5.39
  10  -7  -1  134.43    5.29
  10   7   0    4.59    0.78
  10   7   0    4.48    0.93
  10  -7   0    3.77    0.75
  10  -7   0    4.85    0.88
 -10  -7   0    4.49    0.59
  10   7   1   50.25    2.32
  10   7   1   51.48    2.74
 -10  -7  -1   47.94    2.33
  10  -7   1   49.79    2.62
  10  -7   1   48.67    2.56
 -10  -7  -2    3.39    0.73
  10  -7   2    1.86    0.69
  10  -7   2    3.32    0.77
  10   7   3    0.16    0.53
 -10  -7  -3   -0.38    0.52
  10  -7   3    0.55    0.49
  10  -7   3    0.13    0.48
  10   7   4    1.20    0.73
 -10  -7  -4    0.39    0.70
  10  -7   4    1.02    0.70
  10   7   5    2.41    0.90
 -10  -7  -5    2.78    1.08
  10  -7   5    1.88    0.91
  10   7   6    9.89    1.72
 -10  -7  -6    9.73    1.71
  10  -7   6    8.53    1.66
  10  -7   7   -0.57    0.70
 -10  -7  -7    0.65    1.05
  10   8  -8    0.77    0.93
  10  -8  -8    0.55    0.86
  10   8  -7    0.63    0.79
  10  -8  -7    2.04    1.06
  10   8  -6    2.58    0.96
  10  -8  -6    0.85    0.76
  10   8  -5   -0.18    0.51
  10   8  -5    0.52    0.67
  10  -8  -5   -0.24    0.45
  10  -8  -5   -0.11    0.45
  10   8  -4    1.17    0.63
  10   8  -4    2.08    0.79
  10  -8  -4    2.78    0.94
  10  -8  -4    1.38    0.65
  10   8  -3    9.83    1.15
  10   8  -3    9.04    1.27
  10  -8  -3   10.57    1.21
  10  -8  -3   10.86    1.38
  10   8  -2   20.47    1.56
  10   8  -2   21.29    1.86
  10  -8  -2   18.53    1.46
  10  -8  -2   22.95    1.65
  10   8  -1    6.24    0.97
  10   8  -1    5.62    0.91
  10  -8  -1    4.48    0.79
  10  -8  -1    4.72    0.87
  10   8   0  102.46    4.63
  10   8   0  110.14    4.45
  10  -8   0  111.60    4.58
 -10  -8   0  105.82    4.12
  10  -8   0  100.26    4.50
  10   8   1    0.04    0.50
  10   8   1   -0.29    0.38
  10  -8   1   -0.07    0.51
  10  -8   1    0.47    0.49
 -10  -8  -1   -0.13    0.37
  10   8   2    5.77    1.10
  10  -8   2    5.61    0.92
  10  -8   2    7.42    1.12
 -10  -8  -2    6.79    1.02
  10   8   3   16.04    1.74
  10  -8   3   16.62    1.51
 -10  -8  -3   17.30    1.72
  10  -8   3   15.72    1.78
  10   8   4    1.52    0.75
 -10  -8  -4    2.13    0.83
  10  -8   4    3.78    0.99
  10   8   5    8.03    1.40
 -10  -8  -5    7.49    1.39
  10  -8   5    8.38    1.52
  10   8   6   -0.48    0.59
 -10  -8  -6    0.04    0.89
  10  -8   6    0.42    0.73
 -10  -8  -7    6.18    1.61
  10  -8   7    3.92    1.43
  10   9  -8    9.55    1.84
  10  -9  -8    8.64    1.73
  10   9  -7    8.03    1.59
  10  -9  -7    4.69    1.37
  10   9  -6    5.39    1.31
  10  -9  -6    2.50    0.95
  10   9  -5   16.26    1.93
  10  -9  -5   20.02    2.09
  10  -9  -5   19.60    1.84
  10   9  -4    1.14    0.73
  10   9  -4    2.12    0.70
  10  -9  -4    2.38    0.72
  10  -9  -4    2.68    0.88
  10   9  -3   -0.06    0.57
  10   9  -3    0.39    0.56
  10  -9  -3    0.34    0.50
  10  -9  -3    0.47    0.61
  10   9  -2    5.64    1.01
  10   9  -2    8.15    1.07
  10  -9  -2    7.14    1.00
  10  -9  -2    6.56    1.07
  10   9  -1  115.67    4.83
  10   9  -1  109.71    4.79
  10  -9  -1  109.22    4.73
  10  -9  -1  112.31    4.80
  10   9   0    2.82    0.70
  10   9   0    3.50    0.80
  10  -9   0    3.20    0.76
  10  -9   0    3.21    0.74
  10   9   1   52.62    2.86
  10   9   1   53.90    2.53
  10  -9   1   52.43    2.82
  10  -9   1   52.08    2.66
 -10  -9  -1   50.54    2.51
  10   9   2    3.63    0.95
  10  -9   2    1.96    0.77
  10  -9   2    2.99    0.74
 -10  -9  -2    3.89    0.82
  10   9   3   14.97    1.71
 -10  -9  -3   17.74    1.77
  10  -9   3   14.95    1.73
  10   9   4    0.94    0.76
 -10  -9  -4   -0.03    0.73
  10  -9   4    1.31    0.73
  10   9   5   18.63    2.13
 -10  -9  -5   22.73    2.33
  10  -9   5   19.20    2.26
  10   9   6    0.72    0.87
 -10  -9  -6    0.60    0.87
  10  -9   6    0.59    0.86
  10  -9   7    8.15    1.75
 -10  -9  -7    8.92    1.89
  10  10  -8    0.18    0.91
  10 -10  -8    0.53    0.97
  10  10  -7    1.01    0.96
  10 -10  -7    0.59    0.84
  10  10  -6   29.36    2.74
  10 -10  -6   19.10    2.25
  10  10  -5   32.41    2.45
  10 -10  -5   34.63    2.35
  10 -10  -5   33.21    2.47
  10  10  -4   46.95    2.78
  10  10  -4   47.47    2.89
  10 -10  -4   44.26    2.63
  10 -10  -4   43.92    2.77
  10  10  -3   -0.12    0.52
  10  10  -3    0.06    0.65
  10 -10  -3   -0.19    0.45
  10 -10  -3    0.25    0.57
  10  10  -2   23.18    1.78
  10  10  -2   22.67    1.65
  10 -10  -2   24.07    1.72
  10 -10  -2   21.89    1.93
  10  10  -1   55.80    2.95
  10  10  -1   58.50    2.96
  10 -10  -1   58.31    2.94
  10 -10  -1   54.23    2.87
  10  10   0   22.82    1.61
  10  10   0   24.06    1.72
  10 -10   0   21.50    1.68
  10 -10   0   20.24    1.56
  10  10   1   13.37    1.51
  10  10   1   14.64    1.34
 -10 -10  -1   15.42    1.38
  10 -10   1   18.44    1.77
  10 -10   1   16.15    1.50
  10  10   2    1.09    0.74
  10 -10   2    0.59    0.53
 -10 -10  -2    0.74    0.55
  10 -10   2    0.94    0.63
  10  10   3   10.72    1.47
  10 -10   3   10.16    1.47
 -10 -10  -3   11.74    1.45
  10  10   4   -0.73    0.42
  10 -10   4    0.02    0.62
 -10 -10  -4    1.22    0.82
  10  10   5    2.84    0.99
 -10 -10  -5    7.12    1.43
  10 -10   5    4.21    1.20
  10 -10   6    3.46    1.19
 -10 -10  -6    2.91    1.24
  10 -10   7    2.26    1.16
 -10 -10  -7    3.34    1.33
  10  11  -8    1.34    1.15
  10 -11  -8   -0.04    1.04
  10  11  -7    2.97    1.19
  10 -11  -7    2.13    1.05
  10  11  -6    3.01    1.14
  10 -11  -6    3.42    1.11
  10  11  -5    1.19    0.78
  10 -11  -5    0.50    0.76
  10 -11  -5    0.39    0.69
  10  11  -4    0.45    0.71
  10 -11  -4    0.26    0.62
  10 -11  -4    1.01    0.70
  10  11  -3   15.62    1.79
  10  11  -3   17.16    1.57
  10 -11  -3   19.10    1.86
  10 -11  -3   15.22    1.60
  10  11  -2   21.35    1.96
  10  11  -2   22.10    1.66
  10 -11  -2   24.62    1.85
  10 -11  -2   21.55    1.95
  10  11  -1   19.19    1.68
  10  11  -1   15.88    1.63
  10 -11  -1   18.70    1.67
  10 -11  -1   17.17    1.66
  10  11   0    0.32    0.54
  10  11   0    0.00    0.49
  10 -11   0    0.07    0.47
  10 -11   0   -0.21    0.44
  10  11   1    1.90    0.64
  10  11   1    0.52    0.56
 -10 -11  -1    1.62    0.61
  10 -11   1    1.38    0.68
  10 -11   1    0.32    0.53
  10  11   2   34.51    2.40
 -10 -11  -2   36.40    2.24
  10 -11   2   36.31    2.43
  10  11   3    5.93    1.24
  10 -11   3    3.29    0.95
 -10 -11  -3    6.90    1.13
  10  11   4    1.80    0.84
 -10 -11  -4    3.76    1.02
  10 -11   4    2.47    0.86
  10  11   5    3.50    1.08
  10 -11   5    3.40    1.13
 -10 -11  -5    1.82    0.97
  10 -11   6    1.36    0.94
 -10 -11  -6    3.44    1.28
  10 -11   7   -0.03    0.82
 -10 -11  -7    0.38    0.93
  10  12  -8    1.28    1.01
  10 -12  -8    1.10    1.01
  10  12  -7    0.09    0.81
  10 -12  -7   -0.09    0.84
  10  12  -6    0.00    0.80
  10 -12  -6    0.67    0.88
  10 -12  -6    1.01    0.79
  10  12  -5   19.66    2.23
  10 -12  -5   18.43    2.04
  10 -12  -5   23.10    2.36
  10  12  -4   18.02    2.05
  10 -12  -4   19.83    2.04
  10 -12  -4   18.32    1.87
  10  12  -3   22.13    2.14
  10 -12  -3   22.24    2.06
  10 -12  -3   21.97    2.04
  10  12  -2    2.99    0.79
  10  12  -2    3.58    0.97
  10 -12  -2    2.47    0.83
  10 -12  -2    1.65    0.82
  10  12  -1    6.84    1.14
  10  12  -1    5.03    0.93
  10 -12  -1    4.61    0.93
  10 -12  -1    4.23    0.93
  10  12   0  201.65    7.96
  10  12   0  207.78    8.08
  10 -12   0  200.33    8.20
  10 -12   0  205.69    7.89
  10  12   1    4.83    1.06
  10  12   1    6.12    0.97
  10 -12   1    5.08    1.02
  10 -12   1    5.59    0.93
 -10 -12  -1    5.59    0.91
  10  12   2    1.28    0.71
 -10 -12  -2    1.47    0.67
  10 -12   2    1.07    0.68
  10  12   3    1.24    0.73
 -10 -12  -3    0.37    0.70
  10 -12   3    0.08    0.61
  10  12   4    4.84    1.25
  10 -12   4    7.53    1.43
 -10 -12  -4    6.32    1.31
  10  12   5    7.93    1.47
  10 -12   5    8.84    1.60
 -10 -12  -5    7.32    1.53
  10 -12   6    0.93    0.88
 -10 -12  -6    0.02    0.87
 -10 -12  -7    0.39    1.02
  10  13  -8    3.28    1.35
  10 -13  -8    2.88    1.25
  10  13  -7    3.19    1.22
  10 -13  -7    5.02    1.44
  10  13  -6    4.11    1.22
  10 -13  -6    5.34    1.36
  10 -13  -6    3.32    1.11
  10  13  -5    2.75    1.02
  10 -13  -5    1.60    0.86
  10 -13  -5    2.55    1.00
  10  13  -4   43.33    2.95
  10 -13  -4   43.00    2.82
  10 -13  -4   41.78    2.78
  10  13  -3   74.26    3.88
  10 -13  -3   70.84    3.73
  10 -13  -3   67.43    3.66
  10  13  -2   68.98    3.63
  10  13  -2   70.58    3.34
  10 -13  -2   64.69    3.57
  10 -13  -2   66.86    3.47
  10  13  -1    1.53    0.65
  10  13  -1    1.08    0.70
  10 -13  -1    0.39    0.55
  10 -13  -1    0.29    0.54
  10  13   0    0.57    0.62
  10  13   0    0.06    0.51
  10 -13   0    0.59    0.58
  10 -13   0    1.12    0.68
  10  13   1    1.14    0.63
  10  13   1   -0.80    0.53
  10 -13   1   -0.74    0.45
 -10 -13  -1    0.39    0.47
  10  13   2    9.79    1.41
 -10 -13  -2    9.46    1.31
  10 -13   2   11.39    1.58
  10  13   3   51.11    3.21
  10 -13   3   52.17    3.27
 -10 -13  -3   54.81    3.10
  10  13   4    0.64    0.75
  10 -13   4    1.02    0.86
 -10 -13  -4    0.31    0.71
  10  13   5    4.09    1.15
  10 -13   5    3.02    1.10
 -10 -13  -5    4.46    1.23
  10 -13   6    0.59    0.93
 -10 -13  -6    1.32    1.02
  10  14  -7    2.66    1.30
  10 -14  -7    6.34    1.56
  10  14  -6    8.54    1.79
  10 -14  -6   10.70    1.78
  10 -14  -6   12.28    1.81
  10  14  -5    2.23    1.04
  10 -14  -5    3.25    1.11
  10 -14  -5    1.59    0.98
  10  14  -4   20.70    2.23
  10 -14  -4   24.60    2.34
  10 -14  -4   19.10    2.05
  10  14  -3   25.28    2.44
  10 -14  -3   24.20    2.29
  10 -14  -3   30.73    2.17
  10  14  -2   41.91    3.22
  10  14  -2   43.92    2.76
  10 -14  -2   43.50    2.75
  10 -14  -2   43.18    2.62
  10  14  -1    7.95    1.25
  10  14  -1    7.83    1.19
  10 -14  -1    9.16    1.24
  10 -14  -1    7.86    1.29
  10  14   0    1.43    0.72
  10  14   0    1.97    0.73
  10 -14   0    1.55    0.67
  10 -14   0    1.06    0.71
  10  14   1   16.32    1.78
  10  14   1   16.36    1.63
  10 -14   1   17.98    1.93
  10  14   2   12.74    1.64
  10 -14   2   13.51    1.77
 -10 -14  -2   15.10    1.63
  10  14   3   13.77    1.81
  10 -14   3   15.01    1.92
 -10 -14  -3   11.95    1.61
  10  14   4    1.04    0.80
  10 -14   4    0.77    0.82
 -10 -14  -4   -0.64    0.71
  10  14   5    7.53    1.49
  10 -14   5    7.63    1.69
 -10 -14  -5    5.75    1.40
 -10 -14  -6    0.15    0.95
  10 -14   6    0.26    0.81
  10  15  -7    1.36    1.09
  10 -15  -7   -0.48    0.75
  10  15  -6    0.38    0.95
  10 -15  -6    0.43    0.80
  10 -15  -6    1.26    0.97
  10  15  -5    8.73    1.63
  10 -15  -5    9.69    1.69
  10 -15  -5    8.08    1.49
  10  15  -4    1.59    0.92
  10 -15  -4    0.21    0.77
  10 -15  -4    0.53    0.76
  10  15  -3    8.02    1.45
  10 -15  -3   10.06    1.48
  10 -15  -3   12.32    1.70
  10  15  -2    7.01    1.29
  10 -15  -2    6.17    1.17
  10 -15  -2    5.05    1.13
  10  15  -1   76.16    3.69
  10  15  -1   80.98    3.96
  10 -15  -1   71.45    3.91
  10 -15  -1   77.56    3.72
  10  15   0    2.77    0.81
  10  15   0    2.68    0.89
  10 -15   0    1.64    0.76
  10  15   1   32.43    2.33
  10  15   1   38.04    2.36
  10 -15   1   34.81    2.53
  10  15   2    0.95    0.69
 -10 -15  -2    0.76    0.66
  10 -15   2    1.22    0.80
  10  15   3    2.11    0.94
 -10 -15  -3    2.25    0.98
  10 -15   3    4.37    1.14
  10  15   4    0.69    0.74
  10 -15   4    3.23    1.08
 -10 -15  -4    2.99    1.10
  10 -15   5    0.20    0.67
 -10 -15  -5    0.26    0.93
 -10 -15  -6    2.05    1.19
  10 -15   6    0.38    0.97
  10  16  -7    1.72    1.15
  10 -16  -7    1.53    1.20
  10  16  -6   -1.11    0.70
  10 -16  -6    1.82    1.07
  10 -16  -6    0.16    0.84
  10  16  -5   10.59    1.78
  10 -16  -5    8.26    1.55
  10 -16  -5    7.53    1.48
  10  16  -4   19.55    2.29
  10 -16  -4   17.79    2.07
  10 -16  -4   19.80    2.22
  10  16  -3    1.74    1.00
  10 -16  -3    1.31    0.90
  10 -16  -3    2.19    0.94
  10  16  -2   29.79    2.35
  10 -16  -2   32.47    2.26
  10 -16  -2   31.32    2.40
  10  16  -1    1.82    0.88
  10  16  -1    1.12    0.95
  10 -16  -1    1.35    0.69
  10 -16  -1    1.16    0.71
  10  16   0   24.95    1.87
  10  16   0   23.64    2.13
  10 -16   0   25.17    2.41
  10  16   1    3.04    0.90
  10 -16   1    2.38    0.96
  10  16   2    0.17    0.68
 -10 -16  -2    1.23    0.70
  10 -16   2    0.33    0.70
  10  16   3    3.80    1.06
  10 -16   3    4.88    1.26
 -10 -16  -3    4.11    1.11
  10  16   4    4.50    1.25
  10 -16   4    4.87    1.31
 -10 -16  -4    2.18    1.03
  10 -16   5    2.03    1.07
 -10 -16  -5    2.38    1.19
 -10 -16  -6    0.87    1.18
  10  17  -7    3.04    1.48
  10 -17  -7    4.47    1.47
  10  17  -6    4.74    1.42
  10 -17  -6    4.22    1.38
  10 -17  -6    6.82    1.58
  10  17  -5    2.14    1.12
  10 -17  -5    0.40    0.75
  10 -17  -5    2.46    1.05
  10  17  -4    0.25    0.83
  10 -17  -4    0.45    0.81
  10 -17  -4    0.85    0.78
  10  17  -3   19.91    2.29
  10 -17  -3   22.23    2.20
  10 -17  -3   21.74    2.40
  10  17  -2   12.68    1.76
  10 -17  -2   14.54    1.87
  10 -17  -2   11.21    1.56
  10  17  -1   22.86    2.28
  10 -17  -1   20.29    2.24
  10  17   0    1.92    0.74
  10  17   0    0.93    0.78
  10 -17   0   -0.27    0.69
  10  17   1    1.87    0.81
  10 -17   1    0.60    0.73
  10  17   2   30.20    2.34
 -10 -17  -2   29.52    2.96
  10 -17   2   31.93    2.93
  10  17   3    3.80    1.16
  10 -17   3    2.31    1.11
 -10 -17  -3    3.24    1.03
  10  17   4    4.68    1.26
  10 -17   4    3.20    1.12
 -10 -17  -4    2.89    1.20
 -10 -17  -5    6.60    1.57
  10 -17   5    6.55    1.58
 -10 -17  -6    1.94    1.25
  10  18  -6    2.05    1.25
  10 -18  -6    4.89    1.39
  10 -18  -6    6.11    1.53
  10  18  -5    0.39    0.93
  10 -18  -5    0.68    0.94
  10 -18  -5    0.79    0.94
  10  18  -4    6.13    1.44
  10 -18  -4    9.42    1.63
  10 -18  -4    6.74    1.35
  10  18  -3    6.19    1.38
  10 -18  -3    5.71    1.29
  10 -18  -3    5.80    1.33
  10  18  -2   56.84    3.49
  10 -18  -2   52.47    3.45
  10 -18  -2   62.44    3.35
  10  18  -1    1.16    0.91
  10 -18  -1    0.02    0.64
  10  18   0  111.93    6.49
  10  18   0  123.36    5.63
  10 -18   0  124.69    5.94
  10  18   1    1.67    0.82
  10 -18   1    3.65    1.22
  10  18   2    3.06    1.02
  10 -18   2    3.05    1.11
  10  18   3    0.09    0.72
 -10 -18  -3    0.84    0.88
  10 -18   3    0.25    0.80
  10 -18   4    9.88    1.80
 -10 -18  -4   12.43    1.90
  10 -18   5    2.82    1.18
 -10 -18  -5    0.38    1.01
  10  19  -6    0.35    0.97
  10 -19  -6   -0.71    0.89
  10 -19  -6    0.48    0.99
  10  19  -5   -0.40    0.86
  10 -19  -5   -0.14    0.86
  10 -19  -5    0.63    0.95
  10  19  -4   14.76    2.14
  10 -19  -4    8.92    1.66
  10 -19  -4    9.29    1.57
  10  19  -3    7.57    1.55
  10 -19  -3    6.01    1.46
  10 -19  -3    5.62    1.24
  10  19  -2   15.95    2.00
  10 -19  -2   13.95    1.98
  10  19  -1   25.41    2.49
  10 -19  -1   26.82    2.64
  10  19   0    0.87    0.82
  10 -19   0    1.13    0.86
  10  19   1    5.66    1.15
  10 -19   1    7.23    1.53
  10  19   2   14.30    1.84
  10 -19   2   13.45    1.97
  10  19   3    0.68    0.88
  10 -19   3    1.49    0.96
 -10 -19  -3   -0.38    0.77
 -10 -19  -4    2.28    1.04
  10 -19   4    1.18    1.07
 -10 -19  -5    0.87    1.05
  10  20  -6    5.75    1.57
  10 -20  -6    5.83    1.66
  10 -20  -6    6.17    1.60
  10  20  -5    0.27    0.93
  10 -20  -5    1.29    1.05
  10 -20  -5    0.57    0.84
  10  20  -4    3.54    1.28
  10 -20  -4    7.52    1.48
  10 -20  -4    4.28    1.25
  10  20  -3    5.49    1.41
  10 -20  -3    2.76    1.04
  10 -20  -3    5.03    1.28
  10  20  -2   17.76    2.27
  10 -20  -2   21.37    2.49
  10  20  -1   -0.70    0.76
  10 -20  -1    1.94    0.96
  10  20   0    7.77    1.53
  10 -20   0   10.55    1.73
  10 -20   1   11.87    1.86
  10  20   2    3.79    1.08
  10 -20   2    2.17    1.04
  10 -20   3    0.79    0.85
  10 -20   4    0.86    0.97
 -10 -20  -4    0.61    0.95
 -10 -20  -5    1.87    1.18
  10  21  -5    1.49    1.14
  10 -21  -5    1.99    1.07
  10 -21  -5    1.98    1.22
  10  21  -4   -0.81    0.95
  10 -21  -4    0.76    0.81
  10 -21  -4    0.11    0.98
  10  21  -3    1.87    1.07
  10 -21  -3    1.70    1.05
  10  21  -2   -0.03    0.85
  10 -21  -2   -0.67    0.68
  10  21  -1   57.70    3.70
  10 -21  -1   62.74    3.90
  10  21   0   -0.36    0.79
  10 -21   0   -0.43    0.71
  10 -21   1   19.79    2.46
  10  21   2    2.15    0.93
  10 -21   2    2.51    1.11
  10 -21   3    4.79    1.50
 -10 -21  -4   -0.65    0.91
  10 -21   4   -0.33    1.16
  10  22  -5    4.13    1.62
  10 -22  -5    5.15    1.46
  10  22  -4    4.60    1.46
  10 -22  -4    5.60    1.57
  10  22  -3    0.43    1.00
  10 -22  -3    0.63    0.90
  10  22  -2   19.48    2.44
  10 -22  -2   19.61    2.52
  10  22  -1    3.33    1.21
  10 -22  -1    3.46    1.17
  10  22   0    3.06    1.20
  10 -22   0    2.55    1.25
  10 -22   1    0.05    0.86
  10 -22   2   -0.85    0.61
  10 -22   3    0.32    0.86
  10  23  -4    2.11    1.31
  10 -23  -4    0.92    1.10
  10  23  -3    5.90    1.60
  10 -23  -3    4.39    1.43
  10  23  -2    1.24    1.20
  10 -23  -2    0.82    1.00
  10  23  -1   21.20    2.48
  10 -23  -1   20.51    2.52
  10  23   0   -1.19    0.68
  10 -23   0   -0.77    0.76
  10 -23   1    2.28    1.32
  10 -23   2    9.52    1.86
  10  24  -3    0.79    1.17
  10 -24  -3   -0.17    1.20
  10  24  -2    1.98    1.28
  10 -24  -2    1.27    1.06
  10  24  -1    7.66    1.71
  10 -24  -1    7.96    1.76
  10  24   0   16.22    2.27
  10 -24   0   14.90    2.33
  10 -24   1    1.86    1.19
  10  25  -2    0.53    1.26
  10  25  -1   -0.15    0.97
  10  26  -1    1.99    1.37
  11   0  -8    7.97    1.64
  11   0  -7   -0.82    0.64
  11   0  -6   32.40    2.78
  11   0  -5   -0.43    0.48
  11   0  -4   70.36    3.51
  11   0  -3    0.75    0.60
  11   0  -2   52.62    2.78
  11   0  -1    0.00    0.19
  11   0  -1   -0.24    0.13
  11   0   0   16.01    1.51
  11   0   0   13.36    0.89
  11   0   1   -0.09    0.45
  11   0   1   -0.17    0.30
  11   0   2    4.64    0.94
  11   0   2    3.25    0.69
  11   0   3    0.07    0.44
  11   0   3    0.82    0.58
  11   0   4    0.68    0.62
  11   0   4    0.60    0.61
  11   0   5    0.09    0.66
  11   0   5    0.07    0.64
  11   0   6   18.37    2.25
  11   0   6   21.42    2.14
  11   0   7    0.37    0.93
  11   1  -9    2.89    1.14
  11  -1  -9    2.30    1.21
  11   1  -8    8.25    1.59
  11  -1  -8    7.14    1.54
  11   1  -7    1.10    0.89
  11  -1  -7    0.46    0.90
  11   1  -6   31.42    2.35
  11  -1  -6   36.70    2.56
  11   1  -5   25.53    1.98
  11  -1  -5   29.18    2.46
  11   1  -4    6.22    1.09
  11  -1  -4    5.96    1.13
  11   1  -3   22.34    1.68
  11  -1  -3   20.94    1.91
  11   1  -2    1.82    0.67
  11  -1  -2    1.33    0.52
  11   1  -1   16.78    1.57
  11  -1  -1   16.09    0.89
  11  -1  -1   13.96    1.44
  11   1   0    7.82    0.70
  11   1   0    5.93    0.94
  11  -1   0    8.41    1.17
  11  -1   0    6.84    0.72
  11   1   1    0.58    0.54
  11   1   1    1.12    0.40
  11  -1   1    0.94    0.43
  11  -1   1    0.95    0.58
  11   1   2    5.58    0.84
  11   1   2    6.47    1.07
  11  -1   2    7.74    0.99
  11  -1   2    6.37    1.05
  11   1   3    3.76    0.78
  11   1   3    4.29    0.96
  11  -1   3    2.65    0.74
  11  -1   3    2.63    0.85
  11   1   4    0.41    0.64
  11   1   4    0.89    0.64
  11  -1   4    0.41    0.56
  11  -1   4    0.69    0.70
  11   1   5    0.67    0.67
  11   1   5    0.40    0.63
  11  -1   5    1.48    0.79
  11  -1   5    0.52    0.77
  11   1   6   -0.09    0.73
  11   1   6   -0.06    0.67
  11  -1   6   -0.83    0.59
  11  -1   6    0.97    0.78
  11   1   7    7.61    1.63
  11  -1   7    7.39    1.66
  11   2  -9    0.04    0.76
  11  -2  -9    0.99    1.13
  11   2  -8    0.17    0.87
  11  -2  -8    0.15    0.79
  11   2  -7    1.01    0.87
  11  -2  -7    1.85    0.93
  11   2  -6   23.22    2.19
  11  -2  -6   26.67    2.49
  11   2  -5   21.01    1.97
  11  -2  -5   23.55    2.18
  11   2  -4    7.44    1.15
  11  -2  -4   11.14    1.44
  11   2  -3    3.24    0.79
  11  -2  -3    0.35    0.50
  11   2  -2   18.96    1.72
  11  -2  -2   16.92    1.27
  11   2  -1   30.61    1.92
  11  -2  -1   26.26    1.82
  11  -2  -1   29.43    1.43
  11   2   0    2.46    0.42
  11  -2   0    3.82    0.82
  11  -2   0    3.34    0.54
  11   2   1   11.80    1.03
  11   2   1    8.48    1.17
  11  -2   1   12.82    1.12
  11  -2   1    9.92    1.24
  11   2   2    0.82    0.60
  11   2   2    0.43    0.43
  11  -2   2    0.23    0.56
  11  -2   2    0.80    0.49
  11   2   3   13.77    1.57
  11   2   3   14.71    1.55
  11  -2   3   13.80    1.51
  11  -2   3   14.63    1.55
  11   2   4    0.01    0.55
  11   2   4   -0.02    0.59
  11  -2   4    0.15    0.50
  11  -2   4    0.73    0.63
  11   2   5    0.05    0.65
  11   2   5    1.13    0.75
  11  -2   5    1.04    0.65
  11  -2   5    0.27    0.66
  11   2   6    4.69    1.25
  11   2   6    6.51    1.35
  11  -2   6    6.44    1.25
  11  -2   6    6.55    1.40
  11   2   7    2.91    1.32
  11  -2   7    2.79    1.18
  11   3  -9   -0.69    0.77
  11  -3  -9   -0.47    1.01
  11   3  -8    8.54    1.66
  11  -3  -8    8.12    1.59
  11   3  -7    5.83    1.26
  11  -3  -7    5.08    1.34
  11  -3  -6    3.17    0.99
  11   3  -5   20.80    1.98
  11  -3  -5   21.83    2.15
  11   3  -4    0.46    0.54
  11  -3  -4    1.03    0.71
  11   3  -2    2.35    0.71
  11  -3  -2    3.76    0.53
  11  -3  -2    2.62    0.65
  11   3  -1   27.66    1.84
  11  -3  -1   27.95    1.45
  11  -3  -1   25.95    1.79
  11   3   0    1.57    0.35
  11   3   0    1.64    0.62
  11  -3   0    0.90    0.56
  11  -3   0    0.56    0.35
  11   3   1    5.96    0.75
  11   3   1    4.68    0.88
  11  -3   1    4.25    0.70
  11  -3   1    5.75    0.97
  11   3   2   -0.24    0.49
  11   3   2   -0.58    0.36
  11  -3   2   -0.20    0.41
  11  -3   2   -0.48    0.50
  11   3   3   -0.79    0.41
  11   3   3   -0.25    0.40
  11  -3   3    0.07    0.50
  11  -3   3    0.50    0.51
  11   3   4    1.59    0.76
  11   3   4   -0.60    0.52
  11  -3   4    0.48    0.64
  11  -3   4    1.29    0.76
  11   3   5   13.02    1.74
  11   3   5   16.41    1.93
  11  -3   5   16.72    2.01
  11  -3   5   17.97    1.84
  11   3   6    4.98    1.35
  11   3   6    4.73    1.19
  11  -3   6    5.25    1.33
  11   3   7    5.63    1.45
  11  -3   7   10.03    1.87
  11   4  -9    1.52    1.11
  11  -4  -9   -0.64    0.92
  11   4  -8    1.04    0.87
  11  -4  -8   -0.83    0.88
  11   4  -7    2.53    0.96
  11   4  -7    2.25    0.91
  11  -4  -7    1.46    0.97
  11   4  -6    2.85    0.93
  11  -4  -6    3.16    1.08
  11   4  -5    7.99    1.27
  11  -4  -5    7.30    1.29
  11   4  -4   15.39    1.56
  11  -4  -4   13.07    1.60
  11   4  -3    2.93    0.79
  11   4  -2   45.18    2.52
  11  -4  -2   46.04    2.09
  11  -4  -2   41.83    2.49
  11   4  -1   53.66    2.82
  11  -4  -1   49.36    2.72
  11  -4  -1   56.16    2.44
  11   4   0    0.81    0.56
  11  -4   0   -0.33    0.44
 -11  -4   0    0.02    0.26
  11  -4   0    0.04    0.31
  11   4   1   -0.17    0.26
  11   4   1    0.03    0.20
  11   4   1    0.21    0.33
  11  -4   1    0.13    0.34
  11  -4   1    0.44    0.53
  11   4   2    3.21    0.78
  11   4   2    4.38    0.76
  11  -4   2    4.31    0.86
  11  -4   2    3.82    0.80
  11   4   3    1.55    0.67
  11   4   3    1.24    0.75
  11  -4   3    2.33    0.80
  11  -4   3    1.96    0.69
  11   4   4    3.46    0.93
  11   4   4    2.87    0.93
  11  -4   4    2.44    0.81
  11  -4   4    4.85    1.11
  11   4   5    0.12    0.61
  11   4   5    0.03    0.59
  11  -4   5    0.23    0.59
  11  -4   5   -1.46    0.58
  11   4   6    3.30    1.12
  11   4   6    1.14    0.89
  11  -4   6    2.36    0.97
  11   4   7    0.91    0.93
  11  -4   7    1.78    1.13
  11   5  -8   -0.75    0.72
  11  -5  -8    0.99    0.92
  11   5  -7    0.66    0.89
  11  -5  -7    3.16    1.18
  11   5  -6    0.93    0.75
  11   5  -6    1.13    0.76
  11  -5  -6    1.95    0.93
  11   5  -5   32.34    2.19
  11  -5  -5   31.72    2.38
  11   5  -4   22.90    1.98
  11  -5  -4   23.91    2.14
  11   5  -3   22.34    1.74
  11  -5  -3   27.13    1.57
  11   5  -2    4.36    0.87
  11  -5  -2    5.96    0.98
  11  -5  -2    5.17    0.71
  11   5  -1   20.97    1.63
  11  -5  -1   23.38    1.42
  11  -5  -1   22.23    1.66
  11   5   0    0.11    0.50
  11  -5   0    0.09    0.46
  11  -5   0   -0.09    0.32
 -11  -5   0   -0.27    0.30
  11   5   1   18.93    1.22
  11  -5   1   17.13    1.60
  11  -5   1   19.19    1.40
  11   5   2    5.73    0.88
  11  -5   2    7.26    1.11
  11  -5   2    6.57    1.04
  11   5   3    2.91    0.95
  11   5   3    4.33    0.92
  11  -5   3    4.16    0.88
  11  -5   3    2.83    0.82
  11   5   4    0.91    0.61
  11   5   4   -0.25    0.58
  11  -5   4   -0.10    0.55
  11  -5   4    0.38    0.58
  11   5   5    4.38    1.14
  11   5   5    1.80    0.90
  11  -5   5    3.76    1.09
  11   5   6   -0.66    0.53
  11   5   6   -0.27    0.77
  11  -5   6    1.12    0.96
  11   5   7   15.26    2.24
  11  -5   7    9.74    1.96
  11   6  -8    3.14    1.26
  11  -6  -8    1.97    1.10
  11   6  -7    1.08    0.89
  11  -6  -7    1.69    0.96
  11   6  -6    0.11    0.63
  11   6  -6   -1.07    0.49
  11  -6  -6   -0.06    0.77
  11   6  -5    4.46    1.05
  11   6  -5    3.38    0.90
  11  -6  -5    6.06    1.25
  11   6  -4  105.51    4.77
  11  -6  -4  112.61    5.06
  11   6  -3    3.59    0.88
  11  -6  -3    3.17    0.84
  11  -6  -3    3.55    0.70
  11   6  -2   42.76    2.42
  11  -6  -2   41.52    2.11
  11  -6  -2   37.25    2.32
  11   6  -1    4.64    0.87
  11   6  -1    4.29    0.86
  11  -6  -1    4.77    0.76
  11  -6  -1    7.29    1.09
  11   6   0   -0.21    0.58
  11   6   0    2.10    0.58
  11  -6   0    1.70    0.53
  11  -6   0    1.38    0.67
  11   6   1    2.82    0.79
  11   6   1    3.85    0.67
  11  -6   1    2.13    0.62
 -11  -6  -1    3.85    0.66
  11  -6   1    2.85    0.72
  11  -6   2    2.83    0.81
  11  -6   2    3.35    0.77
 -11  -6  -2    4.90    0.87
  11   6   3   -0.28    0.64
  11  -6   3   -0.78    0.45
 -11  -6  -3    0.05    0.56
  11  -6   3    0.39    0.57
  11   6   4    1.89    0.84
  11   6   4    0.54    0.60
  11  -6   4    1.01    0.65
  11  -6   4    1.53    0.74
 -11  -6  -4    2.08    0.84
  11   6   5    0.24    0.76
  11   6   5    0.27    0.74
 -11  -6  -5    0.90    0.84
  11  -6   5   -0.54    0.61
  11   6   6   13.50    1.92
  11  -6   6   19.83    2.36
 -11  -6  -6   13.98    1.91
  11  -6   7    1.90    1.08
 -11  -6  -7   -0.05    0.93
  11   7  -8    1.58    1.01
  11  -7  -8    1.66    0.97
  11   7  -7    0.50    0.85
  11  -7  -7    0.82    0.88
  11   7  -6    0.33    0.72
  11  -7  -6    0.40    0.71
  11   7  -5   23.94    1.84
  11   7  -5   24.13    2.32
  11  -7  -5   26.66    2.41
  11   7  -4    0.82    0.57
  11   7  -4    0.02    0.68
  11  -7  -4    1.35    0.69
  11   7  -3   25.58    1.92
  11   7  -3   25.53    1.82
  11  -7  -3   25.75    1.94
  11  -7  -3   26.82    1.72
  11   7  -2    1.25    0.62
  11   7  -2    1.19    0.61
  11  -7  -2    0.81    0.49
  11  -7  -2    0.93    0.61
  11   7  -1   13.86    1.49
  11   7  -1   14.62    1.45
  11  -7  -1   15.16    1.39
  11  -7  -1   15.41    1.55
  11   7   0    0.04    0.51
  11   7   0    0.49    0.49
  11  -7   0    0.61    0.49
  11  -7   0    0.00    0.52
  11   7   1    1.71    0.54
  11   7   1    0.45    0.57
  11  -7   1    0.63    0.53
  11  -7   1    1.09    0.63
 -11  -7  -1    1.39    0.49
  11  -7   2   21.06    1.62
 -11  -7  -2   21.04    1.55
  11  -7   2   23.43    1.79
  11   7   3    0.18    0.68
 -11  -7  -3    0.95    0.65
  11  -7   3    0.61    0.54
  11  -7   3    0.05    0.50
  11   7   4    0.50    0.65
 -11  -7  -4    1.04    0.75
  11  -7   4    0.72    0.69
  11   7   5   -0.36    0.65
  11  -7   5   -0.31    0.57
 -11  -7  -5   -0.78    0.72
  11   7   6   -0.25    0.66
  11  -7   6   -0.64    0.66
 -11  -7  -6    0.39    0.78
 -11  -7  -7   16.33    2.44
  11  -7   7   15.08    2.24
  11   8  -8    1.50    1.06
  11  -8  -8   -0.50    0.81
  11   8  -7   -0.26    0.87
  11  -8  -7   -0.08    0.71
  11   8  -6    3.33    1.08
  11  -8  -6    4.39    1.24
  11   8  -5    3.26    0.88
  11   8  -5    2.99    0.96
  11  -8  -5    2.61    0.89
  11   8  -4   56.52    3.01
  11   8  -4   56.23    3.25
  11  -8  -4   57.43    2.98
  11  -8  -4   63.12    3.36
  11   8  -3    1.31    0.69
  11   8  -3    1.36    0.66
  11  -8  -3    2.74    0.74
  11  -8  -3    1.91    0.76
  11   8  -2   31.75    2.13
  11   8  -2   33.50    2.11
  11  -8  -2   33.65    1.98
  11  -8  -2   31.56    2.13
  11   8  -1   40.60    2.33
  11   8  -1   40.43    2.38
  11  -8  -1   39.94    2.36
  11  -8  -1   43.88    2.31
  11   8   0   12.60    1.46
  11   8   0   16.84    1.28
  11  -8   0   15.46    1.50
  11  -8   0   14.07    1.45
  11   8   1    0.21    0.56
  11   8   1    0.16    0.43
  11  -8   1    0.77    0.60
 -11  -8  -1    1.05    0.48
  11  -8   1    0.62    0.53
  11   8   2    0.48    0.63
  11  -8   2   -0.15    0.46
 -11  -8  -2    0.03    0.50
  11  -8   2   -0.40    0.50
  11   8   3   21.89    2.16
  11  -8   3   21.73    2.11
 -11  -8  -3   22.50    1.72
  11  -8   3   19.10    1.73
  11   8   4    0.64    0.68
 -11  -8  -4   -0.79    0.63
  11  -8   4    0.40    0.68
  11   8   5    1.45    0.89
  11  -8   5    0.30    0.83
 -11  -8  -5    1.12    0.96
  11   8   6    3.39    1.13
  11  -8   6    5.33    1.50
 -11  -8  -6    1.81    1.13
 -11  -8  -7    7.05    1.80
  11  -8   7    5.78    1.59
  11   9  -8   -0.54    0.77
  11  -9  -8    0.42    1.03
  11   9  -7   -0.18    0.70
  11  -9  -7    0.52    0.79
  11   9  -6    0.07    0.70
  11  -9  -6    0.35    0.66
  11   9  -5   13.23    1.81
  11  -9  -5   14.31    1.84
  11   9  -4    8.71    1.42
  11   9  -4    9.73    1.29
  11  -9  -4   11.25    1.56
  11  -9  -4    8.25    1.21
  11   9  -3   70.46    3.65
  11   9  -3   66.69    3.35
  11  -9  -3   68.21    3.56
  11  -9  -3   70.01    3.40
  11   9  -2    0.20    0.54
  11   9  -2    0.10    0.49
  11  -9  -2    0.48    0.65
  11   9  -1    3.37    0.83
  11   9  -1    4.51    0.87
  11  -9  -1    5.97    0.97
  11  -9  -1    4.70    0.95
  11   9   0    4.49    0.84
  11   9   0    2.79    0.85
  11  -9   0    3.70    0.85
  11  -9   0    3.70    0.83
  11   9   1   27.87    1.69
  11   9   1   29.19    2.10
 -11  -9  -1   28.17    1.70
  11  -9   1   25.18    1.86
  11  -9   1   29.23    1.91
  11   9   2    4.13    1.02
  11  -9   2    2.34    0.81
 -11  -9  -2    3.47    0.78
  11  -9   2    3.61    0.81
  11   9   3   13.52    1.69
  11  -9   3    8.25    1.36
 -11  -9  -3   14.69    1.58
  11   9   4   -0.11    0.57
 -11  -9  -4   -0.47    0.67
  11  -9   4    0.19    0.71
  11   9   5   35.14    3.09
 -11  -9  -5   33.85    2.64
  11  -9   5   34.98    2.77
  11   9   6    2.09    1.09
 -11  -9  -6    2.15    1.08
  11  -9   6    2.15    1.06
 -11  -9  -7    1.63    1.27
  11  -9   7    2.33    1.27
  11  10  -8   -0.28    0.89
  11 -10  -8    1.56    1.05
  11  10  -7   -0.97    0.68
  11 -10  -7    0.97    0.85
  11  10  -6   15.62    2.07
  11 -10  -6   18.44    2.13
  11  10  -5   -0.55    0.56
  11 -10  -5   -0.23    0.70
  11  10  -4   28.86    2.03
  11  10  -4   25.41    2.42
  11 -10  -4   32.27    2.32
  11 -10  -4   35.51    2.24
  11  10  -3    1.44    0.80
  11  10  -3    1.27    0.64
  11 -10  -3    1.46    0.71
  11 -10  -3    0.88    0.75
  11  10  -2   10.04    1.25
  11  10  -2    7.94    1.22
  11 -10  -2    7.47    1.25
  11 -10  -2    8.35    1.11
  11  10  -1    1.88    0.77
  11  10  -1    3.44    0.87
  11 -10  -1    4.04    0.83
  11 -10  -1    4.62    0.94
  11  10   0   17.62    1.60
  11  10   0   17.92    1.75
  11 -10   0   18.29    1.73
  11 -10   0   15.86    1.60
  11  10   1    3.82    0.89
  11  10   1    2.83    0.83
  11 -10   1    3.07    0.79
 -11 -10  -1    2.92    0.78
  11 -10   1    2.20    0.82
  11  10   2    5.80    1.22
  11 -10   2    8.74    1.15
  11 -10   2    8.31    1.29
 -11 -10  -2    7.22    1.06
  11  10   3    3.16    0.95
  11 -10   3    1.46    0.74
 -11 -10  -3    1.55    0.73
  11  10   4    8.60    1.46
  11 -10   4    5.40    1.26
 -11 -10  -4    6.84    1.29
  11  10   5    2.15    0.94
 -11 -10  -5    0.61    0.91
  11 -10   5   -0.11    0.73
  11  10   6    4.66    1.30
  11 -10   6    7.01    1.62
 -11 -10  -6    4.74    1.39
 -11 -10  -7   10.28    2.04
  11  11  -8    5.45    1.58
  11 -11  -8    4.25    1.37
  11  11  -7    0.25    0.84
  11 -11  -7   -0.33    0.67
  11  11  -6    7.42    1.52
  11 -11  -6    5.10    1.31
  11  11  -5   54.85    3.37
  11 -11  -5   49.41    3.22
  11  11  -4   22.12    2.28
  11 -11  -4   27.81    2.46
  11 -11  -4   24.46    1.95
  11  11  -3    7.79    1.16
  11  11  -3    9.16    1.41
  11 -11  -3   10.06    1.38
  11 -11  -3    7.84    1.33
  11  11  -2   52.73    2.95
  11  11  -2   46.88    2.71
  11 -11  -2   50.88    2.85
  11 -11  -2   51.93    2.84
  11  11  -1    3.17    0.85
  11  11  -1    3.67    0.84
  11 -11  -1    3.57    0.85
  11 -11  -1    2.64    0.78
  11  11   0   30.83    2.14
  11  11   0   31.30    2.01
  11 -11   0   29.69    2.00
  11 -11   0   30.61    2.08
  11  11   1    0.30    0.57
  11 -11   1    0.13    0.53
  11 -11   1    0.78    0.65
  11  11   2   20.65    2.08
 -11 -11  -2   20.22    1.79
  11 -11   2   13.63    1.69
  11  11   3    1.03    0.70
 -11 -11  -3    1.78    0.77
  11 -11   3    1.57    0.86
  11  11   4   17.72    2.08
 -11 -11  -4   13.44    1.78
  11 -11   4   15.05    1.94
  11  11   5   -0.38    0.56
 -11 -11  -5   -0.84    0.67
  11 -11   5    0.85    0.83
  11  11   6    3.50    1.15
  11 -11   6    4.38    1.45
 -11 -11  -6    2.95    1.28
 -11 -11  -7    2.97    1.32
  11  12  -8    3.24    1.37
  11 -12  -8    3.01    1.38
  11  12  -7    0.99    0.97
  11 -12  -7    0.06    0.94
  11  12  -6    2.09    1.02
  11 -12  -6    0.00    0.65
  11  12  -5    2.16    1.06
  11 -12  -5    2.79    0.95
  11 -12  -5    2.13    0.88
  11  12  -4  131.66    6.09
  11 -12  -4  137.67    5.88
  11 -12  -4  123.39    5.93
  11  12  -3    7.74    1.10
  11  12  -3    8.49    1.40
  11 -12  -3    6.43    1.13
  11 -12  -3    7.95    1.33
  11  12  -2   62.72    3.33
  11  12  -2   54.71    3.04
  11 -12  -2   61.63    3.24
  11 -12  -2   61.10    3.24
  11  12  -1    6.98    1.16
  11  12  -1    5.49    0.99
  11 -12  -1    8.12    1.21
  11 -12  -1    8.14    1.25
  11  12   0   15.80    1.67
  11  12   0   18.03    1.75
  11 -12   0   16.45    1.62
  11 -12   0   19.73    1.89
  11  12   1    1.74    0.78
  11 -12   1    2.29    0.72
  11 -12   1    1.54    0.78
  11  12   2   49.41    3.04
 -11 -12  -2   53.90    2.84
  11 -12   2   45.34    2.97
  11  12   3    0.33    0.75
 -11 -12  -3    0.66    0.66
  11 -12   3    0.70    0.71
  11  12   4    7.53    1.39
  11 -12   4    7.22    1.42
 -11 -12  -4    9.86    1.51
  11  12   5    1.73    0.90
 -11 -12  -5    2.78    1.11
  11 -12   5    1.74    1.02
 -11 -12  -6   10.95    1.87
  11 -12   6    8.38    1.79
  11  13  -7    5.95    1.52
  11 -13  -7    8.92    1.69
  11  13  -6    0.72    0.83
  11 -13  -6    1.17    0.99
  11  13  -5    7.26    1.46
  11 -13  -5    4.98    1.33
  11 -13  -5    8.01    1.40
  11  13  -4    2.54    1.00
  11 -13  -4    3.42    1.03
  11 -13  -4    5.13    1.17
  11  13  -3   50.31    3.20
  11 -13  -3   56.67    3.26
  11 -13  -3   57.96    3.24
  11  13  -2    8.09    1.40
  11  13  -2    6.72    1.10
  11 -13  -2    6.96    1.19
  11 -13  -2    5.57    1.06
  11  13  -1    9.50    1.33
  11  13  -1   11.39    1.47
  11 -13  -1   10.16    1.38
  11 -13  -1   10.39    1.40
  11  13   0    3.15    0.88
  11  13   0    3.97    1.00
  11 -13   0    3.29    0.85
  11 -13   0    3.47    0.94
  11  13   1    1.78    0.81
  11 -13   1    1.09    0.75
  11  13   2   12.11    1.67
  11 -13   2   15.73    1.90
 -11 -13  -2   14.40    1.59
  11  13   3    0.72    0.75
 -11 -13  -3    2.34    0.87
  11 -13   3    0.69    0.80
  11  13   4    3.42    1.08
  11 -13   4    4.14    1.22
 -11 -13  -4    4.95    1.19
  11  13   5   -0.63    0.69
 -11 -13  -5    0.10    0.74
  11 -13   5    0.07    0.71
  11 -13   6    0.99    1.00
 -11 -13  -6    0.09    0.92
  11  14  -7   -0.40    0.86
  11 -14  -7   -0.96    0.73
  11  14  -6   12.72    2.04
  11 -14  -6   11.50    1.98
  11  14  -5   14.04    1.99
  11 -14  -5   14.65    1.90
  11 -14  -5   16.15    2.07
  11  14  -4   14.58    1.96
  11 -14  -4   15.36    1.95
  11 -14  -4   14.88    1.86
  11  14  -3   -0.81    0.73
  11 -14  -3    0.18    0.63
  11 -14  -3   -0.23    0.58
  11  14  -2   10.67    1.32
  11  14  -2    9.53    1.49
  11 -14  -2    9.31    1.37
  11 -14  -2    9.42    1.43
  11  14  -1   28.23    2.00
  11  14  -1   27.92    2.13
  11 -14  -1   24.62    1.92
  11 -14  -1   23.62    2.24
  11  14   0    0.87    0.64
  11  14   0   -0.16    0.54
  11 -14   0    1.73    0.70
  11 -14   0    2.31    0.85
  11  14   1    8.53    1.34
  11 -14   1   10.58    1.53
  11  14   2   -0.59    0.62
  11 -14   2   -0.41    0.56
  11  14   3   25.17    2.51
  11 -14   3   28.95    2.68
 -11 -14  -3   23.42    2.21
  11  14   4   10.32    1.63
 -11 -14  -4    6.77    1.44
  11 -14   4    5.90    1.40
  11  14   5   -0.18    0.70
 -11 -14  -5   -0.92    0.71
  11 -14   5    0.57    0.78
  11 -14   6    6.75    1.65
 -11 -14  -6    8.73    1.71
  11  15  -7    1.45    1.16
  11 -15  -7    4.74    1.43
  11  15  -6   -0.58    0.70
  11 -15  -6    0.52    0.83
  11  15  -5   13.10    1.95
  11 -15  -5    9.86    1.65
  11 -15  -5   14.29    1.93
  11  15  -4    6.32    1.46
  11 -15  -4    3.48    1.15
  11 -15  -4    5.36    1.25
  11  15  -3   77.79    4.21
  11 -15  -3   74.54    4.01
  11 -15  -3   78.46    4.14
  11  15  -2   -0.13    0.68
  11 -15  -2    0.30    0.63
  11 -15  -2    0.43    0.61
  11  15  -1   19.63    1.99
  11  15  -1   20.20    1.90
  11 -15  -1   17.90    1.96
  11 -15  -1   17.98    1.81
  11  15   0   14.63    1.71
  11  15   0   15.06    1.73
  11 -15   0   13.83    1.80
  11  15   1   15.88    1.82
  11 -15   1   18.36    2.03
  11  15   2    1.94    0.90
  11 -15   2    2.84    1.03
  11  15   3    0.24    0.68
 -11 -15  -3    0.53    0.65
  11 -15   3    0.51    0.72
  11  15   4   -0.08    0.73
 -11 -15  -4    1.61    0.86
  11 -15   4    1.37    1.00
  11  15   5   27.71    2.97
  11 -15   5   29.82    3.17
 -11 -15  -5   29.39    2.90
 -11 -15  -6    1.47    1.10
  11  16  -7    1.28    1.13
  11 -16  -7   -0.08    0.96
  11  16  -6    2.84    1.15
  11 -16  -6    5.64    1.48
  11  16  -5   -0.44    0.69
  11 -16  -5    0.82    0.88
  11 -16  -5    0.03    0.72
  11  16  -4   12.04    1.84
  11 -16  -4   11.87    1.75
  11 -16  -4   11.50    1.79
  11  16  -3    0.09    0.78
  11 -16  -3    0.31    0.79
  11 -16  -3    0.77    0.72
  11  16  -2   16.80    2.06
  11 -16  -2   17.79    1.93
  11 -16  -2   16.58    1.99
  11  16  -1    1.63    0.75
  11  16  -1    4.04    1.10
  11 -16  -1    4.17    1.08
  11 -16  -1    2.68    0.85
  11  16   0    4.50    1.05
  11  16   0    4.95    1.06
  11 -16   0    5.77    1.30
  11  16   1    5.11    1.16
  11 -16   1    6.89    1.30
  11  16   2    0.89    0.74
  11 -16   2   -0.29    0.62
  11  16   3    2.64    1.05
  11 -16   3    3.65    1.17
 -11 -16  -3    2.10    0.90
  11  16   4   -0.29    0.69
  11 -16   4    0.24    0.87
 -11 -16  -4    0.32    0.83
 -11 -16  -5    7.93    1.68
  11 -16   5    5.27    1.46
 -11 -16  -6    5.82    1.58
  11  17  -6   -0.97    0.77
  11 -17  -6   -0.33    0.78
  11  17  -5    0.42    0.83
  11 -17  -5    1.04    0.89
  11 -17  -5    2.46    1.05
  11  17  -4    4.13    1.26
  11 -17  -4    5.75    1.32
  11 -17  -4    2.94    1.17
  11  17  -3    7.66    1.51
  11 -17  -3    6.93    1.32
  11 -17  -3    7.79    1.47
  11  17  -2    8.58    1.53
  11 -17  -2    8.37    1.49
  11 -17  -2    9.98    1.47
  11  17  -1   12.51    1.70
  11 -17  -1   18.28    2.12
  11  17   0   17.98    2.00
  11  17   0   24.46    2.19
  11 -17   0   21.23    2.29
  11  17   1    1.02    0.71
  11 -17   1   -0.39    0.65
  11  17   2    7.88    1.45
  11 -17   2    7.79    1.54
  11  17   3    0.28    0.73
  11 -17   3    1.20    0.93
  11  17   4    3.73    1.16
 -11 -17  -4    2.33    0.95
  11 -17   4    2.29    1.17
  11 -17   5   -0.03    0.92
 -11 -17  -5    0.94    1.10
  11  18  -6    0.28    1.04
  11 -18  -6    0.95    0.95
  11 -18  -6    0.95    1.70
  11  18  -5    0.90    1.00
  11 -18  -5    1.13    0.92
  11 -18  -5    2.09    1.09
  11  18  -4   12.20    1.94
  11 -18  -4   13.15    1.95
  11 -18  -4   11.79    1.77
  11  18  -3    0.53    0.81
  11 -18  -3    1.02    0.91
  11 -18  -3    1.67    0.99
  11  18  -2   54.43    3.46
  11 -18  -2   53.99    3.25
  11 -18  -2   60.43    3.61
  11  18  -1    0.85    0.88
  11 -18  -1    2.15    0.90
  11  18   0    3.93    1.15
  11  18   0    3.82    1.02
  11 -18   0    5.72    1.33
  11  18   1    3.74    1.04
  11 -18   1    4.28    1.22
  11  18   2    8.08    1.36
  11 -18   2    4.60    1.34
  11  18   3    0.32    0.83
  11 -18   3   -0.04    0.74
  11  18   4   16.13    2.24
 -11 -18  -4   20.89    2.42
  11 -18   4   16.88    2.35
 -11 -18  -5    1.00    1.17
  11 -18   5   -0.39    1.26
  11  19  -6    0.66    1.04
  11 -19  -6    0.35    1.03
  11 -19  -6    0.45    1.00
  11  19  -5   15.62    2.26
  11 -19  -5   10.24    1.89
  11 -19  -5    8.17    1.66
  11  19  -4    1.46    1.13
  11 -19  -4    2.66    1.07
  11 -19  -4    2.20    0.98
  11  19  -3    2.53    1.15
  11 -19  -3    0.78    0.94
  11 -19  -3    2.71    1.04
  11  19  -2    1.01    0.93
  11 -19  -2    0.78    0.84
  11  19  -1   10.19    1.67
  11 -19  -1    7.74    1.57
  11  19   0    0.41    0.82
  11 -19   0    0.87    0.85
  11  19   1    2.75    0.95
  11 -19   1    2.35    1.03
  11  19   2    3.88    1.13
  11 -19   2    5.69    1.55
  11  19   3    2.16    1.05
  11 -19   3    1.86    1.09
  11 -19   4    1.94    1.06
 -11 -19  -5    0.14    1.01
  11  20  -5    8.96    1.82
  11 -20  -5    7.71    1.78
  11 -20  -5    6.53    1.59
  11  20  -4    3.41    1.35
  11 -20  -4    5.88    1.48
  11 -20  -4    3.22    1.22
  11  20  -3    1.64    1.06
  11 -20  -3    2.55    1.15
  11 -20  -3    1.17    0.94
  11  20  -2    5.11    1.39
  11 -20  -2    3.56    1.15
  11  20  -1   27.50    2.71
  11 -20  -1   24.76    2.65
  11  20   0   -0.47    0.83
  11 -20   0    1.74    0.97
  11 -20   1    2.23    1.15
  11  20   2    0.19    0.76
  11 -20   2    0.22    0.78
  11  20   3   11.44    1.82
  11 -20   3    9.59    1.82
  11 -20   4    2.62    1.23
  11  21  -5    3.16    1.35
  11 -21  -5    0.29    0.87
  11 -21  -5    2.63    1.19
  11  21  -4    1.75    1.13
  11 -21  -4   -1.35    0.76
  11 -21  -4   -0.58    0.75
  11  21  -3   42.30    3.24
  11 -21  -3   41.63    3.24
  11  21  -2    2.13    1.09
  11 -21  -2    2.77    1.18
  11 -21  -1    5.51    1.41
  11  21   0    4.80    1.27
  11 -21   0    4.71    1.39
  11 -21   1    2.53    1.20
  11  21   2    0.40    0.78
  11 -21   2   -0.70    0.84
  11 -21   3    3.32    1.29
  11  22  -4    6.19    1.68
  11 -22  -4    3.86    1.43
  11  22  -3    1.29    1.24
  11 -22  -3    5.13    1.58
  11  22  -2    0.70    1.01
  11 -22  -2    1.38    0.95
  11  22  -1    3.90    1.30
  11 -22  -1    1.05    0.97
  11 -22   0    1.98    1.13
  11 -22   1    2.97    1.18
  11 -22   2    0.69    0.89
  11  23  -4   13.15    2.24
  11  23  -3   11.88    2.05
  11 -23  -3   10.69    1.99
  11  23  -2    5.32    1.63
  11 -23  -2    6.48    1.53
  11  23  -1    1.96    1.18
  11 -23  -1    1.48    0.97
  11 -23   0   10.34    1.94
  11 -23   1   -0.62    0.77
  11 -23   2    2.58    1.47
  11  24  -3    0.83    1.20
  11  24  -2   15.32    2.44
  11 -24  -2   22.01    2.86
  11  24  -1    0.68    1.05
  11 -24  -1   -0.10    0.91
  11 -24   0    3.42    1.42
  11  25  -2    0.75    1.34
  11  25  -1   -0.65    0.98
  12   0  -8    0.91    1.04
  12   0  -7   -0.84    0.76
  12   0  -6  144.11    6.45
  12   0  -5    0.51    0.67
  12   0  -4   16.99    1.79
  12   0  -3    0.01    0.51
  12   0  -2    0.36    0.46
  12   0  -1    0.02    0.21
  12   0   0    0.67    0.32
  12   0   0   -0.10    0.49
  12   0   1    0.22    0.32
  12   0   1   -0.35    0.55
  12   0   2   20.98    1.90
  12   0   2   21.96    1.55
  12   0   3   -0.61    0.51
  12   0   3   -0.24    0.48
  12   0   4  132.05    5.91
  12   0   4  134.87    5.96
  12   0   5   -0.32    0.66
  12   0   5    0.03    0.65
  12   0   6    2.39    1.01
  12   0   6    2.03    0.88
  12   0   7    0.72    0.85
  12   0   7   -0.25    0.80
  12   1  -8    0.43    0.91
  12  -1  -8   -0.41    0.90
  12   1  -7   18.72    2.12
  12  -1  -7   12.43    1.93
  12   1  -6   12.05    1.68
  12  -1  -6   11.29    1.67
  12   1  -5   25.29    2.25
  12  -1  -5   25.12    2.28
  12   1  -4   47.30    2.88
  12  -1  -4   55.61    2.99
  12   1  -3   40.57    2.40
  12  -1  -3   37.31    2.37
  12   1  -2    7.42    1.14
  12  -1  -1    4.39    0.83
  12   1   0   13.24    0.89
  12  -1   0   11.10    1.36
  12  -1   0   14.73    0.98
  12   1   1   23.47    1.79
  12   1   1   23.76    1.43
  12  -1   1   20.93    1.89
  12  -1   1   22.69    1.44
  12   1   2    1.92    0.79
  12   1   2    2.04    0.57
  12  -1   2    0.43    0.48
  12  -1   2    1.34    0.68
  12   1   3   16.70    1.82
  12   1   3   19.09    1.75
  12  -1   3   13.57    1.52
  12  -1   3   16.78    1.79
  12   1   4    1.44    0.75
  12   1   4    0.71    0.64
  12  -1   4    0.52    0.70
  12  -1   4    0.75    0.65
  12   1   5   23.92    2.36
  12   1   5   24.17    2.35
  12  -1   5   26.39    2.47
  12  -1   5   24.82    2.40
  12   1   6    8.91    1.66
  12   1   6   11.49    1.75
  12  -1   6    6.94    1.48
  12  -1   6   10.63    1.60
  12   1   7    8.84    1.77
  12  -1   7   10.98    1.96
  12   2  -8    8.81    1.71
  12  -2  -8    8.50    1.66
  12   2  -7    5.74    1.33
  12  -2  -7    3.79    1.21
  12   2  -6   19.33    2.04
  12  -2  -6   19.35    2.15
  12   2  -5   17.38    1.89
  12  -2  -5   17.46    1.92
  12   2  -4   30.02    2.09
  12  -2  -4   26.79    2.33
  12   2  -3    2.62    0.85
  12  -2  -3    1.12    0.60
  12   2  -2   -0.14    0.50
  12  -2  -2   -0.02    0.20
  12   2  -1   48.91    2.85
  12  -2  -1   57.33    2.96
  12  -2  -1   58.87    2.60
  12  -2   0    8.50    0.86
  12  -2   0    7.27    1.12
  12   2   1    9.63    1.28
  12   2   1   11.06    1.02
  12  -2   1    9.07    1.04
  12  -2   1   11.94    1.45
  12   2   2    5.13    1.09
  12   2   2    4.20    0.77
  12  -2   2    4.61    0.82
  12  -2   2    4.68    0.95
  12   2   3    8.86    1.20
  12   2   3    7.77    1.26
  12  -2   3    7.40    1.16
  12  -2   3    8.91    1.31
  12   2   4    4.61    1.06
  12   2   4    3.80    1.03
  12  -2   4    4.57    1.07
  12  -2   4    6.68    1.24
  12   2   5    2.11    0.97
  12   2   5    2.18    0.94
  12  -2   5    2.51    0.93
  12  -2   5    4.50    1.17
  12   2   6   48.02    3.34
  12   2   6   48.33    3.23
  12  -2   6   48.71    3.37
  12  -2   6   52.24    3.16
  12   2   7   -0.10    0.99
  12   2   7    0.67    0.90
  12  -2   7   -0.61    0.82
  12  -3  -8    5.36    1.48
  12   3  -7   27.92    2.54
  12  -3  -7   25.00    2.72
  12   3  -6    1.12    0.80
  12  -3  -6    0.57    0.84
  12   3  -5   95.89    4.71
  12  -3  -5  105.87    4.94
  12   3  -4    2.33    0.82
  12  -3  -4    1.38    0.78
  12   3  -3    2.73    0.84
  12  -3  -3    0.53    0.42
  12   3  -2    4.74    0.94
  12   3  -1   53.84    2.93
  12  -3  -1   62.90    3.03
  12  -3  -1   51.85    2.40
  12   3   0   -0.10    0.24
  12  -3   0    0.06    0.30
  12  -3   0   -0.58    0.53
  12   3   1    8.56    0.92
  12  -3   1    8.39    1.18
  12  -3   1    9.52    1.04
  12   3   2    4.99    0.86
  12   3   2    4.71    1.02
  12  -3   2    4.60    0.88
  12  -3   2    3.27    0.93
  12   3   3   20.78    2.05
  12   3   3   16.96    1.67
  12  -3   3   14.87    1.68
  12  -3   3   17.29    1.75
  12   3   4   -0.74    0.48
  12   3   4    0.10    0.60
  12  -3   4    0.32    0.57
  12  -3   4   -0.03    0.60
  12   3   5    4.61    1.25
  12   3   5    7.59    1.37
  12  -3   5    8.06    1.44
  12  -3   5    4.91    1.11
  12   3   6   -0.57    0.64
  12   3   6    0.71    0.81
  12  -3   6    0.64    0.88
  12   3   7    3.60    1.17
  12   3   7    1.50    1.00
  12  -3   7    7.36    1.73
  12   4  -8   -0.02    0.80
  12  -4  -8   -0.59    0.82
  12   4  -7    2.26    1.01
  12   4  -7    4.07    1.13
  12  -4  -7    2.89    1.14
  12   4  -6   26.77    2.45
  12  -4  -6   23.29    2.43
  12   4  -5   -0.47    0.58
  12  -4  -5    0.51    0.75
  12   4  -4   23.11    2.03
  12  -4  -4   19.00    1.95
  12   4  -3    8.77    1.27
  12   4  -2    6.49    1.07
  12  -4  -2    7.98    1.17
  12   4  -1   10.54    1.32
  12  -4  -1   11.88    1.46
  12  -4  -1   13.33    1.12
  12  -4   0   25.03    1.85
  12  -4   0   28.40    1.62
  12   4   1    2.32    0.55
  12  -4   1    2.26    0.71
  12  -4   1    2.56    0.61
  12   4   2   -0.02    0.44
  12   4   2   -0.12    0.59
  12  -4   2    0.52    0.56
  12  -4   2    1.02    0.55
  12   4   3   18.22    1.91
  12   4   3   17.40    1.72
  12  -4   3   18.30    1.84
  12  -4   3   18.58    1.83
  12   4   4   40.70    2.65
  12   4   4   38.94    2.69
  12  -4   4   40.46    2.72
  12  -4   4   42.06    2.59
  12   4   5   -0.44    0.67
  12   4   5   -0.02    0.62
  12  -4   5    0.59    0.68
  12  -4   5    0.46    0.70
  12   4   6    7.71    1.57
  12   4   6    6.29    1.44
  12  -4   6    8.82    1.62
  12   4   7   -0.70    0.73
  12   4   7    1.32    1.07
  12  -4   7    1.55    1.05
  12   5  -8   13.07    2.05
  12  -5  -8   13.66    2.19
  12   5  -7   11.18    1.84
  12  -5  -7    8.30    1.64
  12   5  -6    7.18    1.33
  12  -5  -6    5.30    1.28
  12   5  -5   16.68    1.78
  12  -5  -5   15.19    1.82
  12   5  -4    1.05    0.70
  12  -5  -4    1.35    0.70
  12   5  -3    9.98    1.34
  12  -5  -3   13.19    1.52
  12   5  -2    0.55    0.66
  12  -5  -2    1.62    0.69
  12  -5  -2    0.95    0.44
  12   5  -1   14.78    1.55
  12  -5  -1   18.92    1.77
  12  -5  -1   14.46    1.12
  12   5   0    2.39    0.81
  12  -5   0    1.48    0.65
  12  -5   0    1.91    0.56
  12   5   1    0.69    0.40
  12  -5   1   -0.10    0.33
 -12  -5  -1   -0.26    0.37
  12  -5   1   -0.11    0.50
  12   5   2   19.03    1.97
  12   5   2   22.41    1.55
  12  -5   2   23.14    1.70
  12  -5   2   22.99    2.00
  12   5   3    5.95    1.00
  12   5   3    6.40    1.20
  12  -5   3    7.65    1.19
  12  -5   3    5.64    1.07
  12   5   4    0.88    0.71
  12   5   4    0.16    0.73
  12  -5   4    0.58    0.62
  12  -5   4    0.56    0.59
  12   5   5   14.61    1.95
  12   5   5   17.45    2.01
  12  -5   5   22.81    2.49
  12   5   6    7.13    1.48
  12   5   6    7.13    1.53
  12  -5   6    8.97    1.65
 -12  -5  -7    5.15    1.49
  12  -5   7   10.29    1.98
  12   6  -8    2.10    1.09
  12  -6  -8    2.81    1.15
  12   6  -7   -0.03    0.82
  12  -6  -7   -0.04    0.82
  12   6  -6   43.21    2.70
  12   6  -6   39.72    2.87
  12  -6  -6   40.97    2.92
  12   6  -5    6.19    1.17
  12   6  -5    6.40    1.23
  12  -6  -5    6.69    1.29
  12   6  -4    4.07    0.95
  12  -6  -4    4.90    1.06
  12   6  -3    0.69    0.63
  12  -6  -3    0.13    0.56
  12   6  -2    1.84    0.74
  12  -6  -2    1.52    0.69
  12  -6  -2    2.26    0.56
  12   6  -1    5.58    0.96
  12   6  -1    5.48    1.07
  12  -6  -1    6.31    0.87
  12  -6  -1    5.80    1.05
  12   6   0   16.24    1.69
  12   6   0   11.49    1.21
  12  -6   0   12.20    1.40
  12  -6   0   13.71    1.30
  12   6   1   -0.17    0.53
 -12  -6  -1    0.10    0.46
  12  -6   1    0.29    0.39
  12  -6   1   -0.13    0.56
  12   6   2    7.08    1.21
  12  -6   2    9.63    1.30
 -12  -6  -2    9.84    1.15
  12  -6   2    7.80    1.11
  12   6   3    1.17    0.73
  12  -6   3    1.24    0.65
  12  -6   3    0.12    0.58
 -12  -6  -3    0.47    0.63
  12   6   4   15.79    1.90
  12   6   4   15.17    1.77
  12  -6   4   11.90    1.48
  12  -6   4   14.43    1.80
  12   6   5    0.38    0.69
  12   6   5    0.29    0.68
  12  -6   5    0.07    0.69
 -12  -6  -5   -0.19    0.71
  12   6   6    1.27    0.88
 -12  -6  -6    0.34    0.82
  12  -6   6   -0.63    0.66
 -12  -6  -7    0.51    0.97
  12  -6   7    2.60    1.22
  12   7  -8    1.60    1.11
  12  -7  -8    0.64    1.00
  12   7  -7    1.32    0.89
  12  -7  -7    1.69    0.98
  12   7  -6   -0.42    0.62
  12  -7  -6   -0.97    0.63
  12   7  -5   13.29    1.77
  12   7  -5   13.75    1.60
  12  -7  -5   11.26    1.69
  12   7  -4   13.01    1.50
  12   7  -4   11.75    1.62
  12  -7  -4   14.23    1.72
  12   7  -3    3.40    0.91
  12   7  -3    7.14    1.13
  12  -7  -3    2.99    0.92
  12   7  -2    6.92    1.10
  12   7  -2    9.11    1.27
  12  -7  -2    6.29    1.18
  12  -7  -2    9.00    1.04
  12   7  -1    2.44    0.70
  12   7  -1    4.56    0.96
  12  -7  -1    3.14    0.69
  12  -7  -1    2.30    0.80
  12   7   0    5.25    0.90
  12   7   0    7.17    1.21
  12  -7   0    6.31    1.10
  12  -7   0    5.75    0.93
  12   7   1    2.68    0.83
  12  -7   1    1.92    0.60
  12  -7   1    2.30    0.73
  12   7   2    4.26    1.00
  12  -7   2    2.75    0.83
 -12  -7  -2    3.14    0.79
  12  -7   2    3.63    0.86
  12   7   3    3.66    0.98
  12  -7   3    4.17    0.96
  12  -7   3    4.72    0.98
 -12  -7  -3    5.42    1.07
  12   7   4    8.62    1.47
 -12  -7  -4    9.08    1.41
  12  -7   4    9.49    1.56
  12   7   5   38.66    2.87
  12  -7   5   36.46    2.84
 -12  -7  -5   37.46    2.73
  12   7   6    0.21    0.90
  12  -7   6    0.50    0.86
 -12  -7  -6   -1.06    0.77
  12  -7   7   13.66    2.28
 -12  -7  -7    9.61    1.81
  12   8  -8    9.25    1.83
  12  -8  -8    9.23    1.87
  12   8  -7    1.24    0.94
  12  -8  -7    0.32    0.77
  12   8  -6    4.54    1.21
  12  -8  -6    2.42    1.03
  12   8  -5   11.39    1.42
  12   8  -5   11.03    1.61
  12  -8  -5    8.27    1.39
  12   8  -4   30.36    2.08
  12   8  -4   29.94    2.25
  12  -8  -4   30.71    2.28
  12   8  -3    6.63    1.12
  12   8  -3    6.22    1.15
  12  -8  -3    6.56    1.06
  12  -8  -3    5.97    1.15
  12   8  -2    5.30    1.00
  12   8  -2    5.47    0.99
  12  -8  -2    5.49    0.90
  12  -8  -2    5.08    1.03
  12   8  -1    8.87    1.30
  12   8  -1    7.82    1.11
  12  -8  -1    7.11    1.01
  12  -8  -1   10.29    1.30
  12   8   0    7.58    1.07
  12   8   0   10.10    1.38
  12  -8   0    8.32    1.12
  12  -8   0   10.97    1.35
  12   8   1   -0.29    0.52
  12  -8   1   -0.04    0.58
  12  -8   1    0.66    0.53
  12   8   2   -0.57    0.63
 -12  -8  -2    0.43    0.58
  12  -8   2    1.41    0.69
  12  -8   2    1.54    0.71
  12   8   3    0.86    0.65
 -12  -8  -3    2.16    0.79
  12  -8   3    1.68    0.70
  12  -8   3    2.71    0.91
  12   8   4   16.83    2.03
  12  -8   4   16.58    1.99
 -12  -8  -4   14.41    1.78
  12   8   5   -0.06    0.74
  12  -8   5    0.28    0.75
 -12  -8  -5    0.52    0.78
  12   8   6    6.57    1.50
  12  -8   6   10.32    1.87
 -12  -8  -6    9.66    1.70
  12  -8   7    0.92    1.52
 -12  -8  -7    0.50    1.02
  12   9  -8   -0.44    0.80
  12  -9  -8   -0.94    0.89
  12   9  -7   20.77    2.45
  12  -9  -7   22.11    2.58
  12   9  -6    4.25    1.17
  12  -9  -6    2.82    1.10
  12   9  -5   39.69    2.85
  12  -9  -5   44.40    2.97
  12   9  -4    0.81    0.66
  12   9  -4    1.59    0.81
  12  -9  -4    0.89    0.87
  12   9  -3    1.48    0.69
  12   9  -3    0.05    0.63
  12  -9  -3    1.39    0.63
  12  -9  -3    1.15    0.74
  12   9  -2    0.60    0.62
  12   9  -2   -0.25    0.53
  12  -9  -2    2.45    0.81
  12  -9  -2   -0.12    0.45
  12   9  -1   29.61    2.05
  12   9  -1   27.54    1.92
  12  -9  -1   29.51    1.91
  12  -9  -1   28.59    2.00
  12   9   0    5.17    1.11
  12   9   0    6.48    0.98
  12  -9   0    6.33    1.04
  12  -9   0    7.06    1.14
  12   9   1   11.71    1.58
  12  -9   1   14.33    1.56
  12  -9   1   13.49    1.57
  12   9   2    1.24    0.75
 -12  -9  -2    1.46    0.65
  12  -9   2    0.82    0.61
  12  -9   2    0.56    0.60
  12   9   3    7.18    1.28
 -12  -9  -3    7.73    1.24
  12  -9   3    8.44    1.34
  12   9   4    1.38    0.77
 -12  -9  -4    1.97    0.94
  12  -9   4    2.07    0.89
  12   9   5   16.08    2.07
  12  -9   5   10.99    1.84
 -12  -9  -5   16.97    2.03
  12   9   6    2.54    1.17
 -12  -9  -6    0.75    0.94
  12  -9   6    0.98    0.94
 -12  -9  -7    1.72    1.24
  12  10  -8   -0.02    1.05
  12 -10  -8    1.93    1.20
  12  10  -7    0.92    1.02
  12 -10  -7    0.70    0.81
  12  10  -6    9.40    1.64
  12 -10  -6   11.34    1.84
  12  10  -5    5.79    1.31
  12 -10  -5    3.22    1.13
  12  10  -4   31.50    2.40
  12  10  -4   30.79    2.12
  12 -10  -4   31.12    2.69
  12  10  -3    3.68    0.97
  12  10  -3    3.90    0.93
  12 -10  -3    3.20    0.93
  12 -10  -3    4.11    0.96
  12  10  -2   26.76    2.01
  12  10  -2   26.53    1.96
  12 -10  -2   25.03    2.20
  12 -10  -2   28.44    1.91
  12  10  -1   14.44    1.58
  12  10  -1   13.22    1.56
  12 -10  -1   13.60    1.50
  12 -10  -1   12.74    1.47
  12  10   0    7.40    1.26
  12  10   0    6.48    1.02
  12 -10   0    7.05    1.12
  12 -10   0    6.02    1.06
  12  10   1    3.26    0.92
  12 -10   1    3.15    0.89
  12 -10   1    3.16    0.84
  12  10   2    8.76    1.41
  12 -10   2   12.65    1.43
 -12 -10  -2   13.34    1.74
  12 -10   2   12.54    1.59
  12  10   3   48.32    3.02
 -12 -10  -3   44.72    2.72
  12 -10   3   44.26    2.90
  12  10   4   41.42    2.93
 -12 -10  -4   44.30    2.84
  12 -10   4   42.22    3.00
  12  10   5    1.18    0.84
  12 -10   5    2.90    1.12
 -12 -10  -5    0.28    0.96
  12  10   6   34.16    3.30
 -12 -10  -6   32.59    3.25
  12 -10   6   33.49    3.38
 -12 -10  -7   -0.80    1.42
  12  11  -8    4.79    1.50
  12 -11  -8    3.63    1.39
  12  11  -7    2.40    1.21
  12 -11  -7    4.53    1.33
  12  11  -6    2.64    1.10
  12 -11  -6    1.21    0.87
  12  11  -5   19.57    2.25
  12 -11  -5   23.38    2.48
  12  11  -4   28.62    2.61
  12 -11  -4   25.40    2.46
  12  11  -3   20.78    1.91
  12  11  -3   18.49    2.00
  12 -11  -3   22.40    2.19
  12 -11  -3   19.01    1.83
  12  11  -2    1.69    0.79
  12  11  -2    2.64    0.85
  12 -11  -2    1.16    0.66
  12 -11  -2    1.17    0.64
  12  11  -1    0.03    0.61
  12  11  -1    0.46    0.65
  12 -11  -1   -0.75    0.55
  12 -11  -1   -0.52    0.47
  12  11   0   28.43    2.08
  12  11   0   29.18    1.99
  12 -11   0   26.28    1.96
  12 -11   0   30.48    2.10
  12  11   1    0.13    0.63
  12 -11   1    0.85    0.64
  12 -11   1    0.11    0.48
  12  11   2    1.73    0.78
  12 -11   2    0.32    0.62
  12  11   3    8.00    1.48
 -12 -11  -3    8.82    1.35
  12 -11   3    8.89    1.48
  12  11   4   12.08    1.86
  12 -11   4   15.09    1.98
 -12 -11  -4   11.32    1.68
  12  11   5   18.66    2.27
 -12 -11  -5   23.50    2.50
  12 -11   5   27.32    2.82
  12  11   6    4.92    1.42
  12 -11   6    6.41    1.71
 -12 -11  -6    4.35    1.41
  12  12  -7    0.41    0.98
  12 -12  -7   -0.74    0.86
  12  12  -6   24.78    2.70
  12 -12  -6   23.47    2.65
  12  12  -5    1.43    0.85
  12 -12  -5    1.08    0.86
  12  12  -4   27.26    2.56
  12 -12  -4   19.41    1.99
  12 -12  -4   23.67    2.42
  12  12  -3   -0.21    0.53
  12  12  -3    0.16    0.67
  12 -12  -3    0.28    0.61
  12 -12  -3   -0.37    0.65
  12  12  -2   10.13    1.36
  12  12  -2   10.18    1.45
  12 -12  -2    9.48    1.34
  12 -12  -2    7.96    1.26
  12  12  -1   -0.21    0.64
  12  12  -1    1.27    0.71
  12 -12  -1    0.59    0.66
  12 -12  -1   -0.14    0.47
  12  12   0    4.33    1.02
  12  12   0    6.79    1.12
  12 -12   0    5.57    1.06
  12 -12   0    5.94    1.15
  12  12   1   -0.18    0.59
  12 -12   1    1.19    0.72
  12 -12   1    0.40    0.59
  12  12   2   38.57    2.76
  12 -12   2   50.20    2.98
  12  12   3    3.89    1.10
 -12 -12  -3    2.77    0.91
  12 -12   3    5.22    1.23
  12  12   4    7.85    1.53
  12 -12   4    8.47    1.56
 -12 -12  -4    7.75    1.42
  12  12   5   13.73    2.05
  12 -12   5   15.11    2.19
 -12 -12  -5   15.07    2.09
  12  12   6    0.99    0.93
  12 -12   6    0.92    1.10
 -12 -12  -6    1.42    1.05
  12  13  -7    7.31    1.70
  12 -13  -7    8.81    1.77
  12  13  -6    2.14    1.05
  12 -13  -6    1.20    0.98
  12  13  -5    7.76    1.51
  12 -13  -5    6.66    1.40
  12  13  -4    0.63    0.89
  12 -13  -4    1.08    0.80
  12 -13  -4   -0.68    0.62
  12  13  -3    5.92    1.25
  12 -13  -3    3.77    1.04
  12 -13  -3    7.76    1.33
  12  13  -2    1.67    0.77
  12  13  -2    0.89    0.81
  12 -13  -2    2.46    0.86
  12 -13  -2    1.74    0.79
  12  13  -1   10.86    1.46
  12  13  -1    9.10    1.36
  12 -13  -1    9.30    1.34
  12 -13  -1   10.12    1.39
  12  13   0    5.62    1.08
  12  13   0    4.44    1.00
  12 -13   0    4.37    1.03
  12 -13   0    4.54    0.98
  12  13   1    1.81    0.89
  12 -13   1   -0.47    0.51
  12  13   2    1.15    0.88
  12 -13   2    0.41    0.72
  12  13   3    4.68    1.14
 -12 -13  -3    4.25    1.16
  12 -13   3    4.45    1.17
  12  13   4   41.10    2.97
  12 -13   4   42.81    3.07
 -12 -13  -4   38.54    2.76
  12  13   5   18.10    2.27
 -12 -13  -5   14.21    2.03
  12 -13   5   21.40    2.58
 -12 -13  -6    4.55    1.45
  12 -13   6    5.40    1.62
  12  14  -7   -1.08    0.87
  12 -14  -7    0.53    0.98
  12  14  -6   11.73    1.96
  12 -14  -6   10.97    1.92
  12  14  -5    0.40    0.82
  12 -14  -5    0.19    0.74
  12  14  -4   14.28    1.98
  12 -14  -4   16.14    1.89
  12 -14  -4   15.11    1.95
  12  14  -3   14.81    1.98
  12 -14  -3   15.73    1.96
  12 -14  -3   16.76    1.92
  12  14  -2    0.54    0.65
  12  14  -2    0.59    0.78
  12 -14  -2    0.84    0.72
  12 -14  -2    0.60    0.69
  12  14  -1    5.16    1.11
  12  14  -1    5.57    1.09
  12 -14  -1    3.65    1.03
  12 -14  -1    6.54    1.18
  12  14   0    1.08    0.71
  12  14   0    0.68    0.73
  12 -14   0   -0.02    0.63
  12 -14   0    0.38    0.60
  12  14   1    0.60    0.74
  12 -14   1    1.24    0.74
  12  14   2    0.18    0.75
  12 -14   2   -0.02    0.61
  12  14   3    0.33    0.75
  12 -14   3    0.93    0.76
  12  14   4    2.83    1.04
 -12 -14  -4    3.56    1.08
  12 -14   4    3.18    1.13
  12  14   5    1.66    0.98
 -12 -14  -5    5.07    1.40
  12 -14   5    3.24    1.14
 -12 -14  -6    9.03    1.82
  12  15  -7    7.51    1.81
  12 -15  -7    9.49    1.94
  12  15  -6    0.36    0.86
  12 -15  -6    1.10    1.08
  12  15  -5   28.68    2.90
  12 -15  -5   25.29    2.67
  12  15  -4    1.06    0.87
  12 -15  -4    1.10    0.83
  12 -15  -4    2.14    0.90
  12  15  -3    0.90    0.82
  12 -15  -3    0.16    0.73
  12 -15  -3   -0.35    0.62
  12  15  -2   -1.02    0.55
  12 -15  -2    0.55    0.63
  12 -15  -2    0.26    0.61
  12  15  -1   39.71    2.53
  12  15  -1   37.22    2.57
  12 -15  -1   40.44    2.66
  12 -15  -1   36.59    2.47
  12  15   0   -0.87    0.51
  12  15   0   -0.22    0.53
  12 -15   0    0.06    0.56
  12  15   1    9.07    1.44
  12 -15   1   11.88    1.72
  12  15   2    6.44    1.33
  12 -15   2    2.43    0.96
  12  15   3   13.46    1.88
  12 -15   3   18.54    2.28
  12  15   4    1.20    0.86
 -12 -15  -4    2.28    0.99
  12 -15   4    2.01    0.97
  12  15   5    4.01    1.28
  12 -15   5    2.97    1.24
 -12 -15  -5    5.50    1.39
 -12 -15  -6    2.11    1.26
  12  16  -6    4.89    1.42
  12 -16  -6    6.12    1.61
  12  16  -5   -0.15    0.80
  12 -16  -5    0.98    0.89
  12  16  -4    3.68    1.19
  12 -16  -4    5.26    1.25
  12 -16  -4    3.82    1.14
  12  16  -3    5.87    1.36
  12 -16  -3    8.05    1.50
  12 -16  -3    7.78    1.46
  12  16  -2    0.22    0.86
  12 -16  -2    0.29    0.77
  12 -16  -2   -0.35    0.66
  12  16  -1   25.78    2.32
  12  16  -1   25.01    2.39
  12 -16  -1   27.46    2.36
  12 -16  -1   28.85    2.26
  12  16   0    0.75    0.80
  12  16   0    2.36    0.91
  12 -16   0    1.52    0.87
  12  16   1    2.64    0.97
  12 -16   1    4.48    1.14
  12  16   2   -0.26    0.72
  12 -16   2   -0.67    0.69
  12  16   3   12.63    1.90
  12 -16   3   11.03    1.82
  12  16   4    6.23    1.46
  12 -16   4    6.21    1.54
  12  16   5    4.62    1.48
  12 -16   5    4.75    1.59
 -12 -16  -5    4.88    1.46
  12  17  -6    0.29    1.05
  12 -17  -6    1.48    1.15
  12  17  -5    1.58    1.15
  12 -17  -5    4.29    1.29
  12  17  -4   -0.04    0.88
  12 -17  -4    1.39    0.82
  12 -17  -4    2.19    1.07
  12  17  -3    2.44    1.06
  12 -17  -3    2.08    1.01
  12 -17  -3    1.64    0.99
  12  17  -2   -0.77    0.64
  12 -17  -2    0.82    0.80
  12 -17  -2    0.58    0.72
  12  17  -1    1.57    0.90
  12 -17  -1   -0.37    0.56
  12  17   0   -0.36    0.72
  12  17   0   -0.07    0.66
  12 -17   0    0.72    0.78
  12  17   1   14.92    1.89
  12 -17   1   20.15    2.23
  12  17   2    1.15    0.86
  12 -17   2    1.50    0.88
  12  17   3    2.82    1.08
  12 -17   3    3.24    1.23
  12  17   4   -0.81    0.70
  12 -17   4    0.33    0.97
 -12 -17  -5    1.26    1.15
  12 -17   5    2.67    1.98
  12  18  -6   17.59    2.56
  12 -18  -6   17.13    2.35
  12  18  -5    1.34    1.08
  12 -18  -5    1.34    1.03
  12 -18  -5   -0.57    0.73
  12  18  -4    1.96    1.08
  12 -18  -4    2.80    1.16
  12 -18  -4    1.92    1.07
  12  18  -3    2.47    1.09
  12 -18  -3    2.75    1.07
  12 -18  -3    2.54    1.04
  12  18  -2    5.23    1.29
  12 -18  -2    4.67    1.29
  12 -18  -2    3.62    1.12
  12  18  -1    2.23    1.02
  12 -18  -1    1.42    0.89
  12  18   0    2.58    1.08
  12  18   0    4.18    1.06
  12 -18   0    3.16    1.15
  12  18   1   -0.05    0.59
  12 -18   1    0.29    0.82
  12  18   2    5.57    1.34
  12 -18   2    7.55    1.56
  12  18   3    3.12    1.12
  12 -18   3    1.57    1.02
  12  18   4   15.41    2.23
  12 -18   4   19.05    2.58
  12  19  -5    3.87    1.58
  12 -19  -5    6.37    1.58
  12 -19  -5    6.61    1.59
  12  19  -4   -0.09    0.97
  12 -19  -4    0.30    0.88
  12 -19  -4    0.91    0.96
  12 -19  -3    6.41    1.48
  12 -19  -3    4.57    1.29
  12  19  -2    1.28    1.03
  12 -19  -2    1.28    0.82
  12  19  -1    2.14    1.10
  12 -19  -1    1.00    0.87
  12 -19   0   21.73    2.51
  12  19   1    5.61    1.26
  12 -19   1    6.07    1.42
  12  19   2    3.76    1.11
  12 -19   2    3.80    1.26
  12  19   3   -0.26    0.74
  12 -19   3    1.91    1.06
  12  19   4   12.76    2.10
  12 -19   4    8.44    1.90
  12  20  -5    0.19    0.95
  12 -20  -5    1.57    1.11
  12 -20  -5    1.44    1.12
  12  20  -4    2.39    1.22
  12 -20  -4    3.45    1.33
  12 -20  -4    3.57    1.28
  12  20  -3    8.50    1.74
  12 -20  -3    6.96    1.50
  12  20  -2   -0.50    0.91
  12 -20  -2    0.13    0.66
  12  20  -1    0.02    0.81
  12 -20  -1    0.75    0.83
  12 -20   0    2.36    1.18
  12  20   1    2.71    1.14
  12 -20   1    2.20    1.08
  12  20   2    0.08    0.69
  12 -20   2    0.66    0.88
  12  20   3    2.46    1.17
  12 -20   3    2.86    1.22
  12 -21  -5   10.71    1.90
  12  21  -4   -1.17    0.95
  12 -21  -4    2.25    1.17
  12 -21  -4   -0.47    0.84
  12  21  -3    5.07    1.41
  12 -21  -3    6.19    1.45
  12  21  -2    1.67    1.04
  12 -21  -2    2.95    1.13
  12  21  -1   14.20    2.10
  12 -21  -1   16.94    2.33
  12 -21   0    0.10    0.77
  12 -21   1    3.24    1.21
  12  21   2    0.08    0.80
  12 -21   2    1.74    1.08
  12  21   3    6.05    1.52
  12 -21   3   11.07    2.12
  12  22  -4    5.48    1.62
  12 -22  -4    4.85    1.52
  12  22  -3    1.22    1.21
  12 -22  -3    0.93    0.94
  12  22  -2   11.60    1.99
  12 -22  -2    9.89    1.77
  12  22  -1    3.44    1.30
  12 -22  -1    4.06    1.39
  12 -22   0    4.04    1.31
  12 -22   1    0.31    0.87
  12 -22   2    5.60    1.56
  12  23  -3    1.15    1.18
  12 -23  -3    0.55    1.06
  12  23  -2   -0.88    1.00
  12 -23  -2    1.48    1.06
  12  23  -1    0.17    0.89
  12 -23  -1    1.39    1.04
  12 -23   0    1.50    1.18
  12 -23   1    1.88    1.26
  12  24  -2    2.40    1.34
  12  24  -1    0.40    1.15
  13   0  -8   17.43    2.30
  13   0  -7   -0.39    0.76
  13   0  -6    8.30    1.42
  13   0  -5    1.07    0.77
  13   0  -4   88.53    4.33
  13   0  -3    0.57    0.65
  13   0  -2    2.17    0.66
  13   0  -1   -0.29    0.19
  13   0   0   29.46    2.11
  13   0   1    0.22    0.38
  13   0   1   -0.29    0.58
  13   0   2    1.44    0.51
  13   0   2    0.92    0.68
  13   0   3    0.03    0.67
  13   0   3   -0.65    0.46
  13   0   4   19.13    1.98
  13   0   4   16.80    1.99
  13   0   5    0.59    0.77
  13   0   5    0.27    0.67
  13   0   6    9.97    1.61
  13   0   6   11.27    1.84
  13   0   7    0.36    0.95
  13   1  -8    0.25    0.91
  13  -1  -8   -0.20    0.86
  13   1  -7   17.94    2.20
  13  -1  -7   12.59    1.92
  13   1  -6   13.13    1.83
  13  -1  -6   13.13    1.79
  13   1  -5    5.08    1.19
  13  -1  -5    6.78    1.33
  13   1  -4   42.44    2.67
  13  -1  -4   41.40    2.66
  13   1  -3    0.02    0.63
  13  -1  -3    0.66    0.63
  13   1  -1    0.12    0.26
  13  -1  -1   -0.04    0.30
  13   1   0    0.82    0.46
  13  -1   0    2.85    0.80
  13   1   1    4.21    0.69
  13   1   1    3.45    0.92
  13  -1   1    3.67    0.92
  13  -1   1    4.04    0.69
  13   1   2   37.57    2.58
  13   1   2   42.78    2.29
  13  -1   2   39.81    2.54
  13  -1   2   39.18    2.28
  13   1   3  115.68    5.37
  13   1   3  111.53    5.11
  13  -1   3  124.43    5.44
  13  -1   3  117.14    5.20
  13   1   4   50.52    3.03
  13   1   4   48.44    3.05
  13  -1   4   48.26    3.01
  13  -1   4   50.10    3.09
  13   1   5    8.89    1.56
  13   1   5   12.05    1.75
  13  -1   5    7.40    1.39
  13  -1   5    6.57    1.38
  13   1   6   -0.38    0.72
  13   1   6    0.05    0.70
  13  -1   6   -0.93    0.67
  13  -1   6    0.37    0.77
  13   1   7    0.80    0.97
  13   1   7    0.32    0.88
  13  -1   7   -0.12    0.81
  13   2  -8    4.71    1.24
  13  -2  -8    1.61    1.20
  13   2  -7    1.67    0.96
  13  -2  -7    3.16    1.08
  13   2  -6    0.49    0.70
  13  -2  -6   -0.06    0.64
  13   2  -5   -0.10    0.58
  13  -2  -5   -0.50    0.64
  13   2  -4   56.67    3.10
  13  -2  -4   48.24    2.98
  13   2  -3    3.81    0.94
  13  -2  -3    3.64    0.93
  13   2  -1   -0.34    0.38
  13  -2  -1    2.23    0.80
  13   2   0   -0.01    0.27
  13  -2   0   -0.32    0.53
  13  -2   0    0.96    0.39
  13   2   1    0.70    0.78
  13   2   1    1.21    0.53
  13  -2   1    0.79    0.49
  13  -2   1    0.74    0.65
  13   2   2  111.15    4.74
  13   2   2  110.69    5.13
  13  -2   2  114.61    4.84
  13  -2   2  109.58    5.06
  13   2   3    3.33    0.98
  13   2   3    4.65    0.96
  13  -2   3    3.84    0.93
  13  -2   3    4.57    1.04
  13   2   4   45.19    2.80
  13   2   4   45.91    2.94
  13  -2   4   43.05    2.81
  13  -2   4   43.69    2.83
  13   2   5   20.41    2.24
  13   2   5   15.05    1.94
  13  -2   5   15.53    1.88
  13  -2   5   18.72    2.15
  13   2   6    0.39    0.81
  13   2   6    1.60    0.92
  13  -2   6    1.39    0.83
  13  -2   6    1.94    1.03
  13   2   7    0.06    0.83
  13   2   7    1.04    0.99
  13  -2   7    1.13    1.00
  13   3  -8    2.57    1.11
  13  -3  -8    5.43    1.46
  13   3  -7    8.58    1.61
  13  -3  -7   10.47    1.82
  13   3  -6    6.90    1.31
  13  -3  -6    8.37    1.58
  13   3  -5    5.59    1.18
  13  -3  -5    6.43    1.33
  13   3  -4    6.19    1.12
  13  -3  -4    5.89    1.15
  13   3  -3   -0.09    0.54
  13  -3  -3    0.85    0.64
  13   3  -2    0.81    0.62
  13  -3  -2    0.74    0.60
  13   3  -1   20.51    1.96
  13  -3  -1   20.17    1.91
  13   3   0    0.18    0.33
  13  -3   0    1.21    0.44
  13  -3   0    1.16    0.67
  13   3   1    0.72    0.57
  13  -3   1    2.01    0.79
  13  -3   1    3.59    0.71
  13   3   2   31.76    2.28
  13   3   2   29.30    1.90
  13  -3   2   30.29    2.01
  13  -3   2   32.83    2.27
  13   3   3   22.59    1.80
  13   3   3   24.82    2.30
  13  -3   3   21.15    2.04
  13  -3   3   22.86    2.11
  13   3   4    1.49    0.82
  13   3   4    1.28    0.83
  13  -3   4    1.97    0.86
  13  -3   4    2.78    0.89
  13   3   5    2.69    0.96
  13   3   5    1.95    0.92
  13  -3   5    1.59    0.90
  13  -3   5    1.00    0.77
  13   3   6   -0.33    0.74
  13   3   6   -1.03    0.59
  13  -3   6   -0.30    0.66
  13   3   7    1.81    1.09
  13   3   7    0.38    0.86
  13  -3   7    0.14    0.80
  13   4  -8    2.83    1.17
  13  -4  -8    2.83    1.22
  13   4  -7    5.94    1.36
  13  -4  -7    5.93    1.44
  13   4  -6   28.10    2.54
  13  -4  -6   30.72    2.81
  13   4  -5    2.48    0.91
  13  -4  -5    2.03    0.85
  13   4  -4   -0.56    0.60
  13  -4  -4    0.79    0.65
  13   4  -3    6.89    1.16
  13  -4  -3    7.20    1.21
  13   4  -2   34.35    2.31
  13  -4  -2   33.87    2.25
  13   4  -1    0.46    0.64
  13  -4  -1    1.60    0.76
  13  -4   0    6.40    1.12
  13  -4   0    6.11    0.81
  13   4   1    0.00    0.29
  13  -4   1    0.24    0.57
  13  -4   1    0.48    0.44
  13   4   2   69.60    3.26
  13   4   2   63.39    3.58
  13  -4   2   71.30    3.42
  13  -4   2   67.21    3.54
  13   4   3    1.18    0.65
  13   4   3    0.44    0.73
  13  -4   3    1.97    0.81
  13  -4   3    0.62    0.54
  13   4   4   18.56    2.09
  13   4   4   16.29    1.85
  13  -4   4   15.17    1.81
  13  -4   4   17.31    1.89
  13   4   5    1.99    0.82
  13   4   5    2.07    0.90
  13  -4   5    3.88    1.10
  13  -4   5    1.33    0.78
  13   4   6    1.35    0.93
  13   4   6    0.84    0.88
  13  -4   6    0.92    0.98
  13   4   7   -0.48    0.88
  13   4   7    0.14    0.84
  13  -4   7    0.15    0.92
  13   5  -8    0.55    0.97
  13  -5  -8    1.29    1.08
  13   5  -7    7.38    1.56
  13  -5  -7    9.38    1.72
  13   5  -6    5.12    1.24
  13  -5  -6    5.37    1.27
  13   5  -5   19.71    1.99
  13  -5  -5   16.86    2.03
  13   5  -4    3.72    0.97
  13  -5  -4    3.76    0.95
  13   5  -3    4.77    1.02
  13  -5  -3    4.81    1.13
  13   5  -2    8.33    1.30
  13  -5  -2    7.36    1.18
  13   5  -1   33.14    2.20
  13  -5  -1   32.50    2.23
  13  -5  -1   33.83    2.13
  13   5   0   15.34    1.68
  13  -5   0   14.70    1.36
  13  -5   0   14.42    1.61
  13  -5   1   36.48    2.39
  13  -5   1   39.34    2.21
  13   5   2    1.67    0.62
  13   5   2    0.84    0.73
  13  -5   2    0.77    0.54
  13  -5   2    1.33    0.72
  13   5   3   53.41    2.88
  13   5   3   50.95    3.14
  13  -5   3   51.26    2.97
  13  -5   3   49.85    2.97
  13   5   4    0.54    0.67
  13   5   4    1.02    0.79
  13  -5   4    0.06    0.60
  13  -5   4    0.22    0.67
  13   5   5    3.29    0.97
  13   5   5    3.67    1.24
  13  -5   5    4.72    1.25
  13   5   6    2.48    1.13
  13   5   6    3.95    1.19
  13  -5   6    4.60    1.37
  13   5   7   -0.36    0.76
  13  -5   7   -1.06    0.74
 -13  -5  -7   -1.14    0.74
  13   6  -8   20.18    2.55
  13  -6  -8   24.36    2.89
  13   6  -7    0.80    0.92
  13  -6  -7   -0.51    0.83
  13   6  -6    4.15    1.09
  13   6  -6    5.39    1.27
  13  -6  -6    7.25    1.41
  13   6  -5    0.96    0.72
  13   6  -5    1.55    0.81
  13  -6  -5    0.19    0.65
  13   6  -4   10.09    1.42
  13  -6  -4   14.58    1.77
  13   6  -3   -1.02    0.50
  13  -6  -3   -0.41    0.49
  13   6  -2   -0.16    0.53
  13  -6  -2    0.71    0.66
  13   6  -1    1.20    0.70
  13   6  -1    0.12    0.53
  13  -6  -1    0.44    0.39
  13  -6  -1    0.05    0.57
  13   6   0    7.25    1.23
  13   6   0    8.10    1.05
  13  -6   0    8.16    1.04
  13  -6   0    8.44    1.25
  13   6   1    4.05    1.02
  13  -6   1    4.34    0.97
  13  -6   1    6.02    0.95
  13   6   2    4.48    1.08
 -13  -6  -2    3.21    0.82
  13  -6   2    2.36    0.73
  13  -6   2    4.16    0.97
  13   6   3    8.87    1.48
  13  -6   3   11.01    1.49
 -13  -6  -3    8.70    1.24
  13  -6   3   11.94    1.54
  13   6   4   16.22    2.01
  13  -6   4   14.33    1.66
  13  -6   4   17.06    1.99
  13   6   5    1.91    1.05
  13  -6   5    1.93    0.94
 -13  -6  -5    0.69    0.85
  13   6   6    0.90    0.92
 -13  -6  -6    0.93    1.01
  13  -6   6    3.37    1.31
  13   6   7    0.68    0.91
 -13  -6  -7   -0.15    0.90
  13   7  -8    2.85    1.20
  13  -7  -8    1.91    1.12
  13   7  -7    6.39    1.50
  13  -7  -7    7.41    1.55
  13   7  -6   -0.34    0.59
  13  -7  -6    0.03    0.77
  13   7  -5   19.96    1.96
  13   7  -5   15.78    1.97
  13  -7  -5   17.40    2.04
  13   7  -4    0.91    0.68
  13   7  -4    0.17    0.64
  13  -7  -4    0.33    0.67
  13   7  -3   34.50    2.30
  13   7  -3   29.28    2.20
  13  -7  -3   30.99    2.26
  13   7  -2    0.08    0.57
  13   7  -2    0.29    0.56
  13  -7  -2   -0.63    0.50
  13   7  -1   27.42    2.01
  13   7  -1   25.35    1.80
  13  -7  -1   23.47    2.14
  13  -7  -1   28.00    1.76
  13   7   0   -0.36    0.64
  13   7   0   -0.17    0.45
  13  -7   0   -0.30    0.34
  13  -7   0    0.59    0.71
  13   7   1   53.99    3.18
  13  -7   1   56.97    2.97
  13  -7   1   56.46    3.07
  13   7   2   13.37    1.67
  13  -7   2   15.82    1.69
  13  -7   2   14.41    1.60
  13   7   3   51.29    3.26
 -13  -7  -3   59.89    3.12
  13  -7   3   56.82    3.12
  13  -7   3   53.84    3.22
  13   7   4    0.15    0.68
  13  -7   4    1.61    0.86
 -13  -7  -4    0.11    0.71
  13   7   5    1.95    1.00
  13  -7   5    2.59    1.07
 -13  -7  -5    2.42    1.00
  13   7   6    1.55    0.95
  13  -7   6   -0.60    0.71
 -13  -7  -6    0.04    0.81
  13   7   7   -0.40    0.88
 -13  -7  -7   -0.34    1.04
  13   8  -8    9.66    1.88
  13  -8  -8   11.26    2.01
  13   8  -7   13.30    2.07
  13  -8  -7   15.79    2.16
  13   8  -6    7.38    1.46
  13  -8  -6    5.57    1.37
  13   8  -5    3.11    1.00
  13   8  -5    2.74    0.92
  13  -8  -5    3.46    1.10
  13   8  -4    1.13    0.63
  13   8  -4    0.21    0.68
  13  -8  -4    1.28    0.79
  13   8  -3   14.01    1.68
  13   8  -3   14.71    1.70
  13  -8  -3   14.61    1.72
  13   8  -2   15.73    1.65
  13   8  -2   15.03    1.66
  13  -8  -2   15.59    1.74
  13  -8  -2   15.23    2.13
  13   8  -1    1.19    0.69
  13   8  -1    0.59    0.55
  13  -8  -1    0.60    0.61
  13  -8  -1    0.71    0.51
  13   8   0    3.54    0.80
  13   8   0    3.02    0.94
  13  -8   0    2.72    0.73
  13  -8   0    2.22    0.84
  13   8   1    6.58    1.23
  13  -8   1    7.23    1.09
  13  -8   1    5.14    1.09
  13   8   2   28.13    2.54
  13  -8   2   31.07    2.17
  13  -8   2   27.22    2.02
  13   8   3    4.49    1.13
  13  -8   3    5.35    1.08
 -13  -8  -3    5.03    1.07
  13  -8   3    5.18    1.10
  13   8   4   16.13    2.12
 -13  -8  -4   23.62    2.30
  13  -8   4   22.06    2.31
  13   8   5    1.68    0.96
  13  -8   5    2.85    1.06
 -13  -8  -5    1.05    1.01
  13   8   6    1.17    1.06
 -13  -8  -6    1.09    1.01
  13  -8   6    0.79    0.90
  13   9  -8    2.09    1.15
  13  -9  -8    0.00    0.92
  13   9  -7    4.02    1.34
  13  -9  -7    3.09    1.21
  13   9  -6    2.82    1.03
  13  -9  -6    0.87    0.69
  13   9  -5    8.97    1.56
  13  -9  -5    5.92    1.32
  13   9  -4    0.56    0.63
  13   9  -4    0.19    0.69
  13  -9  -4    0.42    0.70
  13   9  -3   -0.39    0.57
  13   9  -3   -0.48    0.55
  13  -9  -3    0.40    0.64
  13   9  -2    5.95    1.12
  13   9  -2    4.05    1.03
  13  -9  -2    4.86    0.88
  13  -9  -2    4.75    1.05
  13   9  -1   25.28    1.90
  13   9  -1   25.37    2.25
  13  -9  -1   24.47    1.76
  13  -9  -1   24.56    1.89
  13   9   0    3.37    0.92
  13   9   0    3.52    0.82
  13  -9   0    2.72    0.79
  13  -9   0    2.91    0.95
  13   9   1    8.50    1.36
  13  -9   1    8.49    1.25
  13  -9   1    9.47    1.34
  13   9   2    0.49    0.67
  13  -9   2   -0.02    0.46
  13  -9   2   -0.01    0.61
  13   9   3    6.58    1.32
  13  -9   3    8.59    1.41
 -13  -9  -3    9.53    1.39
  13   9   4    2.48    0.96
 -13  -9  -4    1.32    0.77
  13  -9   4    1.66    0.89
  13   9   5   27.89    2.78
 -13  -9  -5   24.49    2.59
  13  -9   5   20.96    2.49
  13   9   6    1.87    1.08
 -13  -9  -6    0.76    1.10
  13  -9   6    0.90    1.05
  13  10  -7    2.36    1.13
  13 -10  -7    4.30    1.41
  13  10  -6    3.47    1.22
  13 -10  -6    5.92    1.39
  13  10  -5   13.47    1.91
  13 -10  -5   16.35    2.04
  13  10  -4    1.53    0.73
  13  10  -4    2.44    1.00
  13 -10  -4    0.77    0.80
  13  10  -3    1.35    0.82
  13  10  -3    0.51    0.64
  13 -10  -3    1.88    0.89
  13  10  -2   13.75    1.61
  13  10  -2   13.31    1.62
  13 -10  -2   15.22    1.73
  13 -10  -2   13.45    1.44
  13  10  -1    2.58    0.81
  13  10  -1    4.35    1.01
  13 -10  -1    5.04    0.97
  13 -10  -1    3.90    0.93
  13  10   0   -0.70    0.59
  13  10   0   -0.28    0.51
  13 -10   0    0.37    0.61
  13 -10   0   -0.28    0.41
  13  10   1    8.46    1.43
  13 -10   1    8.73    1.31
  13 -10   1    8.34    1.22
  13  10   2   50.20    3.20
  13 -10   2   57.69    3.07
  13 -10   2   54.31    3.15
  13  10   3    4.21    1.09
  13 -10   3    4.40    1.14
  13  10   4   52.71    3.48
 -13 -10  -4   57.82    3.38
  13 -10   4   51.32    3.42
  13  10   5    5.56    1.48
  13 -10   5    5.05    1.35
 -13 -10  -5    7.05    1.48
  13  10   6    0.99    0.94
  13 -10   6    1.75    1.18
 -13 -10  -6    0.27    0.98
  13  11  -7   10.59    1.94
  13 -11  -7   12.05    2.04
  13  11  -6    0.89    0.90
  13 -11  -6    0.43    0.81
  13  11  -5    0.25    0.73
  13 -11  -5    0.64    0.84
  13  11  -4    0.82    0.77
  13 -11  -4   -0.43    0.62
  13  11  -3    3.97    1.00
  13  11  -3    3.78    1.10
  13 -11  -3    5.89    1.28
  13  11  -2   10.62    1.52
  13  11  -2   11.37    1.47
  13 -11  -2   10.42    1.32
  13 -11  -2    9.24    1.39
  13  11  -1    0.33    0.66
  13  11  -1   -0.03    0.55
  13 -11  -1    0.32    0.62
  13 -11  -1   -0.01    0.58
  13  11   0    7.47    1.34
  13  11   0    9.79    1.30
  13 -11   0    6.92    1.13
  13 -11   0    8.04    1.22
  13  11   1   29.50    2.56
  13 -11   1   26.12    2.06
  13 -11   1   25.43    2.26
  13  11   2    4.06    1.11
  13 -11   2    3.50    1.00
  13  11   3   23.00    2.39
  13 -11   3   23.61    2.39
  13  11   4    0.77    0.80
  13 -11   4    0.40    0.67
 -13 -11  -4   -0.29    0.65
  13  11   5    6.13    1.43
  13 -11   5    3.74    1.30
 -13 -11  -5    4.23    1.17
  13  11   6    1.45    1.06
  13 -11   6    3.30    1.33
 -13 -11  -6    1.92    1.11
  13  12  -7   -1.09    0.75
  13 -12  -7    0.29    0.78
  13  12  -6    1.66    1.00
  13 -12  -6   -0.60    0.65
  13  12  -5    0.71    0.93
  13 -12  -5    0.10    0.78
  13  12  -4    7.82    1.47
  13 -12  -4    8.61    1.52
  13  12  -3   20.37    2.00
  13  12  -3   21.47    2.24
  13 -12  -3   19.13    2.25
  13 -12  -3   21.08    2.23
  13  12  -2   -0.30    0.67
  13  12  -2    0.70    0.67
  13 -12  -2    0.63    0.56
  13 -12  -2    0.84    0.76
  13  12  -1    2.32    0.86
  13  12  -1    2.50    0.90
  13 -12  -1    3.78    0.94
  13 -12  -1    2.65    0.88
  13  12   0   16.23    1.73
  13  12   0   19.88    2.03
  13 -12   0   17.34    1.84
  13 -12   0   16.53    1.87
  13  12   1    3.49    1.02
  13 -12   1    5.64    1.16
  13 -12   1    5.59    1.09
  13  12   2    1.03    0.89
  13 -12   2    0.43    0.68
  13  12   3    1.44    0.97
  13 -12   3    2.64    0.99
  13  12   4   17.71    2.27
  13 -12   4   23.50    2.61
 -13 -12  -4   21.14    2.37
  13  12   5    0.73    0.84
 -13 -12  -5   -1.16    0.72
  13 -12   5    0.22    0.96
  13  12   6   13.50    2.20
  13 -12   6   15.31    2.81
 -13 -12  -6   12.11    2.09
  13  13  -7    1.47    1.11
  13 -13  -7    1.87    1.23
  13  13  -6    2.43    1.22
  13 -13  -6    2.18    1.14
  13  13  -5   11.17    1.89
  13 -13  -5   10.94    1.82
  13  13  -4    2.89    1.00
  13 -13  -4    2.26    0.97
  13  13  -3    6.63    1.39
  13 -13  -3   10.12    1.60
  13 -13  -3   10.78    1.52
  13  13  -2    7.02    1.24
  13  13  -2    6.20    1.17
  13 -13  -2    3.89    0.97
  13 -13  -2    3.57    1.05
  13  13  -1   15.52    1.76
  13  13  -1   15.36    1.81
  13 -13  -1   14.57    1.75
  13 -13  -1   13.86    1.70
  13  13   0   48.49    2.76
  13  13   0   45.90    2.87
  13 -13   0   43.47    2.66
  13 -13   0   36.81    2.67
  13  13   1    5.98    1.29
  13 -13   1    6.46    1.23
  13  13   2    0.71    0.75
  13 -13   2   -0.11    0.68
  13  13   3   79.43    4.53
  13 -13   3   87.15    4.63
  13  13   4   -0.18    0.82
  13 -13   4    0.35    0.76
  13  13   5    4.32    1.34
  13 -13   5   11.05    1.94
 -13 -13  -5    9.46    1.73
  13  13   6   13.42    2.19
 -13 -13  -6    8.82    1.91
  13  14  -7    8.51    1.81
  13 -14  -7    7.27    1.81
  13  14  -6    2.78    1.19
  13 -14  -6    3.34    1.34
  13  14  -5   16.53    2.21
  13 -14  -5   13.74    2.01
  13  14  -4    1.69    0.96
  13 -14  -4    2.65    1.02
  13  14  -3    7.40    1.43
  13 -14  -3    6.61    1.23
  13 -14  -3    4.25    1.12
  13  14  -2   12.64    1.76
  13  14  -2   10.00    1.45
  13 -14  -2    8.02    1.33
  13 -14  -2    8.86    1.38
  13  14  -1    0.98    0.78
  13  14  -1    0.60    0.66
  13 -14  -1   -0.74    0.58
  13 -14  -1   -0.35    0.54
  13  14   0    0.08    0.62
  13  14   0    1.70    0.83
  13 -14   0   -0.05    0.66
  13 -14   0    0.25    0.63
  13  14   1   15.45    1.90
  13 -14   1   20.44    2.16
  13  14   2   40.77    2.95
  13 -14   2   50.22    3.18
  13  14   3    0.71    0.79
  13 -14   3    0.43    0.82
  13  14   4    6.39    1.52
  13 -14   4    7.26    1.58
  13  14   5    1.04    0.93
  13 -14   5    2.77    1.27
 -13 -14  -5    2.22    1.10
 -13 -14  -6   -0.11    1.02
  13  15  -6   -0.26    0.92
  13 -15  -6   -1.34    0.67
  13  15  -5    7.67    1.71
  13 -15  -5    6.02    1.41
  13  15  -4    2.93    1.27
  13 -15  -4    1.49    1.00
  13  15  -3    3.12    1.10
  13 -15  -3    4.43    1.20
  13 -15  -3    3.92    1.10
  13  15  -2    1.81    0.93
  13 -15  -2    0.71    0.67
  13 -15  -2    2.43    0.95
  13  15  -1    1.61    0.81
  13  15  -1    3.10    0.97
  13 -15  -1    3.62    1.12
  13 -15  -1    2.90    0.93
  13  15   0    1.30    0.78
  13 -15   0    1.36    0.85
  13  15   1   12.50    1.80
  13 -15   1   13.20    1.77
  13  15   2    0.21    0.71
  13 -15   2    0.30    0.73
  13  15   3    1.86    1.06
  13 -15   3    2.09    1.07
  13  15   4    1.18    1.04
  13 -15   4    0.06    0.79
  13  15   5   21.05    2.78
  13 -15   5   23.86    2.88
  13  16  -6    6.72    1.82
  13 -16  -6    4.46    1.39
  13  16  -5    5.86    1.51
  13 -16  -5    2.38    1.12
  13  16  -4    0.12    0.97
  13 -16  -4    1.06    1.01
  13  16  -3    3.09    1.17
  13 -16  -3    6.74    1.34
  13 -16  -3    3.85    1.19
  13  16  -2    6.28    1.39
  13 -16  -2    4.54    1.16
  13 -16  -2    3.85    1.14
  13  16  -1    0.25    0.85
  13  16  -1    0.60    0.70
  13 -16  -1    0.05    0.61
  13 -16  -1    0.87    1.20
  13  16   0    0.77    0.76
  13 -16   0   -0.03    0.74
  13  16   1   17.98    2.08
  13 -16   1   13.89    1.93
  13  16   2   21.80    2.32
  13 -16   2   23.59    2.55
  13  16   3   -0.64    0.61
  13 -16   3   -1.16    0.69
  13  16   4    8.44    1.71
  13 -16   4   10.65    1.88
  13  16   5    2.30    1.13
  13  17  -6    7.79    1.79
  13 -17  -6    6.31    1.72
  13  17  -5    2.24    1.21
  13 -17  -5    1.11    0.90
  13  17  -4    0.76    1.09
  13 -17  -4    0.42    1.49
  13 -17  -4    1.49    1.04
  13  17  -3    0.21    0.92
  13 -17  -3    1.27    0.89
  13 -17  -3    0.01    0.74
  13  17  -2   11.81    1.74
  13 -17  -2   10.71    1.65
  13 -17  -2   10.28    1.60
  13  17  -1   -0.17    0.81
  13 -17  -1   -0.24    0.58
  13  17   0    1.02    0.77
  13 -17   0    1.27    0.82
  13  17   1    0.27    0.75
  13 -17   1    2.45    1.02
  13  17   2    2.34    0.98
  13 -17   2    4.49    1.27
  13  17   3   33.22    3.07
  13 -17   3   33.33    3.25
  13  17   4    0.72    1.01
  13 -17   4    3.09    1.31
  13  17   5    0.27    1.09
  13  18  -5    2.00    1.23
  13 -18  -5    3.42    1.26
  13  18  -4    7.78    1.67
  13 -18  -4   10.37    1.80
  13 -18  -4    9.61    1.74
  13  18  -3    1.23    1.02
  13 -18  -3    0.51    0.76
  13 -18  -3    1.18    0.94
  13  18  -2    0.77    0.82
  13 -18  -2    1.20    0.85
  13  18  -1    2.83    1.16
  13 -18  -1    1.55    0.89
  13  18   0   11.13    1.59
  13 -18   0    7.69    1.55
  13  18   1    2.12    1.01
  13 -18   1    2.97    1.13
  13  18   2    5.03    1.30
  13 -18   2    6.18    1.52
  13  18   3   -0.17    0.69
  13 -18   3    0.40    0.95
  13  18   4    8.95    1.81
  13 -18   4   11.97    2.12
  13  19  -5    3.36    1.41
  13 -19  -5    2.99    1.32
  13  19  -4    1.15    1.04
  13 -19  -4    1.22    0.94
  13 -19  -4    0.96    1.10
  13  19  -3   -0.78    0.86
  13 -19  -3   -0.15    0.68
  13 -19  -3   -0.04    0.72
  13  19  -2    1.20    1.00
  13 -19  -2    0.98    0.88
  13  19  -1    0.66    0.98
  13 -19  -1    1.09    0.83
  13 -19   0    3.83    1.17
  13  19   1    2.36    1.07
  13 -19   1    3.64    1.20
  13  19   2    2.57    1.01
  13 -19   2    4.32    1.40
  13  19   3    4.32    1.32
  13 -19   3    6.26    1.52
  13  19   4    0.43    1.04
  13  20  -5   -0.09    1.20
  13 -20  -5   -0.54    0.85
  13  20  -4   -1.76    0.82
  13 -20  -4   -0.06    0.89
  13 -20  -4   -0.61    0.92
  13  20  -3    2.38    1.14
  13 -20  -3    3.72    1.19
  13  20  -2    0.52    0.99
  13 -20  -2    0.13    0.66
  13  20  -1    2.54    1.26
  13 -20  -1    3.88    1.27
  13 -20   0    1.50    1.00
  13  20   1    0.48    0.89
  13 -20   1    2.45    1.10
  13  20   2   10.61    1.77
  13 -20   2    8.93    1.80
  13  20   3    0.65    0.86
  13 -20   3    0.55    0.96
  13  20   4    3.17    1.27
  13  21  -4    6.56    1.73
  13 -21  -4    9.75    1.89
  13 -21  -4   12.65    2.06
  13  21  -3    0.43    1.06
  13 -21  -3    0.34    0.95
  13  21  -2   -0.02    0.85
  13 -21  -2    0.94    0.83
  13  21  -1    2.95    1.16
  13 -21  -1    5.85    1.44
  13 -21   0    7.22    1.60
  13 -21   1    5.61    1.40
  13  21   2    6.48    1.42
  13 -21   2    3.52    1.32
  13  21   3    3.66    1.37
  13  22  -3   -1.67    0.79
  13 -22  -3    0.14    0.78
  13  22  -2    0.73    1.14
  13 -22  -2    0.93    0.97
  13  22  -1   -0.27    1.00
  13 -22  -1    0.22    0.98
  13 -22   0   -0.97    0.67
  13 -22   1    6.33    1.57
  13  23  -2    2.52    1.26
  13 -23  -2    2.66    1.20
  13  23  -1    1.07    1.21
  13 -23  -1    0.50    1.02
  14   0  -8    6.94    1.54
  14   0  -7    1.15    0.88
  14   0  -6    0.87    0.82
  14   0  -5   -0.09    0.70
  14   0  -4    1.70    0.83
  14   0  -3   -0.03    0.55
  14   0  -2   56.67    3.19
  14   0  -1   -0.89    0.38
  14   0   0  137.16    5.97
  14   0   1    0.14    0.64
  14   0   2  206.36    7.98
  14   0   2  202.63    8.41
  14   0   3   -0.83    0.60
  14   0   3   -0.08    0.54
  14   0   4    2.94    1.06
  14   0   4    1.80    0.77
  14   0   5    1.27    0.84
  14   0   5    0.04    0.67
  14   0   6   11.13    1.90
  14   0   6   13.65    1.98
  14   0   7    1.03    1.10
  14   1  -8   -1.13    0.75
  14  -1  -8    0.98    1.14
  14   1  -7    0.20    0.87
  14  -1  -7    0.16    0.88
  14   1  -6    3.04    1.06
  14  -1  -6    2.54    1.03
  14   1  -5   25.98    2.44
  14  -1  -5   24.25    2.47
  14   1  -4    8.61    1.36
  14  -1  -4   10.93    1.54
  14   1  -3    6.54    1.25
  14  -1  -3    4.18    0.98
  14   1  -2  135.95    5.94
  14  -1  -2  135.25    5.92
  14  -1  -1  113.02    5.13
  14   1   0   88.67    4.25
  14  -1   0   83.81    4.21
  14   1   1   40.59    2.64
  14  -1   1   41.47    2.68
  14   1   2   30.85    1.99
  14   1   2   34.62    2.46
  14  -1   2   31.72    2.32
  14  -1   2   31.76    2.04
  14   1   3    9.74    1.32
  14   1   3   10.56    1.61
  14  -1   3   14.14    1.78
  14  -1   3    8.88    1.26
  14   1   4    8.02    1.53
  14   1   4    5.96    1.13
  14  -1   4    8.24    1.39
  14  -1   4    4.45    1.13
  14   1   5    0.99    0.87
  14   1   5    0.87    0.77
  14  -1   5    0.66    0.74
  14  -1   5    1.49    0.79
  14   1   6    1.86    1.04
  14   1   6    2.52    1.16
  14  -1   6    2.91    1.11
  14  -1   6    2.46    1.01
  14   1   7    0.03    0.80
  14   1   7    0.19    0.84
  14  -1   7   -0.26    1.10
  14   2  -8    3.63    1.34
  14  -2  -8    3.48    1.26
  14   2  -7    4.79    1.28
  14  -2  -7    2.95    1.24
  14   2  -6   18.64    2.19
  14  -2  -6   18.19    2.15
  14   2  -5   18.41    2.09
  14  -2  -5   19.85    2.19
  14   2  -4    1.66    0.76
  14  -2  -4    1.65    0.81
  14   2  -3    9.85    1.47
  14  -2  -3    9.80    1.43
  14   2  -2    1.70    0.75
  14  -2  -2    3.09    0.90
  14   2  -1    0.38    0.62
  14  -2  -1    0.15    0.60
  14   2   0  186.66    8.38
  14  -2   0  237.63    8.62
  14   2   1   17.25    1.89
  14  -2   1   19.72    2.01
  14  -2   1   19.28    1.43
  14   2   2   -0.12    0.48
  14   2   2   -1.08    0.61
  14  -2   2    0.54    0.73
  14  -2   2    0.37    0.51
  14   2   3    0.49    0.67
  14   2   3    0.67    0.56
  14  -2   3    0.56    0.71
  14  -2   3   -0.03    0.50
  14   2   4    0.22    0.67
  14   2   4    0.46    0.81
  14  -2   4    0.05    0.61
  14  -2   4   -0.29    0.65
  14   2   5    3.01    1.15
  14   2   5    2.79    1.05
  14  -2   5    1.30    0.83
  14  -2   5    2.75    1.05
  14   2   6    5.29    1.36
  14   2   6    4.62    1.32
  14  -2   6    2.65    1.11
  14   2   7    3.72    1.27
  14   2   7    0.04    1.03
  14   3  -8    2.57    1.18
  14  -3  -8    2.45    1.26
  14   3  -7    1.14    0.94
  14  -3  -7    0.39    0.92
  14   3  -6    3.38    1.08
  14  -3  -6    2.30    1.11
  14   3  -5   -0.99    0.60
  14  -3  -5    0.77    0.80
  14   3  -4    3.67    1.02
  14  -3  -4    1.73    0.84
  14   3  -3   14.57    1.72
  14  -3  -3   14.31    1.71
  14   3  -2    6.28    1.24
  14  -3  -2    7.47    1.25
  14   3  -1    3.84    0.95
  14  -3  -1    2.10    0.85
  14   3   0    1.46    0.72
  14  -3   0    1.98    0.81
  14   3   1    0.76    0.73
  14  -3   1    1.21    0.72
  14  -3   1    1.17    0.54
  14   3   2    2.47    0.98
  14  -3   2    4.17    1.02
  14  -3   2    2.83    0.74
  14   3   3   73.02    3.72
  14   3   3   75.81    4.08
  14  -3   3   71.70    3.90
  14  -3   3   77.62    3.88
  14   3   4    4.36    1.07
  14   3   4    1.59    0.90
  14  -3   4    4.04    1.10
  14  -3   4    3.75    1.02
  14   3   5    0.50    0.81
  14   3   5    1.30    0.92
  14  -3   5    1.82    0.87
  14  -3   5    0.80    0.85
  14   3   6    0.11    0.87
  14   3   6   -0.74    0.76
  14  -3   6   -0.40    0.66
  14   3   7    5.23    1.41
  14   3   7    5.67    1.53
  14   4  -8    1.25    1.00
  14  -4  -8    0.64    1.13
  14   4  -7    2.03    0.99
  14  -4  -7    1.68    0.98
  14   4  -6    0.94    0.86
  14  -4  -6    1.41    0.89
  14   4  -5    5.07    1.13
  14  -4  -5    5.00    1.15
  14   4  -4   22.17    2.15
  14  -4  -4   25.59    2.40
  14   4  -3   10.34    1.45
  14  -4  -3   12.83    1.62
  14   4  -2   36.11    2.43
  14  -4  -2   37.37    2.47
  14   4  -1   20.32    2.03
  14  -4  -1   17.81    1.85
  14   4   0   45.26    2.77
  14  -4   0   46.23    2.82
  14   4   1    7.63    1.31
  14  -4   1    8.93    1.11
  14  -4   1    9.87    1.40
  14   4   2   70.21    3.93
  14  -4   2   77.19    3.87
  14  -4   2   74.36    3.65
  14   4   3   33.66    2.23
  14   4   3   32.70    2.48
  14  -4   3   31.95    2.31
  14  -4   3   32.76    2.27
  14   4   4    0.31    0.58
  14   4   4    0.13    0.81
  14  -4   4   -0.53    0.61
  14  -4   4    0.78    0.77
  14   4   5   11.58    1.79
  14   4   5   12.08    1.80
  14  -4   5   11.94    1.83
  14  -4   5   14.34    2.17
  14   4   6    1.59    1.04
  14   4   6   -0.05    0.74
  14  -4   6    1.50    1.04
  14   4   7    0.20    0.80
  14   4   7    1.15    1.31
  14   5  -8    1.05    0.98
  14  -5  -8   -0.12    0.96
  14   5  -7   -0.25    0.71
  14  -5  -7   -0.32    0.71
  14   5  -6    5.09    1.22
  14  -5  -6    3.18    1.09
  14   5  -5    1.73    0.90
  14  -5  -5    2.20    0.94
  14   5  -4    1.22    0.72
  14  -5  -4    1.51    0.76
  14   5  -3    1.53    0.77
  14  -5  -3    1.14    0.77
  14   5  -2   -0.17    0.65
  14  -5  -2    0.13    0.69
  14   5  -1   33.90    2.36
  14  -5  -1   38.32    2.51
  14   5   0    8.93    1.39
  14  -5   0    8.91    1.27
  14  -5   0    8.67    1.41
  14   5   1  115.74    5.28
  14  -5   1  108.59    5.05
  14  -5   1  109.97    4.79
  14   5   2   11.43    1.66
  14  -5   2    8.94    1.38
  14  -5   2    8.33    1.20
  14   5   3    2.35    0.73
  14   5   3    1.47    0.78
  14  -5   3    1.24    0.76
  14  -5   3    0.16    0.69
  14   5   4    1.36    0.73
  14   5   4    1.94    1.03
  14  -5   4    1.56    0.93
  14  -5   4    1.94    0.88
  14   5   5    0.73    0.74
  14   5   5    0.71    0.91
  14  -5   5    0.78    0.89
  14   5   6    0.63    0.92
  14   5   6    1.82    1.03
 -14  -5  -6    1.10    1.07
  14  -5   6    0.98    0.99
  14   5   7    0.44    0.98
  14   6  -8    0.09    0.89
  14  -6  -8    1.16    1.01
  14   6  -7    2.29    1.06
  14   6  -6    0.48    0.82
  14   6  -6    1.61    0.99
  14  -6  -6    0.64    0.79
  14   6  -5   -0.10    0.60
  14   6  -5    2.99    0.94
  14  -6  -5    0.56    0.71
  14   6  -4   15.43    1.78
  14  -6  -4   19.90    2.08
  14   6  -3    0.36    0.63
  14  -6  -3    0.49    0.69
  14   6  -2    5.50    1.16
  14  -6  -2    4.84    1.07
  14   6  -1   -0.26    0.55
  14   6  -1   -0.07    0.70
  14  -6  -1    0.40    0.65
  14   6   0   17.57    1.94
  14   6   0   13.91    1.44
  14  -6   0   14.29    1.64
  14  -6   0   11.10    1.24
  14   6   1    4.25    1.04
  14  -6   1    3.44    0.99
  14  -6   1    3.66    0.82
  14   6   2   37.83    2.64
  14  -6   2   42.62    2.58
  14  -6   2   36.46    2.39
  14   6   3    3.43    1.09
  14  -6   3    0.95    0.79
 -14  -6  -3    3.24    1.40
  14  -6   3    2.83    0.86
  14   6   4    4.38    1.17
 -14  -6  -4    5.20    1.17
  14  -6   4    4.02    1.07
  14  -6   4    2.68    1.05
  14   6   5   -0.48    0.65
 -14  -6  -5   -1.19    0.72
  14  -6   5    0.69    0.86
  14   6   6    1.44    1.06
  14  -6   6    3.72    1.28
 -14  -6  -6    3.82    1.37
  14   6   7    0.06    0.98
  14   7  -8    1.44    1.14
  14  -7  -8   -0.49    0.92
  14   7  -7    2.56    1.21
  14  -7  -7    1.55    0.99
  14   7  -6    7.35    1.54
  14  -7  -6    9.29    1.75
  14   7  -5   10.87    1.52
  14   7  -5   11.19    1.69
  14  -7  -5   10.87    1.64
  14   7  -4    3.55    0.94
  14   7  -4    4.05    1.07
  14  -7  -4    4.74    1.11
  14   7  -3    0.18    0.59
  14   7  -3    0.43    0.62
  14  -7  -3   -0.04    0.64
  14   7  -2   47.35    2.81
  14   7  -2   48.89    2.90
  14  -7  -2   45.81    2.85
  14   7  -1   55.70    3.13
  14   7  -1   53.54    2.93
  14  -7  -1   52.93    3.09
  14   7   0    1.92    0.72
  14   7   0    3.47    0.98
  14  -7   0    3.08    0.90
  14  -7   0    2.72    0.69
  14   7   1   67.43    3.70
  14  -7   1   62.80    3.29
  14  -7   1   66.14    3.49
  14   7   2    1.41    0.75
  14  -7   2    0.22    0.70
  14  -7   2    0.43    0.58
  14   7   3    9.28    1.57
  14  -7   3    8.86    1.40
  14  -7   3   10.56    1.53
  14   7   4    0.77    0.74
  14  -7   4   -0.36    0.66
 -14  -7  -4    1.09    0.81
  14   7   5    0.14    0.82
  14  -7   5    1.26    0.88
 -14  -7  -5   -0.38    0.79
  14   7   6   -0.08    0.72
  14  -7   6    0.33    0.91
 -14  -7  -6    0.03    0.85
  14   8  -7    0.39    0.88
  14  -8  -7    0.49    0.96
  14   8  -6    1.98    0.95
  14  -8  -6    1.60    0.97
  14   8  -5    3.91    1.02
  14   8  -5    2.67    0.98
  14  -8  -5    3.99    1.26
  14   8  -4    0.15    0.63
  14   8  -4    0.37    0.70
  14  -8  -4    0.38    0.70
  14   8  -3    4.40    0.99
  14   8  -3    4.51    1.08
  14  -8  -3    3.07    0.98
  14   8  -2    0.01    0.62
  14   8  -2    0.62    0.74
  14  -8  -2    1.85    0.77
  14   8  -1    0.97    0.60
  14   8  -1   -0.38    0.53
  14  -8  -1    0.71    0.76
  14   8   0   65.77    3.68
  14   8   0   68.62    3.36
  14  -8   0   69.12    3.61
  14  -8   0   70.65    3.43
  14   8   1    8.29    1.43
  14  -8   1   10.13    1.44
  14  -8   1    7.17    1.15
  14   8   2    4.12    1.11
  14  -8   2    5.56    1.08
  14   8   3   -0.06    0.65
  14  -8   3    1.22    0.76
  14  -8   3   -0.62    0.63
  14   8   4    0.90    0.93
  14  -8   4   -0.39    0.72
 -14  -8  -4    0.65    0.78
  14   8   5    2.79    1.19
 -14  -8  -5    4.02    1.21
  14  -8   5    4.08    1.18
  14   8   6    1.92    1.05
  14  -8   6    0.40    0.89
 -14  -8  -6    0.60    0.92
  14   9  -7    0.76    1.00
  14  -9  -7    0.70    0.93
  14   9  -6    8.33    1.63
  14  -9  -6    3.98    1.24
  14   9  -5    1.27    0.86
  14  -9  -5    1.19    0.89
  14   9  -4    0.61    0.77
  14   9  -4    1.27    0.74
  14  -9  -4    0.70    0.83
  14   9  -3    3.95    1.03
  14   9  -3    6.51    1.32
  14  -9  -3    4.14    1.18
  14   9  -2   -0.35    0.52
  14   9  -2    0.52    0.62
  14  -9  -2    1.07    0.72
  14   9  -1    0.45    0.63
  14   9  -1    0.66    0.70
  14  -9  -1    0.33    0.73
  14  -9  -1    1.02    0.58
  14   9   0    0.79    0.58
  14   9   0    1.52    0.89
  14  -9   0    0.96    0.58
  14  -9   0   -0.67    0.53
  14   9   1   19.89    2.14
  14  -9   1   22.98    2.09
  14  -9   1   19.79    1.91
  14   9   2   13.37    1.79
  14  -9   2   13.57    1.66
  14  -9   2   17.41    1.87
  14   9   3   25.22    2.52
  14  -9   3   21.12    2.19
  14   9   4    0.44    0.79
  14  -9   4    0.09    0.69
  14   9   5    6.23    1.52
 -14  -9  -5    5.85    1.36
  14   9   6    1.62    1.01
  14  -9   6   -0.08    0.83
 -14  -9  -6    3.21    1.36
  14  10  -7    2.81    1.21
  14 -10  -7    1.27    1.14
  14  10  -6   -0.37    0.71
  14 -10  -6    0.45    0.82
  14  10  -5    1.21    0.91
  14 -10  -5    1.22    0.94
  14  10  -4   47.42    3.16
  14  10  -4   40.29    2.69
  14 -10  -4   49.18    3.16
  14  10  -3   30.84    2.27
  14  10  -3   33.59    2.48
  14 -10  -3   38.18    2.58
  14  10  -2   14.16    1.72
  14  10  -2   17.96    1.89
  14 -10  -2   18.88    2.03
  14  10  -1    1.59    0.76
  14  10  -1    1.00    0.72
  14 -10  -1    1.76    0.82
  14 -10  -1    0.97    0.63
  14  10   0   22.69    2.18
  14  10   0   23.60    2.31
  14 -10   0   22.55    2.12
  14 -10   0   23.86    1.88
  14  10   1    0.50    0.73
  14 -10   1   -0.54    0.52
  14 -10   1    1.22    0.72
  14  10   2   27.25    2.57
  14 -10   2   18.25    2.63
  14 -10   2   20.13    2.07
  14  10   3    0.81    0.78
  14 -10   3   -0.01    0.61
  14  10   4    2.51    1.04
  14 -10   4    2.38    1.00
  14  10   5   -0.13    0.79
  14 -10   5   -0.30    0.69
 -14 -10  -5    0.48    0.87
  14  10   6    0.18    0.85
 -14 -10  -6    0.49    1.07
  14 -10   6    0.06    0.91
  14  11  -7    0.22    0.96
  14 -11  -7    0.56    1.07
  14  11  -6    7.92    1.65
  14 -11  -6    7.66    1.59
  14  11  -5    0.42    0.76
  14 -11  -5    0.73    0.89
  14  11  -4   10.36    1.62
  14 -11  -4    8.37    1.50
  14  11  -3    3.61    1.01
  14  11  -3    3.04    1.08
  14 -11  -3    1.45    0.82
  14  11  -2    4.89    1.10
  14  11  -2    5.98    1.21
  14 -11  -2    5.88    1.18
  14  11  -1    2.20    0.88
  14  11  -1    1.53    0.82
  14 -11  -1    1.32    0.82
  14 -11  -1    2.11    0.75
  14  11   0    0.20    0.66
  14 -11   0    0.78    0.56
  14 -11   0    0.46    0.73
  14  11   1   23.96    2.42
  14 -11   1   22.99    2.20
  14 -11   1   22.91    2.07
  14  11   2    6.13    1.34
  14 -11   2    7.97    1.36
  14  11   3    1.14    0.79
  14 -11   3    0.48    0.71
  14  11   4    3.49    1.09
  14 -11   4    5.61    1.35
  14  11   5    2.78    1.19
  14 -11   5    2.53    1.15
 -14 -11  -5    2.10    1.27
  14  11   6    1.30    1.15
 -14 -11  -6    4.15    1.40
  14  12  -7    0.25    0.98
  14 -12  -7   -0.33    0.87
  14  12  -6    1.26    1.00
  14 -12  -6    1.37    0.97
  14  12  -5    3.84    1.31
  14 -12  -5    2.32    1.09
  14  12  -4    8.32    1.58
  14 -12  -4   10.06    1.70
  14  12  -3   -0.16    0.77
  14  12  -3   -0.38    0.60
  14 -12  -3   -0.03    0.62
  14  12  -2    2.82    0.97
  14  12  -2    0.33    0.83
  14 -12  -2    2.36    0.90
  14  12  -1   18.63    2.02
  14  12  -1   16.23    1.83
  14 -12  -1   21.30    2.06
  14 -12  -1   14.25    1.74
  14  12   0    1.95    0.93
  14 -12   0    1.44    0.85
  14 -12   0    3.08    0.89
  14  12   1   28.85    2.68
  14 -12   1   31.20    2.35
  14  12   2   23.27    2.48
  14 -12   2   25.33    2.48
  14  12   3    1.84    1.01
  14 -12   3    0.36    0.75
  14  12   4   23.54    2.63
  14 -12   4   26.80    2.74
  14  12   5    2.45    1.14
  14 -12   5    1.89    1.04
  14  12   6    3.19    1.43
 -14 -12  -6    3.07    1.27
  14  13  -7   -0.86    0.97
  14 -13  -7    0.49    1.03
  14  13  -6   12.79    2.02
  14 -13  -6    9.14    1.83
  14  13  -5   14.33    2.18
  14 -13  -5   13.26    2.07
  14  13  -4    9.41    1.68
  14 -13  -4   13.40    1.93
  14  13  -3    3.58    1.14
  14 -13  -3    3.91    1.12
  14  13  -2    8.93    1.44
  14  13  -2    7.07    1.42
  14 -13  -2    9.46    1.38
  14 -13  -2    9.21    1.48
  14  13  -1   58.26    3.50
  14  13  -1   59.98    3.51
  14 -13  -1   67.25    3.56
  14 -13  -1   65.12    3.53
  14  13   0    0.48    0.73
  14 -13   0    1.39    0.69
  14 -13   0    0.54    0.72
  14  13   1   15.00    1.94
  14 -13   1   20.61    2.16
  14  13   2   21.98    2.39
  14 -13   2   17.95    2.14
  14  13   3   -0.08    0.75
  14 -13   3    0.84    0.79
  14  13   4   -0.75    0.78
  14 -13   4   -1.19    0.54
  14  13   5   -0.08    0.72
  14 -13   5   -0.22    0.91
  14  14  -6    0.70    0.95
  14 -14  -6    0.11    0.87
  14  14  -5    0.75    1.08
  14 -14  -5    1.47    1.05
  14  14  -4    1.56    0.96
  14 -14  -4    3.81    1.21
  14  14  -3    0.66    0.90
  14 -14  -3    2.31    1.01
  14  14  -2   15.04    1.91
  14  14  -2   15.59    1.80
  14 -14  -2   13.81    1.75
  14 -14  -2   13.14    1.79
  14  14  -1   10.69    1.61
  14  14  -1   10.56    1.51
  14 -14  -1    8.75    1.44
  14 -14  -1   10.65    1.56
  14  14   0   12.84    1.75
  14 -14   0    9.99    1.50
  14  14   1    5.18    1.26
  14 -14   1    2.98    1.01
  14  14   2    8.32    1.56
  14 -14   2   13.39    1.80
  14  14   3    0.05    0.76
  14 -14   3    0.14    0.70
  14 -14   4    2.32    1.18
  14  14   5    8.61    1.81
  14 -14   5    9.29    1.92
  14  15  -6    0.35    1.06
  14 -15  -6   -0.28    0.85
  14  15  -5   -0.34    0.80
  14 -15  -5    0.57    0.89
  14  15  -4    1.56    0.98
  14 -15  -4    1.32    0.96
  14  15  -3    2.27    1.05
  14 -15  -3   -0.09    0.68
  14  15  -2   12.85    1.81
  14 -15  -2   14.94    1.89
  14 -15  -2   13.42    1.82
  14  15  -1    5.05    1.24
  14  15  -1    4.66    1.17
  14 -15  -1    4.71    1.11
  14 -15  -1    6.12    1.30
  14  15   0    1.76    0.88
  14 -15   0    1.32    0.83
  14  15   1   11.87    1.81
  14 -15   1   13.36    1.91
  14  15   2   15.96    2.07
  14 -15   2   15.91    2.04
  14  15   3   23.95    2.60
  14 -15   3   26.11    2.75
  14  15   4   -0.01    0.86
  14 -15   4   -0.36    0.64
  14  15   5    1.78    1.23
  14  16  -6   -0.27    0.92
  14 -16  -6    0.35    1.00
  14  16  -5    0.93    1.02
  14 -16  -5   -0.73    0.79
  14  16  -4    9.36    1.73
  14 -16  -4    8.56    1.65
  14  16  -3    1.34    0.95
  14 -16  -3    0.25    0.80
  14  16  -2    7.17    1.42
  14 -16  -2    4.15    1.10
  14 -16  -2    6.11    1.39
  14  16  -1   12.37    1.80
  14  16  -1   14.08    1.76
  14 -16  -1   13.83    1.90
  14  16   0   39.19    2.76
  14 -16   0   38.25    2.85
  14  16   1    5.66    1.24
  14 -16   1    3.79    1.11
  14  16   2   13.63    1.93
  14 -16   2   15.81    2.10
  14  16   3    5.14    1.45
  14 -16   3    4.96    1.32
  14  16   4    0.43    0.95
  14 -16   4    1.53    1.01
  14  16   5    2.95    1.29
  14  17  -5   -0.50    0.99
  14 -17  -5    0.06    0.89
  14  17  -4    0.80    0.94
  14 -17  -4   -0.14    0.81
  14  17  -3   -1.01    0.70
  14 -17  -3    1.33    0.93
  14  17  -2    2.40    1.14
  14 -17  -2    2.50    1.01
  14 -17  -2    2.54    1.07
  14  17  -1   29.57    2.73
  14 -17  -1   33.98    2.68
  14  17   0    1.42    0.82
  14 -17   0    0.00    0.77
  14  17   1   22.81    2.44
  14 -17   1   25.84    2.69
  14  17   2    0.23    0.85
  14 -17   2    2.53    1.10
  14  17   3    0.13    0.82
  14 -17   3    1.76    1.03
  14  17   4    0.95    1.00
  14 -17   4   -0.06    0.91
  14  18  -5    6.24    1.61
  14 -18  -5    5.02    1.45
  14  18  -4   -0.43    0.86
  14 -18  -4   -0.62    0.82
  14  18  -3    2.69    1.19
  14 -18  -3    4.63    1.29
  14 -18  -3    3.10    1.17
  14  18  -2    4.82    1.40
  14 -18  -2    3.77    1.16
  14  18  -1    3.84    1.23
  14 -18  -1    3.79    1.15
  14  18   0    9.07    1.51
  14 -18   0   12.04    1.89
  14  18   1   -0.26    0.79
  14 -18   1    1.27    0.93
  14  18   2   22.47    2.65
  14 -18   2   24.04    2.74
  14  18   3    3.09    1.24
  14 -18   3    4.14    1.40
  14  18   4    4.77    1.50
  14  19  -5   12.00    2.28
  14 -19  -5   11.11    2.02
  14  19  -4    0.98    1.15
  14 -19  -4    1.03    0.93
  14  19  -3    0.05    0.95
  14 -19  -3    0.15    0.83
  14 -19  -3    1.03    0.93
  14  19  -2    1.42    1.15
  14 -19  -2    3.41    1.24
  14  19  -1   26.57    2.63
  14 -19  -1   20.31    2.43
  14 -19   0   -0.33    0.79
  14  19   1   23.27    2.49
  14 -19   1   22.52    2.60
  14  19   2    2.94    1.24
  14 -19   2    2.08    1.15
  14  19   3    0.12    0.83
  14 -19   3   -1.04    0.91
  14  19   4    4.17    1.39
  14  20  -4    1.23    1.10
  14 -20  -4   -0.70    0.90
  14  20  -3    6.52    1.67
  14 -20  -3    6.34    1.48
  14  20  -2    2.04    1.18
  14 -20  -2   -0.14    0.76
  14  20  -1    0.66    0.87
  14 -20  -1   -0.52    0.78
  14 -20   0   14.78    2.13
  14  20   1    1.20    0.97
  14 -20   1   -0.02    0.89
  14  20   2   20.45    2.52
  14 -20   2   19.58    2.62
  14  20   3    1.41    1.16
  14  21  -3    1.90    1.18
  14 -21  -3    3.01    1.21
  14  21  -2   15.56    2.30
  14 -21  -2   11.13    1.96
  14 -21  -1    3.44    1.33
  14 -21   0    0.60    0.94
  14 -21   1    6.11    1.51
  14  21   2    4.07    1.28
  14  22  -3    5.60    1.72
  14 -22  -3   11.84    2.05
  14  22  -2   10.01    1.98
  14 -22  -2    8.74    1.88
  14 -22  -1    0.93    0.98
  14 -22   0   26.69    3.05
  15   0  -8    1.57    1.12
  15   0  -7   -0.19    0.89
  15   0  -6   -0.05    0.83
  15   0  -5    0.29    0.69
  15   0  -4    0.45    0.66
  15   0  -3   -0.18    0.58
  15   0  -2   63.07    3.48
  15   0  -1    0.62    0.66
  15   0   0   -0.20    0.68
  15   0   1   -0.41    0.57
  15   0   2   17.93    2.02
  15   0   3   -0.77    0.40
  15   0   3   -0.61    0.64
  15   0   4   29.64    2.31
  15   0   4   33.84    2.99
  15   0   5   -0.38    0.74
  15   0   5    0.79    0.90
  15   0   6    0.64    0.91
  15   0   6    1.34    0.95
  15   1  -8   -1.24    0.82
  15  -1  -8    1.20    1.16
  15   1  -7   10.84    1.90
  15  -1  -7    8.91    1.78
  15   1  -6    0.51    0.83
  15  -1  -6    0.65    0.93
  15   1  -5    2.48    1.00
  15  -1  -5    2.81    0.98
  15   1  -4    2.97    0.92
  15  -1  -4    0.61    0.78
  15   1  -3   65.85    3.57
  15  -1  -3   62.74    3.59
  15   1  -2    3.26    0.96
  15  -1  -2    2.73    0.91
  15   1  -1   12.36    1.60
  15  -1  -1    9.29    1.51
  15   1   0   11.68    1.61
  15  -1   0   17.04    1.89
  15   1   1    1.95    0.84
  15  -1   1    1.93    0.85
  15   1   2   47.13    2.98
  15  -1   2   39.90    2.82
  15   1   3    6.12    1.30
  15   1   3    8.96    1.31
  15  -1   3    7.91    1.44
  15  -1   3    8.16    1.23
  15   1   4   -0.34    0.55
  15   1   4    0.30    0.80
  15  -1   4   -0.37    0.57
  15  -1   4   -0.29    0.65
  15   1   5    3.51    1.19
  15   1   5    2.97    1.08
  15  -1   5    2.31    1.03
  15  -1   5    3.81    1.16
  15   1   6    3.53    1.23
  15   1   6    4.04    1.28
  15  -1   6    2.81    1.22
  15   2  -8    1.80    1.20
  15  -2  -8    3.19    1.31
  15   2  -7    0.94    0.93
  15  -2  -7    1.05    0.93
  15   2  -6    3.66    1.11
  15  -2  -6    4.25    1.20
  15   2  -5    9.57    1.53
  15  -2  -5   10.54    1.65
  15   2  -4   43.01    2.86
  15  -2  -4   48.88    3.07
  15   2  -3   11.50    1.56
  15  -2  -3   10.02    1.50
  15   2  -2   20.96    2.10
  15  -2  -2   24.67    2.22
  15   2  -1  131.43    6.01
  15  -2  -1  143.94    6.14
  15   2   0    0.87    0.70
  15  -2   0    0.90    0.73
  15   2   1   37.97    2.60
  15  -2   1   35.09    2.52
  15   2   2    0.95    0.78
  15  -2   2    1.03    0.73
  15  -2   2    0.33    0.54
  15   2   3   11.14    1.68
  15  -2   3    7.56    1.24
  15  -2   3    9.28    1.47
  15   2   4    1.27    0.84
  15   2   4    1.35    0.86
  15  -2   4    0.60    0.82
  15  -2   4    0.22    0.69
  15   2   5    5.59    1.34
  15   2   5    9.47    1.65
  15  -2   5    7.72    1.47
  15  -2   5    6.61    1.46
  15   2   6    1.19    1.00
  15   2   6   -0.79    0.65
  15  -2   6   -0.33    0.79
  15   3  -8   -0.06    0.87
  15  -3  -8    0.66    0.88
  15   3  -7    1.32    1.02
  15  -3  -7   -0.29    0.73
  15   3  -6    4.14    1.19
  15  -3  -6    1.20    0.94
  15   3  -5   -0.25    0.72
  15  -3  -5   -0.04    0.79
  15   3  -4    0.57    0.68
  15  -3  -4    0.99    0.75
  15   3  -3    1.41    0.79
  15  -3  -3    1.42    0.74
  15   3  -2    4.74    1.09
  15  -3  -2    4.42    1.06
  15   3  -1   77.31    3.94
  15  -3  -1   73.06    3.87
  15   3   0    0.30    0.62
  15  -3   0    0.27    0.76
  15   3   1   41.08    2.83
  15  -3   1   45.62    2.81
  15   3   2    4.98    1.18
  15  -3   2    3.14    0.98
  15  -3   2    4.37    0.91
  15   3   3   26.67    2.59
  15  -3   3   24.44    2.41
  15  -3   3   26.07    2.05
  15   3   4    4.02    1.09
  15   3   4    2.22    1.03
  15  -3   4    1.14    0.82
  15  -3   4    4.35    1.21
  15   3   5    3.94    1.33
  15   3   5    6.71    1.41
  15  -3   5    5.36    1.28
  15  -3   5    7.53    1.52
  15   3   6    1.12    1.01
  15   3   6    1.13    0.94
  15  -3   6    2.66    1.13
  15   4  -8    3.28    1.44
  15  -4  -8    6.33    1.62
  15   4  -7    0.35    0.86
  15  -4  -7    2.48    1.27
  15   4  -6    3.28    1.13
  15  -4  -6    0.99    0.85
  15   4  -5    6.68    1.37
  15  -4  -5    6.56    1.35
  15   4  -4    9.17    1.44
  15  -4  -4   11.66    1.65
  15   4  -3   18.38    1.93
  15  -4  -3   18.39    2.00
  15   4  -2  114.81    5.39
  15  -4  -2  120.39    5.48
  15   4  -1  107.99    5.10
  15  -4  -1  111.99    5.18
  15   4   0   21.68    2.19
  15  -4   0   22.35    2.18
  15   4   1   40.23    2.78
  15  -4   1   47.79    2.91
  15   4   2    0.29    0.67
  15  -4   2   -0.39    0.44
  15  -4   2    0.54    0.70
  15   4   3    0.32    0.75
  15  -4   3    0.09    0.69
  15  -4   3   -0.20    0.60
  15   4   4    0.57    0.85
  15   4   4    0.14    0.65
  15  -4   4    0.02    0.70
  15  -4   4    1.27    0.88
  15   4   5    1.11    0.74
  15   4   5    1.27    0.90
  15  -4   5    0.27    0.75
  15   4   6    2.36    1.17
  15   4   6    7.18    1.49
  15  -4   6    5.17    1.48
  15   5  -7    4.06    1.28
  15  -5  -7    5.92    1.52
  15   5  -6    5.71    1.34
  15  -5  -6    4.60    1.28
  15   5  -5    1.41    0.79
  15  -5  -5    0.62    0.74
  15   5  -4    3.49    1.06
  15  -5  -4    3.47    1.05
  15   5  -3   42.35    2.76
  15  -5  -3   39.92    2.71
  15   5  -2   61.66    3.47
  15  -5  -2   63.71    3.52
  15   5  -1   34.76    2.45
  15  -5  -1   35.51    2.46
  15   5   0    4.38    1.15
  15  -5   0    7.83    1.33
  15   5   1   -0.08    0.59
  15  -5   1   -0.50    0.60
  15   5   2   17.13    2.03
  15  -5   2   19.66    2.03
  15  -5   2   22.52    2.01
  15   5   3    1.29    0.88
  15  -5   3    1.50    0.88
  15  -5   3    4.07    1.01
  15   5   4    0.71    0.82
  15  -5   4    0.86    0.84
  15  -5   4    1.74    0.91
  15   5   5    3.14    1.08
  15   5   5    2.90    1.13
  15  -5   5    2.42    1.05
  15   5   6    1.95    1.03
  15   5   6    1.04    0.90
  15  -5   6    2.07    1.23
 -15  -5  -6    0.20    0.99
  15   6  -7    1.38    1.06
  15  -6  -7    1.58    1.02
  15   6  -6   -0.78    0.61
  15   6  -6   -0.34    0.69
  15  -6  -6   -1.02    0.64
  15   6  -5    0.69    0.84
  15   6  -5    1.61    0.89
  15  -6  -5    1.51    0.87
  15   6  -4    5.41    1.14
  15  -6  -4    5.95    1.27
  15   6  -3   10.55    1.50
  15  -6  -3   11.02    1.59
  15   6  -2   33.48    2.38
  15  -6  -2   33.68    2.46
  15   6  -1   -0.23    0.42
  15   6  -1   -0.35    0.58
  15  -6  -1    0.40    0.71
  15   6   0   85.03    4.43
  15  -6   0   91.40    4.42
  15   6   1    5.04    1.15
  15  -6   1    4.02    0.86
  15  -6   1    5.83    1.11
  15   6   2    2.71    0.95
  15  -6   2    1.46    0.88
  15  -6   2    3.83    0.93
  15   6   3   -0.26    0.76
  15  -6   3   -0.14    0.68
  15  -6   3    0.02    0.64
  15   6   4   11.92    1.83
  15  -6   4    6.41    1.39
  15   6   5    0.43    0.91
  15  -6   5    0.11    0.78
 -15  -6  -5   -0.46    0.71
  15   6   6   -0.87    0.93
 -15  -6  -6    1.51    1.05
  15  -6   6   -0.33    0.79
  15   7  -7    6.46    1.53
  15  -7  -7    7.08    1.69
  15   7  -6    2.17    1.00
  15  -7  -6    2.57    1.16
  15   7  -5    0.11    0.69
  15   7  -5   -0.05    0.74
  15  -7  -5    1.19    0.82
  15   7  -4    0.31    0.72
  15   7  -4   -0.07    0.67
  15  -7  -4    0.50    0.74
  15   7  -3   57.87    3.34
  15   7  -3   60.28    3.42
  15  -7  -3   58.47    3.46
  15   7  -2   12.23    1.68
  15   7  -2   12.48    1.58
  15  -7  -2   12.12    1.64
  15   7  -1   46.35    2.71
  15   7  -1   48.74    2.98
  15  -7  -1   44.77    2.90
  15   7   0    2.12    0.97
  15  -7   0    2.65    0.98
  15   7   1    8.65    1.49
  15  -7   1    6.76    1.10
  15  -7   1    8.62    1.35
  15   7   2   24.39    2.50
  15  -7   2   26.26    2.46
  15  -7   2   27.82    2.04
  15   7   3    1.56    0.89
  15  -7   3    0.00    0.60
  15  -7   3   -0.08    0.64
  15   7   4    1.27    0.96
  15  -7   4    0.46    0.76
  15   7   5    1.47    1.13
 -15  -7  -5    4.48    1.29
  15  -7   5    1.73    1.06
  15   7   6   -1.14    0.61
 -15  -7  -6    0.54    0.96
  15  -7   6   -1.67    0.68
  15   8  -7    0.14    0.90
  15  -8  -7   -0.06    0.87
  15   8  -6    0.77    0.85
  15  -8  -6    1.47    0.91
  15   8  -5    9.51    1.48
  15   8  -5    8.84    1.56
  15  -8  -5    9.53    1.71
  15   8  -4   27.28    2.41
  15   8  -4   15.96    1.98
  15  -8  -4   20.06    2.26
  15   8  -3    2.21    0.83
  15   8  -3    0.94    0.75
  15  -8  -3    0.19    0.72
  15   8  -2   11.74    1.51
  15   8  -2   11.01    1.60
  15  -8  -2   12.16    1.68
  15   8  -1    4.08    1.08
  15   8  -1    7.93    1.23
  15  -8  -1    5.33    1.17
  15   8   0   30.14    2.69
  15  -8   0   25.60    2.35
  15   8   1    0.03    0.65
  15  -8   1    0.04    0.52
  15  -8   1    0.18    0.71
  15   8   2   23.65    2.42
  15  -8   2   22.03    2.12
  15  -8   2   21.49    2.13
  15   8   3   23.00    2.46
  15  -8   3   22.49    2.28
  15   8   4   -0.19    0.73
  15  -8   4    0.80    0.88
  15   8   5    2.61    1.25
  15  -8   5    0.56    0.81
  15   8   6    1.53    1.12
 -15  -8  -6    1.25    1.00
  15  -8   6    2.16    1.23
  15   9  -7    0.21    0.89
  15  -9  -7   -1.50    0.64
  15   9  -6    0.09    0.76
  15  -9  -6   -0.01    0.84
  15   9  -5   -0.01    0.78
  15  -9  -5    0.68    0.80
  15   9  -4    2.05    0.84
  15   9  -4    1.73    1.01
  15  -9  -4    0.63    0.77
  15   9  -3   17.49    2.01
  15   9  -3   15.52    1.82
  15  -9  -3   24.49    2.39
  15   9  -2   24.75    2.36
  15   9  -2   23.39    2.21
  15  -9  -2   19.12    2.10
  15   9  -1   65.44    3.44
  15   9  -1   61.88    3.59
  15  -9  -1   68.05    3.65
  15   9   0    0.91    0.70
  15  -9   0    1.11    0.72
  15  -9   0   -0.79    0.54
  15   9   1   31.46    2.79
  15  -9   1   30.19    2.18
  15  -9   1   29.86    2.29
  15  -9   2    0.37    0.71
  15  -9   2    0.63    0.70
  15   9   3    2.43    0.98
  15  -9   3    2.10    0.91
  15   9   4    1.26    0.96
  15  -9   4   -0.64    0.61
  15   9   5    4.07    1.43
  15  -9   5    3.86    1.22
  15   9   6    0.72    0.88
 -15  -9  -6   -0.25    1.05
  15  10  -7   -0.84    0.91
  15 -10  -7    0.52    0.99
  15  10  -6    2.02    1.14
  15 -10  -6    1.84    1.13
  15  10  -5   12.82    1.94
  15 -10  -5   14.93    2.07
  15  10  -4   21.75    2.37
  15  10  -4   24.32    2.34
  15 -10  -4   22.54    2.46
  15  10  -3    2.25    0.96
  15  10  -3    2.33    0.90
  15 -10  -3    3.06    1.04
  15  10  -2   64.58    3.49
  15  10  -2   57.09    3.36
  15 -10  -2   56.81    3.40
  15  10  -1    7.24    1.42
  15  10  -1    8.69    1.32
  15 -10  -1    8.27    1.35
  15  10   0    2.28    0.91
  15 -10   0    2.34    0.96
  15 -10   0    1.03    0.69
  15  10   1    3.19    1.07
  15 -10   1    1.84    0.87
  15 -10   1    1.76    0.74
  15  10   2    0.23    0.78
  15 -10   2   -0.08    0.65
  15  10   3    3.13    1.05
  15 -10   3    0.81    0.74
  15  10   4    2.95    1.10
  15 -10   4    6.48    1.46
  15  10   5    1.35    1.08
  15 -10   5    1.72    0.99
  15  10   6    1.35    1.03
  15  11  -7    3.82    1.39
  15 -11  -7    7.22    1.75
  15  11  -6    1.91    1.07
  15 -11  -6    3.62    1.31
  15  11  -5    4.72    1.31
  15 -11  -5    5.36    1.36
  15  11  -4    1.33    0.99
  15 -11  -4    0.22    0.77
  15  11  -3   52.50    3.31
  15  11  -3   52.61    3.15
  15 -11  -3   56.64    3.44
  15  11  -2   20.96    2.22
  15  11  -2   26.72    2.47
  15 -11  -2   23.92    2.34
  15  11  -1    5.22    1.28
  15  11  -1    7.55    1.30
  15 -11  -1    3.57    1.05
  15  11   0   -0.38    0.72
  15 -11   0    1.05    0.67
  15 -11   0    0.22    0.71
  15  11   1    0.74    0.73
  15 -11   1    0.33    0.64
  15 -11   1    0.16    0.68
  15  11   2   26.90    2.71
  15 -11   2   27.83    2.55
  15  11   3    3.44    1.15
  15 -11   3    4.46    1.18
  15  11   4    3.86    1.33
  15 -11   4    1.71    0.97
  15  11   5    0.64    0.90
  15 -11   5   -0.34    0.82
  15  12  -6    3.77    1.29
  15 -12  -6    3.85    1.33
  15  12  -5   -0.43    0.74
  15 -12  -5   -0.15    0.74
  15  12  -4    1.27    0.95
  15  12  -3    1.97    1.01
  15  12  -3    2.16    0.92
  15 -12  -3    4.10    1.16
  15  12  -2   21.29    2.20
  15  12  -2   25.46    2.48
  15 -12  -2   26.14    2.41
  15  12  -1    3.95    1.16
  15  12  -1    3.46    0.96
  15 -12  -1    4.98    1.23
  15  12   0   52.58    3.22
  15 -12   0   51.34    3.07
  15 -12   0   45.93    2.93
  15  12   1    7.30    1.50
  15 -12   1   10.16    1.54
  15  12   2    2.68    1.12
  15 -12   2    2.94    1.01
  15  12   3    1.96    0.96
  15 -12   3    1.16    0.89
  15  12   4    1.39    0.94
  15 -12   4    0.89    0.92
  15  12   5    0.00    0.74
  15 -12   5    0.46    0.96
  15  13  -6    6.44    1.69
  15 -13  -6    7.50    1.75
  15  13  -5    2.82    1.18
  15 -13  -5    0.16    0.88
  15  13  -4    4.92    1.34
  15 -13  -4    4.00    1.25
  15  13  -3   30.85    2.87
  15 -13  -3   35.44    3.04
  15  13  -2   -0.40    0.69
  15  13  -2   -0.71    0.70
  15 -13  -2   -0.27    0.64
  15  13  -1    7.95    1.51
  15  13  -1   11.75    1.66
  15 -13  -1   11.91    1.71
  15 -13  -1    9.83    1.76
  15  13   0   -1.15    0.61
  15 -13   0   -0.71    0.57
  15 -13   0   -0.04    0.70
  15  13   1    0.67    0.84
  15 -13   1    0.82    0.78
  15  13   2    0.81    0.89
  15 -13   2    2.01    0.88
  15  13   3    2.52    0.80
  15 -13   3    0.61    0.85
  15  13   4    0.33    0.82
  15 -13   4    0.70    0.78
  15  13   5    1.29    1.02
  15 -13   5    2.30    1.12
  15  14  -6    5.09    1.52
  15 -14  -6    4.77    1.44
  15  14  -5    6.82    1.69
  15 -14  -5    6.61    1.49
  15  14  -4    7.54    1.57
  15 -14  -4    8.34    1.60
  15  14  -3    4.62    1.29
  15 -14  -3    8.76    1.64
  15  14  -2   12.45    1.67
  15  14  -2   13.14    1.85
  15 -14  -2   15.18    1.94
  15  14  -1   14.22    1.91
  15  14  -1   15.45    1.88
  15 -14  -1   11.46    1.66
  15 -14  -1   14.38    1.83
  15  14   0   15.06    1.91
  15 -14   0   20.03    2.16
  15  14   1    8.34    1.58
  15 -14   1    7.22    1.42
  15  14   2    0.46    0.93
  15 -14   2   -0.14    0.71
  15  14   3    8.91    1.63
  15 -14   3    9.06    1.72
  15  14   4    3.31    1.27
  15 -14   4    3.10    1.31
  15  14   5    2.85    1.19
  15  15  -6    0.70    1.04
  15 -15  -6    0.22    1.17
  15  15  -5    1.44    1.07
  15 -15  -5    2.48    1.20
  15  15  -4    2.50    1.10
  15 -15  -4    2.17    1.12
  15  15  -3    2.39    1.06
  15 -15  -3    2.61    1.04
  15  15  -2    0.93    0.96
  15 -15  -2    0.80    0.87
  15  15  -1   41.74    2.87
  15  15  -1   44.56    2.99
  15 -15  -1   38.20    2.82
  15 -15  -1   45.90    2.96
  15  15   0    0.00    0.70
  15 -15   0    0.86    0.71
  15  15   1   22.44    2.46
  15 -15   1   26.61    2.61
  15  15   2   -0.77    0.79
  15 -15   2   -0.79    0.59
  15  15   3    0.65    0.95
  15 -15   3   -0.01    0.87
  15  15   4    1.33    1.14
  15 -15   4    0.51    0.99
  15  15   5    5.64    1.66
  15  16  -5    8.27    1.77
  15 -16  -5    5.24    1.52
  15  16  -4   13.95    2.13
  15 -16  -4   10.59    1.84
  15  16  -3    0.23    0.82
  15 -16  -3    0.79    0.94
  15  16  -2   39.78    2.92
  15 -16  -2   38.80    2.86
  15  16  -1    0.69    0.73
  15  16  -1    0.32    0.87
  15 -16  -1    0.01    0.74
  15  16   0   -1.34    0.59
  15 -16   0   -0.28    0.72
  15  16   1    3.76    1.27
  15 -16   1    1.89    1.04
  15  16   2    0.44    0.81
  15 -16   2   -0.48    0.71
  15  16   3    0.60    0.86
  15 -16   3   -0.62    0.83
  15  16   4   -1.11    0.78
  15 -16   4    0.09    0.86
  15  17  -5    5.20    1.61
  15 -17  -5    5.06    1.51
  15  17  -4    0.17    0.92
  15 -17  -4    0.67    0.96
  15  17  -3    0.32    0.94
  15 -17  -3    1.09    0.98
  15  17  -2    2.71    1.26
  15 -17  -2    1.00    1.01
  15  17  -1   24.49    2.94
  15 -17  -1   26.70    2.65
  15  17   0   -0.67    0.75
  15 -17   0    0.01    0.74
  15  17   1    8.56    1.67
  15 -17   1    8.35    1.61
  15  17   2   10.76    1.82
  15 -17   2    8.20    1.73
  15  17   3    1.12    0.99
  15 -17   3    3.63    1.35
  15  17   4    1.90    1.19
  15  18  -5    2.24    1.24
  15 -18  -5    1.84    1.15
  15  18  -4    1.49    1.10
  15 -18  -4    2.27    1.22
  15  18  -3   -0.57    0.86
  15 -18  -3   -0.70    0.81
  15  18  -2   11.29    1.92
  15 -18  -2   10.34    2.79
  15 -18  -1    6.45    1.42
  15  18   0   25.08    2.57
  15 -18   0   23.63    2.63
  15  18   1    0.56    0.83
  15 -18   1    1.42    0.91
  15  18   2   14.85    2.18
  15  18   3    1.93    1.15
  15 -18   3   -0.95    0.63
  15  19  -4    0.82    1.28
  15 -19  -4   -0.05    0.84
  15  19  -3   32.72    3.16
  15 -19  -3   29.46    3.35
  15  19  -2   -0.12    0.88
  15 -19  -2    1.01    1.01
  15 -19  -1   -0.14    0.68
  15 -19   0    4.66    1.31
  15  19   1   -0.03    0.87
  15 -19   1    0.57    0.86
  15  19   2    1.32    1.05
  15 -19   2   -0.07    0.83
  15  19   3    1.74    1.05
  15  20  -3    1.87    1.21
  15  20  -2    6.17    1.56
  15 -20  -2    7.36    1.55
  15 -20  -1    1.26    0.90
  15 -20   0   14.20    2.12
  15  20   1   11.10    1.90
  15 -20   1   11.11    2.00
  15  20   2   -0.92    0.81
  15 -20   2    0.87    0.96
  15  21  -3    0.41    1.09
  15  21  -2    3.30    1.42
  15 -21  -2    2.47    1.27
  15 -21  -1   20.95    2.58
  15 -21   0    0.54    0.95
  15 -21   1    8.25    1.76
  15 -22  -1    5.67    1.62
  16   0  -7   -0.21    0.75
  16   0  -6    4.30    1.28
  16   0  -5    0.17    0.79
  16   0  -4  103.60    5.12
  16   0  -3   -0.30    0.64
  16   0  -2   29.72    2.26
  16   0  -1   -0.77    0.50
  16   0   0   34.10    2.47
  16   0   1   -0.34    0.75
  16   0   2   45.73    3.09
  16   0   3   -0.12    0.71
  16   0   4   11.78    1.78
  16   0   4    9.14    1.51
  16   0   5    1.37    0.92
  16   0   5   -0.89    0.66
  16   0   6   15.57    2.29
  16   0   6   14.20    2.14
  16   1  -7    1.17    1.05
  16  -1  -7    0.05    0.82
  16   1  -6    6.54    1.45
  16  -1  -6    6.35    1.45
  16   1  -5   34.98    3.06
  16  -1  -5   40.44    2.92
  16   1  -4    1.88    0.89
  16  -1  -4    1.72    0.85
  16   1  -3   25.68    2.43
  16  -1  -3   23.03    2.27
  16   1  -2    8.42    1.39
  16  -1  -2    9.02    1.47
  16   1  -1    7.67    1.36
  16  -1  -1    6.83    1.29
  16   1   0    0.28    0.71
  16  -1   0    0.40    0.67
  16   1   1    6.69    1.33
  16  -1   1    8.08    1.38
  16   1   2    0.03    0.70
  16  -1   2    0.98    0.88
  16   1   3   -0.53    0.67
  16  -1   3   -0.61    0.59
  16   1   4    9.96    1.75
  16  -1   4   10.92    1.76
  16  -1   4    7.65    1.39
  16   1   5    3.88    1.32
  16   1   5    2.46    1.02
  16  -1   5    1.69    0.95
  16  -1   5    1.36    0.97
  16   1   6    7.15    1.62
  16   1   6    3.82    1.28
  16  -1   6    3.52    1.31
  16  -1   6    4.35    1.42
  16   2  -7    0.41    0.85
  16  -2  -7    0.63    1.09
  16   2  -6    4.18    1.22
  16  -2  -6    5.06    1.32
  16   2  -5    5.56    1.28
  16  -2  -5    8.38    1.62
  16   2  -4   22.59    2.36
  16  -2  -4   18.51    2.12
  16   2  -3    0.61    0.79
  16  -2  -3    0.07    0.63
  16   2  -2   49.37    3.08
  16  -2  -2   49.91    3.08
  16   2  -1   13.20    1.70
  16  -2  -1   14.35    1.76
  16   2   0   10.96    1.59
  16  -2   0   14.77    1.77
  16   2   1    5.06    1.21
  16  -2   1    4.78    1.14
  16   2   2    1.41    0.91
  16  -2   2    0.83    0.79
  16   2   3   13.23    1.89
  16  -2   3   17.93    2.06
  16   2   4   -0.29    0.69
  16  -2   4   -0.02    0.68
  16  -2   4    0.20    0.64
  16   2   5   -0.08    0.76
  16   2   5    1.39    0.91
  16  -2   5    0.47    0.77
  16  -2   5    1.39    0.94
  16   2   6    6.82    1.59
  16   2   6    4.82    1.44
  16  -2   6    7.28    1.64
  16   3  -7   -1.19    0.78
  16  -3  -7   -0.02    0.95
  16   3  -6   -0.58    0.79
  16  -3  -6   -0.50    0.69
  16   3  -5    9.01    1.63
  16  -3  -5   10.86    1.71
  16   3  -4   13.95    1.85
  16  -3  -4    9.76    1.59
  16   3  -3   75.95    4.16
  16  -3  -3   88.10    4.42
  16   3  -2    4.18    1.15
  16  -3  -2    1.78    0.90
  16   3  -1   -0.55    0.64
  16  -3  -1   -0.30    0.62
  16   3   0    6.83    1.36
  16  -3   0    9.11    1.50
  16   3   1   56.07    3.39
  16  -3   1   54.24    3.27
  16   3   2   15.28    2.02
  16  -3   2   14.10    1.82
  16   3   3    1.47    0.92
  16  -3   3   -0.35    0.51
  16  -3   3    0.28    0.77
  16   3   4    6.66    1.47
  16  -3   4    6.93    1.48
  16  -3   4    7.86    1.37
  16   3   5   28.00    2.94
  16  -3   5   25.15    2.67
  16  -3   5   26.15    2.75
  16   3   6    0.10    0.86
  16   3   6    1.19    0.99
  16  -3   6   -0.92    0.75
  16   4  -7    0.49    0.80
  16  -4  -7   -0.55    0.75
  16   4  -6   19.81    2.27
  16  -4  -6   23.62    2.65
  16   4  -5   18.93    2.20
  16  -4  -5   24.34    2.56
  16   4  -4   20.60    2.23
  16  -4  -4   18.71    2.17
  16   4  -3    4.97    1.18
  16  -4  -3    5.48    1.19
  16   4  -2   -0.08    0.69
  16  -4  -2   -0.48    0.56
  16   4  -1    0.19    0.64
  16  -4  -1    0.81    0.80
  16   4   0   27.58    2.54
  16  -4   0   30.10    2.28
  16   4   1   15.95    1.98
  16  -4   1   12.95    1.76
  16   4   2    1.47    0.83
  16  -4   2   -0.23    0.66
  16   4   3   25.94    2.65
  16  -4   3   27.19    2.12
  16  -4   3   24.72    2.49
  16   4   4    0.91    0.86
  16  -4   4   -0.28    0.79
  16  -4   4    0.91    0.74
  16   4   5    6.65    1.57
  16  -4   5    8.04    1.54
  16   4   6    4.81    1.38
  16   4   6    5.08    1.56
  16  -4   6    5.42    1.51
  16   5  -7    4.24    1.38
  16  -5  -7    4.82    1.33
  16   5  -6    0.52    0.92
  16  -5  -6   -0.26    0.87
  16   5  -5    7.73    1.47
  16  -5  -5    9.50    1.74
  16   5  -4    7.96    1.43
  16  -5  -4    8.99    1.59
  16   5  -3    0.56    0.72
  16  -5  -3   -0.28    0.68
  16   5  -2   -0.18    0.71
  16  -5  -2    0.44    0.69
  16   5  -1   12.30    1.68
  16  -5  -1   10.94    1.56
  16   5   0   39.20    2.73
  16  -5   0   39.06    2.70
  16   5   1    3.10    1.01
  16  -5   1    3.82    1.14
  16   5   2    2.41    0.96
  16  -5   2    3.68    1.11
  16   5   3    5.55    1.28
  16  -5   3    2.57    1.09
  16  -5   3    4.41    1.09
  16   5   4    7.85    1.59
  16  -5   4    7.96    1.51
  16  -5   4    8.83    1.61
  16   5   5    1.71    1.05
  16  -5   5    2.88    1.11
  16   5   6    5.01    1.58
 -16  -5  -6    2.77    1.14
  16  -5   6    1.86    1.21
  16   6  -7    0.24    0.87
  16  -6  -7    0.84    1.00
  16   6  -6    1.82    0.95
  16   6  -6    0.52    0.78
  16  -6  -6    1.29    0.93
  16   6  -5    1.41    0.87
  16   6  -5    0.62    0.89
  16  -6  -5    0.77    0.90
  16   6  -4   18.23    2.08
  16  -6  -4   17.52    2.14
  16   6  -3   13.09    1.79
  16  -6  -3   14.07    1.88
  16   6  -2   74.72    4.07
  16  -6  -2   78.87    4.18
  16   6  -1   -0.16    0.64
  16   6  -1    0.89    0.69
  16  -6  -1    0.19    0.71
  16   6   0    4.09    1.23
  16  -6   0    4.93    1.21
  16   6   1   -0.41    0.57
  16  -6   1   -0.26    0.72
  16   6   2   53.34    3.37
  16  -6   2   50.10    3.21
  16   6   3    2.33    1.05
  16  -6   3    0.57    0.81
  16  -6   3    0.46    0.65
  16   6   4    8.06    1.55
  16  -6   4    8.03    1.52
  16   6   5    0.10    0.82
  16  -6   5   -0.49    0.76
  16   6   6   27.66    3.08
  16  -6   6   27.58    3.03
  16   7  -7    3.11    1.24
  16  -7  -7    2.79    1.27
  16   7  -6    1.52    0.96
  16  -7  -6    0.88    0.85
  16   7  -5   11.17    1.67
  16   7  -5   12.99    1.90
  16  -7  -5   10.06    1.69
  16   7  -4   11.62    1.71
  16   7  -4   10.86    1.72
  16  -7  -4   13.60    1.90
  16   7  -3   12.42    1.68
  16   7  -3   12.86    1.74
  16  -7  -3   14.27    1.91
  16   7  -2    0.89    0.72
  16   7  -2    0.76    0.74
  16  -7  -2    1.68    0.91
  16   7  -1    2.56    0.86
  16   7  -1    1.95    0.88
  16  -7  -1    1.94    0.88
  16   7   0   14.12    1.87
  16  -7   0   19.74    2.15
  16   7   1    4.90    1.24
  16  -7   1    3.54    1.13
  16   7   2   -0.05    0.66
  16  -7   2    2.55    0.85
  16  -7   2    1.66    0.91
  16   7   3    1.56    0.99
  16  -7   3    1.93    1.01
  16  -7   3    1.57    0.86
  16   7   4    8.23    1.68
  16  -7   4    8.81    1.56
  16   7   5    1.23    1.02
  16  -7   5    1.20    1.05
  16   7   6    5.10    1.57
  16   8  -7    4.87    1.46
  16  -8  -7    2.41    1.29
  16   8  -6   13.68    2.05
  16  -8  -6   13.74    2.12
  16   8  -5    8.59    1.58
  16   8  -5    9.38    1.49
  16  -8  -5   11.48    1.83
  16   8  -4    4.91    1.21
  16   8  -4    4.37    1.10
  16  -8  -4    5.44    1.35
  16   8  -3    0.35    0.67
  16   8  -3    0.07    0.78
  16  -8  -3    0.76    0.74
  16   8  -2    0.36    0.72
  16   8  -2    1.88    0.98
  16  -8  -2    2.47    0.95
  16   8  -1   56.63    3.61
  16   8  -1   70.42    3.52
  16  -8  -1   67.00    3.70
  16   8   0    7.03    1.38
  16  -8   0    5.86    1.32
  16   8   1    3.48    1.10
  16  -8   1    2.98    0.94
  16   8   2    8.64    1.52
  16  -8   2    9.13    1.53
  16  -8   2   11.10    1.55
  16   8   3    3.36    1.06
  16  -8   3    1.72    0.85
  16   8   4    0.81    0.97
  16  -8   4    2.01    0.96
  16   8   5   -1.37    0.68
  16  -8   5    0.39    0.87
  16   8   6    2.30    1.20
  16   9  -7    2.52    1.27
  16  -9  -7    3.13    1.27
  16   9  -6    0.88    0.99
  16  -9  -6    0.27    0.95
  16   9  -5    6.12    1.39
  16  -9  -5    7.12    1.50
  16   9  -4    3.19    0.97
  16   9  -4    3.30    1.16
  16  -9  -4    2.08    1.13
  16   9  -3   97.22    4.94
  16   9  -3  102.38    4.92
  16  -9  -3   99.57    5.05
  16   9  -2    2.90    1.04
  16   9  -2    5.38    1.22
  16  -9  -2    4.56    1.15
  16   9  -1    9.80    1.42
  16   9  -1   10.62    1.61
  16  -9  -1    8.29    1.50
  16   9   0   -0.12    0.68
  16  -9   0   -0.44    0.62
  16   9   1   44.65    3.03
  16  -9   1   40.75    2.79
  16   9   2    1.23    0.95
  16  -9   2    0.94    0.67
  16  -9   2   -0.83    0.70
  16   9   3    6.88    1.53
  16  -9   3    6.72    1.41
  16   9   4    1.11    0.90
  16  -9   4    0.60    0.79
  16   9   5   11.46    2.03
  16  -9   5    6.70    1.55
  16 -10  -7    1.00    0.98
  16  10  -6    4.42    1.34
  16 -10  -6    3.34    1.21
  16  10  -5    3.47    1.20
  16 -10  -5    0.73    0.88
  16  10  -4   11.63    1.65
  16  10  -4   12.77    1.89
  16 -10  -4    9.53    1.72
  16  10  -3    7.94    1.42
  16  10  -3    6.07    1.32
  16 -10  -3    8.24    1.51
  16  10  -2    0.91    0.73
  16  10  -2    1.17    0.82
  16 -10  -2    0.31    0.78
  16  10  -1   18.18    1.99
  16  10  -1   17.94    2.13
  16 -10  -1   18.65    2.07
  16  10   0   13.12    1.84
  16 -10   0   12.91    1.79
  16  10   1    0.10    0.87
  16 -10   1   -0.23    0.76
  16 -10   1    0.59    0.68
  16  10   2    0.34    0.87
  16 -10   2    0.45    0.67
  16  10   3    2.34    1.14
  16 -10   3    5.08    1.28
  16  10   4   -0.42    0.83
  16 -10   4   -0.10    0.73
  16  10   5   -0.04    0.86
  16 -10   5    0.03    0.88
  16  11  -6    3.81    1.38
  16 -11  -6    3.40    1.38
  16  11  -5   19.70    2.45
  16 -11  -5   18.66    2.33
  16  11  -4    3.30    1.18
  16  11  -4    4.14    1.65
  16 -11  -4    4.30    1.23
  16  11  -3    7.05    1.44
  16  11  -3    5.66    1.26
  16 -11  -3    6.46    1.43
  16  11  -2   15.03    1.87
  16  11  -2   13.25    1.78
  16 -11  -2   14.83    1.94
  16  11  -1   -0.38    0.66
  16  11  -1    0.89    0.72
  16 -11  -1   -0.21    0.72
  16  11   0    8.64    1.58
  16 -11   0    8.82    1.55
  16  11   1   -0.01    0.72
  16 -11   1   -0.48    0.68
  16 -11   1    0.00    0.64
  16  11   2   15.94    2.11
  16 -11   2   12.30    1.74
  16  11   3    0.24    0.85
  16 -11   3    0.89    0.86
  16  11   4   -0.75    0.69
  16 -11   4    0.76    0.79
  16  11   5    5.88    1.61
  16 -11   5    5.14    1.54
  16  12  -6   -0.74    0.84
  16 -12  -6   -0.69    0.89
  16  12  -5    2.53    1.12
  16 -12  -5    2.89    1.21
  16  12  -4   52.81    3.59
  16 -12  -4   53.65    3.62
  16  12  -3   -0.03    0.77
  16  12  -3    1.08    0.82
  16 -12  -3    1.58    1.05
  16  12  -2   44.80    2.94
  16  12  -2   45.07    2.96
  16 -12  -2   37.90    2.84
  16  12  -1    1.02    0.80
  16  12  -1    1.97    0.99
  16 -12  -1    0.92    0.90
  16  12   0    4.45    1.23
  16 -12   0    3.96    1.16
  16  12   1   -0.25    0.68
  16 -12   1    0.17    0.66
  16  12   2    2.59    1.18
  16 -12   2    3.42    1.10
  16  12   3    1.95    1.11
  16 -12   3   -0.16    0.67
  16  12   4    9.31    1.83
  16 -12   4    9.82    1.73
  16  12   5    0.72    1.04
  16 -12   5   -0.60    1.48
  16  13  -6   -0.11    0.95
  16 -13  -6   -0.51    0.80
  16  13  -5    8.10    1.72
  16 -13  -5    9.40    1.84
  16  13  -4   -1.29    0.82
  16 -13  -4    0.21    0.89
  16  13  -3    5.67    1.39
  16 -13  -3    6.61    1.35
  16  13  -2    1.12    0.78
  16  13  -2    0.31    0.73
  16 -13  -2    0.83    0.87
  16  13  -1   -0.56    0.78
  16  13  -1    1.78    0.94
  16 -13  -1   -0.67    0.66
  16  13   0    4.36    1.20
  16 -13   0    1.55    0.98
  16  13   1    0.32    0.78
  16 -13   1    0.21    0.71
  16  13   2    1.78    1.03
  16 -13   2   -0.09    0.80
  16  13   3    0.71    0.99
  16 -13   3    1.87    0.95
  16  13   4    2.33    1.18
  16 -13   4    0.35    0.94
  16  13   5    0.30    0.84
  16  14  -6   12.35    2.26
  16 -14  -6   11.07    2.06
  16  14  -5    2.07    1.20
  16 -14  -5    1.41    1.06
  16  14  -4    7.75    1.69
  16 -14  -4    8.68    1.58
  16  14  -3    0.03    0.81
  16 -14  -3    1.19    0.96
  16  14  -2    3.72    1.13
  16  14  -2    2.90    1.17
  16 -14  -2    4.43    1.15
  16  14  -1    3.90    1.17
  16 -14  -1    6.57    1.32
  16  14   0    0.56    0.85
  16 -14   0   -0.47    0.73
  16  14   1    3.17    1.11
  16 -14   1    1.69    0.92
  16  14   2    3.49    1.28
  16 -14   2    3.23    1.07
  16  14   3    4.94    1.42
  16 -14   3    8.92    1.73
  16  14   4    4.19    1.39
  16 -14   4    5.15    1.42
  16  15  -5    7.62    1.80
  16 -15  -5    8.73    1.87
  16  15  -4    2.64    1.28
  16 -15  -4    1.43    1.09
  16  15  -3   23.48    2.62
  16 -15  -3   28.19    2.77
  16  15  -2    0.22    0.81
  16 -15  -2    1.52    0.97
  16  15  -1    1.73    0.96
  16 -15  -1    1.12    0.90
  16  15   0    0.62    0.79
  16 -15   0   -0.26    0.70
  16  15   1    2.17    1.10
  16 -15   1    2.06    0.96
  16  15   2    0.86    0.89
  16 -15   2    0.60    0.92
  16  15   3    0.52    0.89
  16 -15   3    0.35    0.89
  16  15   4    0.66    1.02
  16 -15   4   -0.24    0.95
  16  16  -5    0.74    0.99
  16 -16  -5    1.10    1.13
  16  16  -4    2.31    1.29
  16 -16  -4    3.84    1.44
  16  16  -3   -0.14    0.97
  16 -16  -3    0.46    0.92
  16  16  -2   -0.27    0.88
  16 -16  -2    1.18    0.96
  16  16  -1    0.00    0.72
  16  16   0    0.87    0.92
  16 -16   0   -0.24    0.61
  16  16   1   -0.40    0.68
  16 -16   1   -0.51    0.75
  16  16   2    3.59    1.33
  16 -16   2    2.90    1.20
  16  16   3    0.61    1.11
  16 -16   3    2.58    1.20
  16  16   4    3.15    1.34
  16  17  -4    4.17    1.47
  16 -17  -4    7.80    1.76
  16  17  -3    7.19    1.59
  16 -17  -3    7.09    1.62
  16  17  -2   18.09    2.35
  16 -17  -2   18.83    2.29
  16  17   0   10.19    1.73
  16 -17   0    9.73    1.74
  16  17   1    3.63    1.23
  16 -17   1    2.97    1.19
  16  17   2    5.94    1.57
  16 -17   2    9.56    1.85
  16  17   3    0.14    1.00
  16 -17   3    0.44    1.03
  16  18  -4   13.67    2.22
  16 -18  -4   17.17    2.35
  16  18  -3    0.07    0.93
  16 -18  -3    3.01    1.24
  16  18  -2   36.29    3.36
  16  18   0    6.20    1.48
  16 -18   0    5.98    1.44
  16  18   1    8.66    1.75
  16 -18   1    5.35    1.44
  16  18   2    7.96    1.67
  16 -18   2   13.48    2.15
  16  18   3    1.13    1.08
  16  19  -3    1.51    1.10
  16  19  -2    1.24    1.07
  16 -19   0    0.78    0.88
  16  19   1    6.32    1.60
  16 -19   1    3.42    1.34
  16  19   2    1.52    1.05
  16 -19   2    2.15    1.08
  16  20  -3    3.64    1.44
  16  20  -2    4.31    1.39
  16 -20  -1   24.35    3.34
  16 -20   0   -0.32    0.86
  16  20   1    2.98    1.14
  16 -20   1    3.31    1.33
  16 -21  -1    1.83    1.23
  16 -21   0    0.33    0.86
  17   0  -7   -1.04    0.65
  17   0  -6   21.05    2.55
  17   0  -5    0.25    0.83
  17   0  -4    0.00    0.67
  17   0  -3   -0.10    0.62
  17   0  -2   25.65    2.46
  17   0  -1   -0.20    0.67
  17   0   0    0.41    0.72
  17   0   1   -0.45    0.63
  17   0   2   28.56    2.81
  17   0   3    0.68    0.80
  17   0   4   10.88    1.86
  17   0   5   -0.72    0.74
  17   0   6    0.33    1.07
  17   0   6    0.13    0.91
  17   1  -7    4.93    1.46
  17  -1  -7    1.14    1.15
  17   1  -6    0.53    0.91
  17  -1  -6    1.28    0.95
  17   1  -5   14.93    2.07
  17  -1  -5   17.10    2.18
  17   1  -4    3.44    1.11
  17  -1  -4    2.28    1.02
  17   1  -3    1.83    0.84
  17  -1  -3    0.98    0.77
  17   1  -2   -0.52    0.54
  17  -1  -2    0.58    0.69
  17   1  -1   -0.25    0.70
  17  -1  -1    1.36    0.88
  17   1   0    9.00    1.52
  17  -1   0    9.27    1.55
  17   1   1    5.04    1.25
  17  -1   1    4.51    1.25
  17   1   2    4.56    1.23
  17  -1   2    3.11    1.13
  17   1   3   -0.13    0.79
  17  -1   3    2.43    1.04
  17   1   4    2.54    1.11
  17  -1   4    0.48    0.82
  17   1   5   29.43    3.09
  17  -1   5   28.82    3.03
  17   1   6    1.21    1.03
  17  -1   6   -0.65    0.95
  17   2  -7    0.73    1.02
  17  -2  -7    1.21    1.06
  17   2  -6   19.87    2.40
  17  -2  -6   23.42    2.68
  17   2  -5    8.34    1.59
  17  -2  -5    6.93    1.51
  17   2  -4    0.77    0.82
  17  -2  -4    1.27    0.84
  17   2  -3    0.76    0.83
  17  -2  -3    0.42    0.67
  17   2  -2    1.84    0.94
  17  -2  -2    1.92    0.83
  17   2  -1    2.88    0.98
  17  -2  -1    2.81    1.00
  17   2   0    5.89    1.24
  17  -2   0    7.35    1.37
  17   2   1    0.31    0.82
  17  -2   1    1.08    0.80
  17   2   2    5.04    1.29
  17  -2   2    6.50    1.37
  17   2   3    1.39    0.92
  17  -2   3    0.53    0.88
  17   2   4    4.87    1.42
  17  -2   4    2.77    1.16
  17   2   5    6.42    1.54
  17  -2   5    7.31    1.60
  17  -2   5    5.06    1.37
  17   2   6   19.52    2.61
  17  -2   6   20.93    2.63
  17   3  -7   27.13    2.86
  17  -3  -7   29.69    3.26
  17   3  -6    0.37    0.92
  17  -3  -6    1.09    0.96
  17   3  -5    4.83    1.25
  17  -3  -5    3.45    1.20
  17   3  -4    8.84    1.61
  17  -3  -4   10.77    1.73
  17   3  -3    0.66    0.77
  17  -3  -3   -0.84    0.68
  17   3  -2    1.36    0.86
  17  -3  -2    0.53    0.84
  17   3  -1    6.79    1.32
  17  -3  -1    6.41    1.31
  17   3   0    3.10    1.06
  17  -3   0    0.59    0.85
  17   3   1   -0.59    0.68
  17  -3   1    0.37    0.76
  17   3   2    0.13    0.75
  17  -3   2    0.94    0.79
  17   3   3   31.12    2.99
  17  -3   3   27.72    2.73
  17   3   4    3.99    1.36
  17  -3   4    2.69    1.17
  17   3   5    1.53    1.12
  17  -3   5    1.96    1.08
  17  -3   5    0.34    0.86
  17   3   6    0.48    0.97
  17  -3   6   -0.50    0.82
  17   4  -7    1.36    1.16
  17  -4  -7   -0.45    0.99
  17   4  -6    8.37    1.68
  17  -4  -6    7.24    1.62
  17   4  -5    6.69    1.47
  17  -4  -5    6.17    1.41
  17   4  -4    2.92    1.03
  17  -4  -4    1.21    0.91
  17   4  -3    0.74    0.91
  17  -4  -3    0.72    0.74
  17   4  -2   24.11    2.46
  17  -4  -2   25.61    2.47
  17   4  -1   21.53    2.32
  17  -4  -1   17.05    2.12
  17   4   0    0.59    0.70
  17  -4   0    0.71    0.77
  17   4   1    1.02    0.88
  17  -4   1    0.42    0.74
  17   4   2   10.32    1.77
  17  -4   2   13.08    1.88
  17   4   3    1.23    1.00
  17  -4   3    1.20    0.93
  17   4   4   32.33    3.25
  17  -4   4   36.88    3.24
  17   4   5    3.16    1.27
  17  -4   5    3.84    1.31
  17   4   6   12.80    2.15
  17   5  -7    2.64    1.24
  17  -5  -7    2.75    1.29
  17   5  -6    3.40    1.24
  17  -5  -6    3.75    1.29
  17   5  -5   12.71    1.90
  17  -5  -5   14.62    1.96
  17   5  -4   11.87    1.73
  17  -5  -4   15.09    1.98
  17   5  -3    0.39    0.85
  17  -5  -3    0.07    0.69
  17   5  -2    1.69    0.97
  17  -5  -2    1.64    0.98
  17   5  -1    3.61    1.06
  17  -5  -1    2.69    1.10
  17   5   0   16.68    2.03
  17  -5   0   14.97    1.87
  17   5   1    3.99    1.15
  17  -5   1    3.98    1.12
  17   5   2    2.00    1.04
  17  -5   2    3.51    1.20
  17   5   3    0.32    0.81
  17  -5   3   -0.51    0.62
  17   5   4    7.29    1.63
  17  -5   4    6.66    1.46
  17  -5   4    8.15    1.60
  17   5   5   20.64    2.69
  17  -5   5   24.44    2.65
  17   6  -7   -0.81    0.84
  17  -6  -7   -0.36    0.87
  17   6  -6   17.77    2.27
  17   6  -6   13.10    2.04
  17  -6  -6   16.53    2.32
  17   6  -5    0.88    0.94
  17   6  -5    0.01    0.84
  17  -6  -5   -0.14    0.69
  17   6  -4   16.18    2.08
  17  -6  -4   13.71    1.93
  17   6  -3    4.18    1.20
  17  -6  -3    3.64    1.13
  17   6  -2   47.80    3.00
  17  -6  -2   35.85    2.81
  17   6  -1    1.92    0.93
  17   6  -1    2.18    0.83
  17  -6  -1    3.37    1.03
  17   6   0    2.07    1.02
  17  -6   0   -0.19    0.65
  17   6   1   -0.15    0.59
  17  -6   1    0.52    0.80
  17   6   2   31.25    3.01
  17  -6   2   36.75    2.72
  17   6   3    1.96    1.04
  17  -6   3    0.39    0.85
  17   6   4    3.96    1.41
  17  -6   4    7.17    1.50
  17   6   5   -0.68    0.78
  17  -6   5    0.07    0.82
  17   7  -7    8.73    1.82
  17  -7  -7    8.05    1.83
  17   7  -6    1.47    0.97
  17  -7  -6    0.28    0.92
  17   7  -5   -0.79    0.76
  17   7  -5    0.34    0.73
  17  -7  -5    0.66    0.93
  17   7  -4   12.83    1.89
  17   7  -4   14.43    1.96
  17  -7  -4   13.09    1.86
  17   7  -3   13.43    1.82
  17   7  -3   13.22    1.79
  17  -7  -3   13.61    1.92
  17   7  -2    1.64    0.92
  17   7  -2    1.29    0.96
  17  -7  -2    0.97    0.86
  17   7  -1    4.07    1.02
  17   7  -1    4.90    1.17
  17  -7  -1    5.36    1.31
  17   7   0    9.41    1.61
  17  -7   0    9.42    1.58
  17   7   1   17.14    2.11
  17  -7   1   14.99    1.97
  17   7   2   -0.33    0.66
  17  -7   2    0.00    0.75
  17   7   3    8.77    1.66
  17  -7   3    7.37    1.47
  17   7   4    3.95    1.37
  17  -7   4    1.78    0.96
  17   7   5   15.35    2.31
  17  -7   5   16.31    2.29
  17   8  -6    4.49    1.35
  17  -8  -6    2.63    1.12
  17   8  -5    3.24    1.19
  17   8  -5    3.40    1.20
  17  -8  -5    4.13    1.26
  17   8  -4   -0.36    0.73
  17   8  -4    0.43    0.80
  17  -8  -4    0.59    0.85
  17   8  -3    7.44    1.46
  17   8  -3    6.50    1.39
  17  -8  -3    5.61    1.31
  17   8  -2    1.32    0.92
  17   8  -2    1.66    0.86
  17  -8  -2    1.42    0.87
  17   8  -1   15.14    1.78
  17   8  -1   15.63    1.99
  17  -8  -1   17.49    2.07
  17   8   0    0.22    0.75
  17  -8   0   -0.97    0.79
  17   8   1   16.73    2.21
  17  -8   1   15.51    1.96
  17   8   2    2.64    1.05
  17  -8   2    3.37    1.17
  17   8   3   12.93    2.04
  17  -8   3   10.25    1.71
  17   8   4    8.74    1.77
  17  -8   4   10.72    1.78
  17   8   5    2.97    1.33
  17  -8   5    3.10    1.30
  17   9  -6    1.54    1.16
  17  -9  -6    1.04    0.99
  17   9  -5   34.76    4.15
  17   9  -5   45.61    3.34
  17  -9  -5   44.47    3.36
  17   9  -4    4.33    1.32
  17   9  -4    3.85    1.13
  17  -9  -4    4.87    1.32
  17   9  -3    8.17    1.45
  17   9  -3    8.46    1.55
  17  -9  -3    8.25    1.62
  17   9  -2   -0.21    0.70
  17   9  -2   -0.12    0.63
  17  -9  -2   -0.44    0.75
  17   9  -1   11.19    1.71
  17   9  -1   11.65    1.63
  17  -9  -1   13.86    1.82
  17   9   0    9.90    1.66
  17  -9   0   10.43    1.61
  17   9   1    8.85    1.61
  17  -9   1    9.07    1.55
  17   9   2    0.68    0.82
  17  -9   2    0.54    0.88
  17   9   3   32.80    3.18
  17  -9   3   30.73    2.85
  17   9   4   -0.27    0.78
  17  -9   4   -0.34    0.77
  17   9   5    2.96    1.33
  17  -9   5    4.72    1.44
  17  10  -6    4.78    1.43
  17 -10  -6    2.42    1.12
  17  10  -5    1.81    1.04
  17 -10  -5    3.60    1.38
  17  10  -4   16.60    2.05
  17  10  -4   15.87    2.12
  17 -10  -4   15.30    2.10
  17  10  -3    0.32    0.76
  17  10  -3    0.03    0.77
  17 -10  -3   -0.81    0.75
  17  10  -2    0.69    0.78
  17  10  -2    1.57    0.96
  17 -10  -2    0.21    0.75
  17  10  -1    5.98    1.32
  17 -10  -1    4.94    1.28
  17  10   0    1.03    0.82
  17 -10   0   -0.39    0.77
  17  10   1    2.50    1.13
  17 -10   1    1.31    0.89
  17  10   2   -0.26    0.73
  17  10   3    6.31    1.47
  17 -10   3    5.18    1.34
  17  10   4   10.48    1.93
  17 -10   4   11.49    1.91
  17  10   5    0.94    1.13
  17 -10   5    0.35    0.97
  17  11  -6    1.22    1.19
  17 -11  -6    0.11    0.88
  17  11  -5    2.82    1.17
  17 -11  -5    5.07    1.47
  17  11  -4    9.99    1.73
  17  11  -4   10.25    1.88
  17 -11  -4    9.57    1.74
  17  11  -3    1.20    0.96
  17  11  -3    1.30    0.92
  17 -11  -3   -0.52    0.68
  17  11  -2    0.01    0.81
  17  11  -2   -0.84    0.57
  17 -11  -2   -0.18    0.77
  17  11  -1    2.48    1.10
  17 -11  -1    2.90    1.10
  17  11   0   13.85    1.99
  17 -11   0    9.51    1.69
  17  11   1    0.24    0.78
  17 -11   1    0.94    0.84
  17  11   2    0.45    1.00
  17  11   3    3.93    1.24
  17 -11   3    5.43    1.28
  17  11   4    2.61    1.13
  17 -11   4    1.59    1.08
  17  11   5   13.59    2.23
  17  12  -6   15.24    2.36
  17 -12  -6   17.73    2.45
  17  12  -5   -0.37    0.87
  17 -12  -5    1.23    1.08
  17  12  -4   11.17    1.81
  17 -12  -4    7.59    1.60
  17  12  -3    3.52    1.21
  17  12  -3    4.95    1.25
  17 -12  -3    4.49    1.28
  17  12  -2   16.69    2.05
  17  12  -2   16.80    2.10
  17 -12  -2   19.73    2.28
  17  12  -1    1.14    0.83
  17 -12  -1    0.25    0.80
  17  12   0   -0.13    0.76
  17 -12   0    0.65    0.88
  17  12   1    0.10    0.88
  17  12   2   34.28    3.34
  17 -12   2   38.58    2.85
  17  12   3    1.99    1.12
  17 -12   3    0.94    0.83
  17  12   4    3.58    1.38
  17 -12   4    4.79    1.41
  17  13  -5    3.15    1.30
  17 -13  -5    1.81    1.09
  17  13  -4    1.66    1.05
  17 -13  -4    0.87    0.99
  17  13  -3   -0.19    0.89
  17 -13  -3    1.19    0.91
  17  13  -2    4.21    1.24
  17  13  -2    3.74    1.15
  17 -13  -2    3.48    1.11
  17  13  -1   -0.51    0.80
  17 -13  -1    0.74    0.90
  17  13   0    9.92    1.75
  17 -13   0    9.40    1.62
  17  13   1    4.17    1.39
  17  13   2    3.84    1.30
  17 -13   2    2.44    1.08
  17  13   3    5.90    1.58
  17 -13   3    4.38    1.29
  17  13   4    1.85    1.18
  17 -13   4    1.35    1.12
  17  14  -5    5.76    1.68
  17 -14  -5    4.41    1.54
  17  14  -4    0.81    0.96
  17 -14  -4    0.28    1.01
  17  14  -3   12.36    1.94
  17 -14  -3   11.58    1.88
  17  14  -2    0.23    0.81
  17  14  -2   -0.07    0.81
  17 -14  -2   -0.50    0.80
  17  14  -1    6.45    1.44
  17 -14  -1    5.29    1.29
  17  14   0    0.12    0.82
  17  14   1    1.83    1.10
  17  14   2   -1.58    0.82
  17 -14   2   -0.06    0.80
  17  14   3    0.49    0.92
  17 -14   3    0.79    0.84
  17  14   4   17.43    2.53
  17 -14   4   16.11    2.71
  17  15  -5   18.65    2.53
  17 -15  -5   16.73    2.40
  17  15  -4    2.94    1.24
  17 -15  -4    2.23    1.24
  17  15  -3    0.97    1.01
  17 -15  -3    0.95    1.03
  17  15  -2    1.59    1.06
  17 -15  -2    2.18    1.06
  17  15  -1   10.59    1.72
  17 -15  -1   11.86    1.87
  17  15   0    3.31    1.22
  17  15   1    7.57    1.62
  17  15   2    4.06    1.35
  17 -15   2    1.55    1.05
  17  15   3    5.96    1.54
  17 -15   3    7.07    1.55
  17  16  -4    3.18    1.36
  17 -16  -4    2.28    1.26
  17  16  -3    1.48    1.02
  17 -16  -3    0.50    0.99
  17  16  -2    5.33    1.45
  17 -16  -2    6.52    1.51
  17  16  -1    2.25    1.07
  17  16   0   13.21    1.97
  17  16   1   -1.03    0.75
  17 -16   1   -0.23    0.75
  17  16   2    1.20    1.11
  17 -16   2    0.12    0.85
  17  16   3   -0.59    0.77
  17 -16   3   -0.69    0.75
  17  17  -4   16.59    2.45
  17 -17  -4   18.93    2.57
  17  17  -3    0.53    1.02
  17 -17  -3    0.45    0.94
  17  17  -2    0.51    0.88
  17  17   0   24.28    2.73
  17  17   1    1.09    1.02
  17 -17   1   -1.17    0.75
  17  17   2    0.30    1.01
  17 -17   2    0.48    0.81
  17  18  -3    1.31    1.14
  17 -18  -3    1.25    1.03
  17  18  -2    9.12    1.77
  17  18   0    1.06    1.01
  17  18   1    0.75    1.05
  17 -18   1    1.09    0.93
  17  18   2    6.73    1.60
  17 -18   2    7.34    1.76
  17  19   1    0.28    1.06
  17 -19   1    0.58    0.97
  18   0  -7   -0.74    0.93
  18   0  -6    0.51    0.94
  18   0  -5    0.70    0.88
  18   0  -4   13.42    1.96
  18   0  -3   -0.44    0.63
  18   0  -2    0.76    0.87
  18   0  -1   -0.06    0.75
  18   0   0    8.25    1.53
  18   0   1    0.19    0.76
  18   0   2    3.22    1.26
  18   0   3    0.55    0.96
  18   0   4    9.11    1.71
  18   0   5   -0.42    0.84
  18   1  -7    6.49    1.63
  18   1  -6    0.22    0.97
  18  -1  -6    1.18    1.00
  18   1  -5    1.97    0.98
  18  -1  -5   -0.43    0.80
  18   1  -4    1.12    1.00
  18  -1  -4   -0.58    0.75
  18   1  -3   13.25    1.86
  18  -1  -3   13.50    1.93
  18   1  -2    0.04    0.76
  18  -1  -2   -0.21    0.68
  18   1  -1    8.97    1.59
  18  -1  -1    5.24    1.24
  18   1   0    3.90    1.22
  18  -1   0    3.77    1.19
  18   1   1   56.56    3.64
  18  -1   1   56.67    3.64
  18   1   2    1.20    0.93
  18  -1   2   -0.51    0.82
  18   1   3   13.09    2.00
  18  -1   3   10.93    1.90
  18   1   4   -1.07    0.85
  18  -1   4   -0.23    0.88
  18   1   5    2.86    1.18
  18  -1   5    2.98    1.30
  18   2  -7    3.01    1.41
  18  -2  -7    5.86    1.54
  18   2  -6    1.95    1.19
  18  -2  -6    2.30    1.22
  18   2  -5   -0.75    0.78
  18  -2  -5   -0.25    0.72
  18   2  -4    8.67    1.61
  18  -2  -4    6.88    1.50
  18   2  -3    9.69    1.71
  18  -2  -3    8.39    1.59
  18   2  -2    6.36    1.37
  18  -2  -2    7.43    1.44
  18   2  -1   12.09    1.80
  18  -2  -1    9.84    1.64
  18   2   0    8.16    1.55
  18  -2   0    6.15    1.35
  18   2   1    5.96    1.40
  18  -2   1    6.72    1.43
  18   2   2   46.34    3.26
  18  -2   2   43.79    3.21
  18   2   3   -0.68    0.60
  18  -2   3   -0.02    0.75
  18   2   4    3.72    1.39
  18  -2   4    2.03    1.21
  18   2   5    1.33    1.12
  18  -2   5    0.28    0.91
  18   3  -6   -0.32    0.71
  18  -3  -6   -0.46    0.86
  18   3  -5    8.29    1.68
  18  -3  -5    8.36    1.68
  18   3  -4    4.11    1.21
  18  -3  -4    2.93    1.12
  18   3  -3    1.55    0.97
  18  -3  -3    4.98    1.23
  18   3  -2    1.43    0.88
  18  -3  -2    0.72    0.80
  18   3  -1   12.53    1.78
  18  -3  -1   10.62    1.70
  18   3   0    1.27    0.87
  18  -3   0   -1.01    0.62
  18   3   1    9.37    1.65
  18  -3   1    8.36    1.53
  18   3   2    3.93    1.33
  18  -3   2    3.02    1.16
  18   3   3    5.05    1.37
  18  -3   3    4.31    1.39
  18   3   4   -0.68    0.75
  18  -3   4    1.00    0.99
  18   3   5   -0.75    0.96
  18   4  -6   14.64    2.09
  18  -4  -6   10.29    1.91
  18   4  -5    0.29    0.83
  18  -4  -5   -0.44    0.79
  18   4  -4    4.63    1.29
  18  -4  -4    2.87    1.07
  18   4  -3   -0.64    0.74
  18  -4  -3    0.16    0.75
  18   4  -2    0.18    0.90
  18  -4  -2    2.13    0.96
  18   4  -1    0.35    0.84
  18  -4  -1    0.65    0.84
  18   4   0    4.81    1.27
  18  -4   0    5.75    1.29
  18   4   1    2.65    1.13
  18  -4   1    3.25    1.09
  18   4   2   30.14    2.98
  18  -4   2   33.72    3.01
  18   4   3    0.09    0.95
  18  -4   3   -1.33    0.59
  18   4   4   25.66    2.87
  18  -4   4   20.42    2.50
  18   4   5    2.75    1.29
  18   5  -6    0.36    0.89
  18   5  -6    1.24    0.97
  18  -5  -6    2.22    1.12
  18   5  -5    2.15    1.07
  18  -5  -5    3.27    1.24
  18   5  -4    8.60    1.56
  18  -5  -4   10.08    1.68
  18   5  -3    2.16    0.96
  18  -5  -3    0.14    0.74
  18   5  -2    0.52    0.78
  18  -5  -2    0.44    0.75
  18   5  -1    1.14    0.94
  18  -5  -1    0.50    0.91
  18   5   0    3.13    1.10
  18  -5   0    2.04    0.97
  18   5   1   14.31    2.10
  18  -5   1   17.85    2.20
  18   5   2    6.25    1.50
  18  -5   2    8.33    1.67
  18   5   3    3.76    1.34
  18  -5   3    4.09    1.25
  18   5   4    4.54    1.46
  18  -5   4    2.28    1.33
  18   5   5   10.38    2.10
  18   6  -6    9.54    1.75
  18   6  -6    8.31    1.73
  18  -6  -6    7.83    1.78
  18   6  -5    0.32    0.91
  18   6  -5    0.85    0.83
  18  -6  -5    0.64    0.93
  18   6  -4    0.19    0.80
  18  -6  -4    2.00    0.98
  18   6  -3    0.46    0.75
  18  -6  -3   -0.41    0.73
  18   6  -2    7.40    1.42
  18   6  -2    9.68    1.62
  18  -6  -2   11.93    1.80
  18   6  -1    4.22    1.19
  18  -6  -1    3.27    1.18
  18   6   0   21.07    2.41
  18  -6   0   22.29    2.43
  18   6   1   11.79    1.88
  18  -6   1   10.72    1.78
  18   6   2   -0.97    0.55
  18  -6   2    0.43    0.90
  18   6   3    1.05    0.98
  18  -6   3   -0.03    0.83
  18   6   4    3.18    1.30
  18   6   5    2.19    1.27
  18   7  -6    0.25    0.85
  18  -7  -6   -0.67    0.74
  18   7  -5    2.50    1.08
  18   7  -5    3.45    1.28
  18  -7  -5    3.34    1.22
  18   7  -4   10.47    1.73
  18   7  -4   11.59    1.74
  18  -7  -4   10.63    1.87
  18   7  -3    2.14    0.97
  18   7  -3    0.79    0.84
  18  -7  -3    3.04    1.17
  18   7  -2    7.58    1.49
  18   7  -2    9.19    1.50
  18  -7  -2    6.51    1.47
  18   7  -1    0.06    0.74
  18  -7  -1    0.58    0.83
  18   7   0   29.49    2.91
  18  -7   0   29.78    2.79
  18   7   1    5.20    1.38
  18  -7   1    5.51    1.30
  18   7   2    1.43    0.97
  18  -7   2    0.67    0.94
  18   7   3   50.54    3.57
  18  -7   3   40.17    3.15
  18   7   4    6.86    1.66
  18   7   5    1.42    1.15
  18   8  -6   10.57    1.93
  18  -8  -6    7.89    1.84
  18   8  -5    1.24    0.97
  18   8  -5    0.85    0.89
  18  -8  -5    0.57    1.03
  18   8  -4    0.02    0.79
  18   8  -4   -0.05    0.76
  18  -8  -4   -1.04    0.70
  18   8  -3    5.75    1.32
  18   8  -3    4.39    1.16
  18  -8  -3    4.68    1.36
  18   8  -2    4.89    1.24
  18   8  -2    7.30    1.43
  18  -8  -2    6.07    1.43
  18   8  -1    2.02    1.09
  18  -8  -1    1.03    0.87
  18   8   0    0.46    0.85
  18  -8   0   -0.33    0.67
  18   8   1    2.24    1.04
  18  -8   1    1.98    1.07
  18   8   2   37.98    3.34
  18  -8   2   29.23    2.83
  18   8   3    1.96    1.12
  18   8   4    4.20    1.36
  18   8   5    6.84    1.75
  18   9  -6   -0.36    0.92
  18  -9  -6    2.19    1.23
  18   9  -5    5.67    1.92
  18   9  -5    4.22    1.28
  18  -9  -5    5.58    1.46
  18   9  -4    1.23    0.95
  18   9  -4    1.54    0.95
  18  -9  -4    2.61    1.14
  18   9  -3    2.89    1.18
  18   9  -3    1.10    0.86
  18  -9  -3    4.00    1.23
  18   9  -2    2.32    1.02
  18   9  -2    1.39    0.91
  18  -9  -2    2.20    1.06
  18   9  -1   27.54    2.77
  18  -9  -1   21.24    2.41
  18   9   0    0.73    0.92
  18  -9   0    0.30    0.86
  18   9   1    8.33    1.62
  18  -9   1    7.74    1.63
  18   9   2    0.91    0.89
  18  -9   2    0.68    0.96
  18   9   3   -0.27    0.73
  18   9   4    0.51    1.11
  18  10  -6    4.75    1.46
  18 -10  -6    4.29    1.45
  18  10  -5    0.76    1.02
  18 -10  -5    1.93    1.14
  18  10  -4   -0.83    0.59
  18  10  -4   -0.40    0.71
  18 -10  -4    0.36    0.94
  18  10  -3   22.71    2.44
  18  10  -3   19.58    2.33
  18 -10  -3   18.58    2.36
  18  10  -2   12.14    1.81
  18  10  -2    8.88    1.59
  18 -10  -2   11.97    1.84
  18  10  -1    2.44    1.12
  18 -10  -1    3.39    1.18
  18  10   0    7.13    1.63
  18 -10   0    9.55    1.65
  18  10   1   13.62    2.17
  18 -10   1   15.36    2.06
  18  10   2   14.77    2.17
  18  10   3    1.85    1.16
  18  10   4   14.57    2.31
  18  11  -5   -1.45    0.62
  18 -11  -5    1.68    1.07
  18  11  -4    5.02    1.55
  18  11  -4    1.10    0.92
  18 -11  -4    4.70    1.38
  18  11  -3    7.78    1.53
  18  11  -3    7.79    1.54
  18 -11  -3    5.35    1.43
  18  11  -2    0.51    0.88
  18  11  -2    1.87    1.11
  18 -11  -2    2.27    1.07
  18  11  -1    5.03    1.41
  18 -11  -1    5.05    1.26
  18  11   0    0.14    0.71
  18 -11   0   -0.49    0.83
  18  11   1   11.65    1.96
  18 -11   1   16.02    2.30
  18  11   2   -1.08    0.67
  18  11   3   19.59    2.60
  18  11   4    0.31    1.00
  18 -11   4    1.02    0.99
  18  12  -5    0.11    0.92
  18 -12  -5   -0.12    0.90
  18  12  -4    1.65    1.04
  18 -12  -4    0.42    1.02
  18  12  -3    1.49    0.99
  18  12  -3    1.41    0.96
  18 -12  -3   -0.25    0.84
  18  12  -2    0.14    0.77
  18  12  -2   -0.67    0.69
  18 -12  -2    1.68    0.92
  18  12  -1   -0.11    0.77
  18 -12  -1    1.16    0.92
  18  12   0    5.91    1.39
  18 -12   0    8.88    1.65
  18  12   1    0.83    0.96
  18  12   2    7.06    1.71
  18  12   3    0.33    0.94
  18  12   4    3.68    1.35
  18 -12   4    0.76    0.99
  18  13  -5    3.31    1.37
  18 -13  -5    1.86    1.31
  18  13  -4    3.78    1.30
  18 -13  -4    2.44    1.27
  18  13  -3    4.38    1.78
  18  13  -3    6.54    1.58
  18 -13  -3    6.47    1.50
  18  13  -2    1.51    1.01
  18  13  -2   -0.16    0.83
  18 -13  -2    0.40    0.89
  18  13  -1    2.82    1.15
  18 -13  -1    3.04    1.23
  18  13   0    0.06    0.81
  18 -13   0    3.57    1.83
  18  13   1   15.16    2.25
  18  13   2    3.01    1.38
  18  13   3   16.81    2.44
  18  14  -4    1.21    1.04
  18 -14  -4    1.61    1.12
  18  14  -3    6.56    1.59
  18 -14  -3    8.73    1.75
  18  14  -2    0.76    0.92
  18  14  -2   -0.39    0.76
  18 -14  -2    1.25    1.03
  18  14  -1    1.86    1.09
  18 -14  -1    0.83    1.03
  18  14   0    1.07    0.89
  18  14   1    6.70    1.57
  18  14   2   17.98    2.47
  18  14   3    2.47    1.22
  18 -14   3   -0.39    1.07
  18  15  -4    5.53    1.54
  18 -15  -4    6.68    1.74
  18  15  -3    0.92    1.06
  18 -15  -3    2.25    1.08
  18  15  -2   -0.36    1.10
  18 -15  -2   -0.65    0.72
  18  15  -1   16.06    2.18
  18  15   0   -1.37    0.80
  18  15   1    4.05    1.44
  18  15   2    0.50    1.06
  18  15   3   -0.32    0.84
  18 -16  -4   -0.60    0.94
  18  16  -3   12.71    2.16
  18 -16  -3   15.12    2.28
  18 -16  -2    1.93    1.15
  18  16  -1    2.71    1.14
  18  16   0    3.15    1.28
  18  16   1    9.88    1.96
  18  16   2   18.15    2.52
  18  17  -3    1.25    1.19
  18 -17  -3   -0.07    1.02
  18  17   0   -1.25    0.83
  18  17   1   16.03    2.36
  18  18   0    4.76    1.43
  19   0  -6    0.25    1.07
  19   0  -5   -0.22    0.78
  19   0  -4    0.83    0.86
  19   0  -3   -0.05    0.80
  19   0  -2   -0.53    0.72
  19   0  -1    0.66    0.76
  19   0   0   35.32    3.14
  19   0   1    0.72    0.95
  19   0   2    0.49    0.98
  19   0   3   -0.58    0.77
  19   0   4    2.40    1.29
  19   0   5   -0.36    0.96
  19   1  -6    1.44    1.12
  19  -1  -6    0.21    0.93
  19   1  -5    7.80    1.75
  19  -1  -5    9.07    1.74
  19   1  -4    7.07    1.62
  19  -1  -4    6.81    1.48
  19   1  -3   -0.33    0.72
  19  -1  -3    0.04    0.77
  19   1  -2   -0.22    0.68
  19  -1  -2    0.01    0.76
  19   1  -1   24.08    2.53
  19  -1  -1   17.41    2.19
  19   1   0    0.52    0.77
  19  -1   0    0.75    0.88
  19   1   1   22.32    2.54
  19  -1   1   22.47    2.62
  19   1   2    2.23    1.05
  19  -1   2    1.93    1.12
  19   1   3   -0.19    0.87
  19  -1   3    0.02    0.81
  19   1   4    2.29    1.24
  19  -1   4    1.84    1.10
  19   1   5    0.82    1.13
  19  -1   5    1.80    1.19
  19   2  -6    1.72    1.12
  19  -2  -6    1.41    1.13
  19   2  -5    2.64    1.30
  19  -2  -5    1.19    0.97
  19   2  -4    3.64    1.28
  19  -2  -4    3.42    1.25
  19   2  -3    6.21    1.41
  19  -2  -3    8.65    1.59
  19   2  -2    8.86    1.60
  19  -2  -2    8.66    1.61
  19   2  -1    0.05    0.77
  19  -2  -1    0.27    0.82
  19   2   0   15.84    2.12
  19  -2   0   20.54    2.42
  19   2   1    4.77    1.36
  19  -2   1    6.68    1.53
  19   2   2    5.77    1.43
  19  -2   2    7.73    1.58
  19   2   3    2.88    1.22
  19  -2   3    4.07    1.33
  19   2   4   -1.04    0.93
  19  -2   4   -0.17    0.94
  19   2   5    1.80    1.18
  19  -2   5    1.31    1.18
  19   3  -6   -0.80    0.87
  19  -3  -6   -1.23    0.79
  19   3  -5    1.56    1.08
  19  -3  -5    1.26    1.06
  19   3  -4    2.85    1.12
  19  -3  -4    1.70    0.99
  19   3  -3    4.96    1.39
  19  -3  -3    5.42    1.43
  19   3  -2    0.89    0.92
  19  -3  -2   -0.40    0.66
  19   3  -1   -0.81    0.75
  19  -3  -1    1.97    1.04
  19   3   0   -0.22    0.78
  19  -3   0    0.77    0.79
  19   3   1   11.95    1.94
  19  -3   1   13.53    2.05
  19   3   2   -1.18    0.70
  19  -3   2   -0.82    0.68
  19   3   3    5.79    1.56
  19   3   4    2.34    1.18
  19  -3   4    3.49    1.40
  19   4  -6    1.26    1.18
  19  -4  -6    2.38    1.21
  19   4  -5    5.76    1.43
  19  -4  -5    6.88    1.55
  19   4  -4   10.05    1.75
  19  -4  -4    6.97    1.53
  19   4  -3   13.19    1.95
  19  -4  -3   13.98    2.01
  19   4  -2    6.39    1.48
  19  -4  -2    6.94    1.57
  19   4  -1    1.49    0.99
  19  -4  -1   -0.36    0.75
  19   4   0   56.24    3.56
  19  -4   0   42.04    3.10
  19   4   1    4.77    1.28
  19  -4   1    6.44    1.56
  19   4   2    9.32    1.82
  19  -4   2    8.09    1.68
  19   4   3    0.97    1.13
  19  -4   3    1.26    0.96
  19   4   4   -1.66    0.74
  19  -4   4    1.93    1.21
  19   5  -6    7.25    1.69
  19   5  -6    2.57    1.21
  19  -5  -6    3.53    1.35
  19   5  -5    5.82    1.57
  19  -5  -5    4.95    1.43
  19   5  -4    0.85    0.92
  19  -5  -4    1.57    1.00
  19   5  -3    0.77    0.85
  19  -5  -3   -1.26    0.74
  19   5  -2   11.07    1.73
  19  -5  -2   11.34    1.88
  19   5  -1   32.53    3.03
  19  -5  -1   35.03    3.15
  19   5   0    2.66    1.10
  19  -5   0    6.66    1.46
  19   5   1   27.02    2.87
  19  -5   1   22.88    2.56
  19   5   2    2.40    1.09
  19  -5   2    2.71    1.08
  19   5   3   -0.44    0.82
  19  -5   3    1.19    1.02
  19   5   4    0.13    1.03
  19   6  -6    1.86    1.17
  19   6  -6    0.59    0.97
  19  -6  -6   -0.58    0.91
  19   6  -5    0.25    0.85
  19   6  -5   -0.33    0.87
  19  -6  -5    1.02    1.02
  19   6  -4    1.19    0.90
  19   6  -4    5.13    1.39
  19  -6  -4    3.80    1.29
  19   6  -3    0.02    0.78
  19   6  -3    0.83    0.72
  19  -6  -3    2.53    1.10
  19   6  -2    3.54    1.27
  19   6  -2    2.21    0.99
  19  -6  -2    2.92    1.15
  19   6  -1   -1.54    0.57
  19  -6  -1    0.55    0.88
  19   6   0   10.96    1.89
  19  -6   0    9.50    1.72
  19   6   1   -0.23    0.82
  19  -6   1    0.52    0.84
  19   6   2   10.21    1.84
  19  -6   2   13.86    2.08
  19   6   3    0.19    0.91
  19  -6   3    1.24    1.04
  19   6   4   10.00    2.06
  19   7  -6    6.63    1.63
  19  -7  -6    7.65    1.69
  19   7  -5    0.53    1.00
  19   7  -5    2.90    1.16
  19  -7  -5    5.14    1.44
  19   7  -4    1.58    0.95
  19   7  -4    0.89    0.94
  19  -7  -4    1.58    1.09
  19   7  -3    1.53    0.93
  19   7  -3    1.16    0.99
  19  -7  -3    1.55    0.91
  19   7  -2    0.80    0.88
  19   7  -2    1.89    0.88
  19  -7  -2   -0.25    0.78
  19   7  -1   40.74    3.53
  19  -7  -1   42.76    3.61
  19   7   0    2.14    1.03
  19  -7   0    2.18    1.03
  19   7   1   26.86    2.91
  19  -7   1   29.45    2.90
  19   7   2    4.19    1.44
  19  -7   2    7.16    1.59
  19   7   3    1.24    1.11
  19   7   4    0.75    1.15
  19   8  -5   -0.23    0.87
  19   8  -5    0.07    0.92
  19  -8  -5    0.15    0.94
  19   8  -4    1.75    1.07
  19   8  -4    0.96    0.90
  19  -8  -4    3.34    1.27
  19   8  -3    4.08    1.24
  19   8  -3    1.36    0.88
  19  -8  -3    1.24    1.13
  19   8  -2    9.31    1.58
  19   8  -2   10.12    1.71
  19  -8  -2   10.87    1.88
  19   8  -1    1.09    0.99
  19  -8  -1   -0.29    0.77
  19   8   0   34.48    3.22
  19  -8   0   39.72    3.36
  19   8   1    8.93    1.80
  19  -8   1    7.29    1.56
  19   8   2    7.33    1.62
  19  -8   2    8.75    1.75
  19   8   3    0.57    0.87
  19   8   4    5.74    1.66
  19   9  -5    1.44    1.01
  19   9  -5    1.21    1.30
  19  -9  -5   -0.02    0.88
  19   9  -4    0.08    0.84
  19   9  -4    0.26    0.96
  19  -9  -4   -0.06    0.88
  19   9  -3   -0.73    0.80
  19   9  -3    2.33    1.07
  19  -9  -3   -0.02    0.83
  19   9  -2    0.54    0.85
  19   9  -2   -0.49    0.68
  19  -9  -2   -0.82    0.72
  19   9  -1    1.36    0.99
  19  -9  -1    0.58    0.98
  19   9   0    2.03    1.10
  19  -9   0    1.49    1.08
  19   9   1    9.20    1.75
  19  -9   1   11.27    1.89
  19   9   2    0.49    0.83
  19   9   3   10.24    2.05
  19   9   4    0.90    1.05
  19  10  -5    1.58    1.11
  19 -10  -5    1.09    1.06
  19  10  -4    2.34    1.05
  19  10  -4    1.74    1.13
  19 -10  -4    5.22    1.44
  19  10  -3    0.92    0.89
  19  10  -3    1.96    1.03
  19 -10  -3    2.67    1.20
  19  10  -2    9.90    1.62
  19  10  -2    8.14    1.56
  19 -10  -2    8.13    1.65
  19  10  -1    0.46    0.85
  19 -10  -1    3.15    1.27
  19  10   0   33.85    3.19
  19 -10   0   30.19    2.94
  19  10   1    9.67    1.84
  19 -10   1   13.67    2.03
  19  10   2    2.02    1.12
  19  10   3    1.85    1.10
  19  11  -5    1.00    1.11
  19 -11  -5    1.64    1.15
  19  11  -4    0.24    0.93
  19  11  -4   -0.36    1.00
  19 -11  -4   -1.56    0.95
  19  11  -3    4.24    1.29
  19  11  -3    2.58    1.09
  19 -11  -3    1.58    1.13
  19  11  -2    3.74    1.26
  19  11  -2    0.68    0.94
  19 -11  -2    2.64    1.19
  19  11  -1   23.35    2.72
  19 -11  -1   34.32    3.15
  19  11   0   -0.15    0.83
  19 -11   0    0.89    0.96
  19  11   1   18.15    2.45
  19  11   2    6.87    1.61
  19  11   3   -0.53    0.77
  19  12  -4    1.43    1.13
  19 -12  -4    0.43    1.03
  19  12  -3    2.97    1.16
  19  12  -3   -0.50    0.69
  19 -12  -3    1.10    0.97
  19  12  -2    5.08    1.42
  19 -12  -2    5.84    1.47
  19  12  -1    2.76    1.13
  19 -12  -1    1.75    1.19
  19  12   0    3.00    1.29
  19 -12   0    2.95    1.17
  19  12   1    0.76    0.92
  19  12   2   11.04    2.06
  19  12   3    0.58    1.11
  19  13  -4    1.92    1.25
  19 -13  -4    1.00    1.05
  19  13  -3   -0.14    0.85
  19  13  -3    0.83    1.61
  19 -13  -3   -0.01    0.90
  19  13  -2    9.89    1.72
  19 -13  -2    9.69    1.79
  19  13  -1   21.76    2.56
  19 -13  -1   17.57    2.25
  19  13   0    0.30    1.05
  19  13   1   16.35    2.40
  19  13   2   -1.05    0.94
  19  13   3   -0.17    1.04
  19  14  -4    3.55    1.46
  19 -14  -4    4.11    1.49
  19  14  -3   -0.47    0.89
  19 -14  -3    0.13    1.06
  19  14  -2    9.57    1.80
  19 -14  -2    9.96    1.89
  19  14  -1    0.81    0.96
  19 -14  -1   -0.51    0.83
  19  14   0   20.57    2.57
  19  14   1    5.50    1.51
  19  14   2    1.44    1.27
  19  15  -3    6.96    1.70
  19 -15  -3    5.33    1.48
  19 -15  -2    1.69    1.07
  19  15  -1    1.52    1.12
  19  15   0    0.56    1.02
  19  15   1    6.69    1.76
  19  15   2    3.15    1.33
  19 -16  -2    4.37    1.39
  19  16  -1    3.92    1.29
  19  16   0   20.03    2.57
  19  16   1    3.15    1.37
  19  17   0    0.41    1.06
  20   0  -6    1.51    1.12
  20   0  -5   -0.83    0.90
  20   0  -4    0.72    0.92
  20   0  -3   -0.83    0.80
  20   0  -2   12.21    1.86
  20   0  -1   -0.08    0.67
  20   0   0   32.99    3.09
  20   0   1    0.51    1.01
  20   0   2    2.68    1.20
  20   0   3    0.00    1.04
  20   0   4   -0.29    1.03
  20   1  -6    2.35    1.32
  20  -1  -6    5.86    1.67
  20   1  -5    2.70    1.15
  20  -1  -5    4.71    1.46
  20   1  -4    1.26    1.01
  20  -1  -4   -0.46    0.89
  20   1  -3   25.85    2.76
  20  -1  -3   24.39    2.70
  20   1  -2   11.00    1.84
  20  -1  -2   14.56    2.13
  20   1  -1   10.01    1.81
  20  -1  -1   14.54    2.09
  20   1   0    0.13    0.70
  20  -1   0   -0.44    0.88
  20   1   1    0.47    0.89
  20  -1   1    0.33    0.99
  20   1   2    1.40    1.04
  20  -1   2    0.46    0.91
  20   1   3    0.16    1.04
  20  -1   3    0.03    0.89
  20   1   4   -0.22    0.93
  20  -1   4    2.71    1.39
  20   2  -5    2.65    1.17
  20  -2  -5    2.85    1.29
  20   2  -4    6.31    1.49
  20  -2  -4    7.81    1.58
  20   2  -3    1.47    1.02
  20  -2  -3    1.81    1.04
  20   2  -2   23.11    2.61
  20  -2  -2   21.80    2.49
  20   2  -1    3.40    1.20
  20  -2  -1    5.18    1.36
  20   2   0   10.29    1.78
  20  -2   0    7.95    1.68
  20   2   1   -1.31    0.64
  20  -2   1   -0.12    0.91
  20   2   2    2.08    1.19
  20  -2   2   -0.38    0.86
  20   2   3    8.15    1.72
  20  -2   3    7.35    1.75
  20   2   4    9.37    2.05
  20  -2   4    8.64    1.75
  20   3  -5    1.87    1.06
  20  -3  -5    0.38    0.95
  20   3  -4    3.02    1.27
  20  -3  -4    5.03    1.40
  20   3  -3    6.85    1.49
  20  -3  -3    7.59    1.57
  20   3  -2    6.27    1.52
  20  -3  -2    7.72    1.58
  20   3  -1   20.22    2.37
  20  -3  -1   16.33    2.21
  20   3   0    0.70    0.90
  20  -3   0   -0.53    0.76
  20   3   1    6.41    1.56
  20  -3   1    5.89    1.49
  20   3   2    8.99    1.86
  20  -3   2   10.50    1.92
  20   3   3    1.66    1.04
  20  -3   3    1.26    1.12
  20   3   4   -0.79    0.92
  20  -3   4    1.41    1.08
  20   4  -5   11.40    1.93
  20  -4  -5   11.80    2.01
  20   4  -4   20.09    2.48
  20  -4  -4   17.93    2.38
  20   4  -3    3.35    1.13
  20  -4  -3    3.64    1.24
  20   4  -2   12.40    2.00
  20  -4  -2   11.69    1.95
  20   4  -1    7.44    1.54
  20  -4  -1    7.02    1.47
  20   4   0    1.03    0.93
  20  -4   0   -0.91    0.83
  20   4   1   -0.20    0.77
  20  -4   1   -0.47    0.79
  20   4   2   -0.58    0.94
  20  -4   2    0.16    0.84
  20   4   3    7.30    1.75
  20  -4   3   10.89    1.89
  20   4   4    0.72    1.10
  20  -4   4    5.62    1.56
  20   5  -5    9.08    1.82
  20  -5  -5    9.83    1.93
  20   5  -4    0.99    1.06
  20  -5  -4    2.15    1.08
  20  -5  -3   21.04    2.55
  20   5  -2   12.34    1.98
  20  -5  -2   12.27    1.99
  20   5  -1    4.91    1.35
  20  -5  -1    8.35    1.60
  20   5   0    0.37    0.86
  20  -5   0    1.75    1.02
  20   5   1    0.51    0.85
  20  -5   1    0.48    0.97
  20   5   2   14.30    2.25
  20  -5   2   12.22    2.05
  20   5   3   -1.66    0.83
  20  -5   3    0.03    0.98
  20   5   4   -0.49    1.05
  20   6  -5   -0.39    0.91
  20   6  -5   -0.20    0.84
  20  -6  -5   -2.77    0.59
  20   6  -4    1.52    0.95
  20   6  -4    0.09    0.82
  20  -6  -4    0.06    0.84
  20   6  -3    1.05    0.85
  20   6  -3   -0.05    0.83
  20  -6  -3   -0.59    0.76
  20   6  -2    5.37    1.39
  20   6  -2    2.34    1.02
  20  -6  -2    4.15    1.29
  20   6  -1   -0.46    0.96
  20  -6  -1    0.45    0.91
  20   6   0   13.53    2.02
  20  -6   0   11.25    1.86
  20   6   1    0.01    0.89
  20  -6   1   -0.59    0.82
  20   6   2    1.25    1.11
  20  -6   2    2.69    1.23
  20   6   3    3.41    1.38
  20  -6   3    1.59    1.08
  20   6   4    6.68    1.88
  20   7  -5    1.19    0.92
  20   7  -5    0.43    0.94
  20  -7  -5    1.26    1.04
  20   7  -4   12.70    2.06
  20   7  -4   13.80    2.05
  20  -7  -4   17.40    2.50
  20   7  -3   15.31    2.19
  20   7  -3   11.23    1.77
  20  -7  -3   12.55    2.10
  20   7  -2   13.53    2.07
  20   7  -2   12.24    2.00
  20  -7  -2   13.94    2.13
  20   7  -1    7.47    1.69
  20  -7  -1    9.31    1.80
  20   7   0    2.90    1.30
  20  -7   0    7.09    1.59
  20   7   1   -0.03    0.86
  20  -7   1    0.21    0.97
  20   7   2    3.24    1.20
  20  -7   2    3.52    1.30
  20   7   3    0.86    1.05
  20   8  -5    2.51    1.23
  20   8  -5   -0.82    0.68
  20  -8  -5    2.58    1.36
  20   8  -4   16.36    2.29
  20   8  -4   14.27    2.09
  20  -8  -4   13.28    2.17
  20   8  -3    4.93    1.45
  20   8  -3    3.92    1.27
  20  -8  -3    4.59    1.36
  20   8  -2   12.89    2.03
  20  -8  -2   12.04    1.96
  20   8  -1    1.54    1.00
  20  -8  -1    1.69    1.05
  20   8   0    1.73    1.21
  20  -8   0    0.55    0.87
  20   8   1    4.48    1.47
  20  -8   1    5.26    1.47
  20   8   2    2.56    1.17
  20  -8   2    2.65    1.28
  20   8   3   -0.13    0.93
  20   9  -5    0.65    1.60
  20   9  -5   -0.06    0.85
  20  -9  -5    0.46    1.14
  20   9  -4    0.89    1.00
  20   9  -4   -0.69    0.85
  20  -9  -4    2.38    1.24
  20   9  -3    1.75    1.00
  20   9  -3   -0.37    0.86
  20  -9  -3    1.03    0.95
  20   9  -2   -0.68    0.76
  20  -9  -2    0.53    0.97
  20   9  -1   23.87    2.75
  20  -9  -1   20.22    2.45
  20   9   0    4.70    1.41
  20  -9   0    1.99    1.18
  20   9   1    8.04    1.75
  20  -9   1    5.41    1.45
  20   9   2    1.09    1.12
  20   9   3    1.17    1.16
  20  10  -4   10.89    1.91
  20  10  -4   11.85    1.96
  20 -10  -4   12.68    2.20
  20  10  -3    0.60    0.94
  20  10  -3   -0.45    0.85
  20 -10  -3   -0.59    0.93
  20  10  -2   20.53    2.49
  20 -10  -2   21.01    2.60
  20  10  -1    5.09    1.44
  20 -10  -1    4.80    1.41
  20  10   0    0.95    1.10
  20 -10   0    2.17    1.18
  20  10   1    0.13    1.04
  20 -10   1    1.78    1.11
  20  10   2   -0.19    0.97
  20  10   3    1.35    1.12
  20  11  -4    0.65    1.37
  20  11  -4    0.82    1.13
  20 -11  -4    0.00    1.06
  20  11  -3   17.82    2.42
  20  11  -3   12.15    1.95
  20 -11  -3   14.77    2.22
  20  11  -2    5.15    1.45
  20 -11  -2    5.82    1.64
  20  11  -1    9.10    1.73
  20 -11  -1    9.06    1.87
  20  11   0   -0.45    0.80
  20 -11   0    0.46    0.96
  20  11   1    0.20    0.84
  20  11   2    6.96    1.82
  20  12  -4   -0.81    0.78
  20 -12  -4    0.13    1.09
  20  12  -3   -0.82    0.80
  20  12  -3   -0.56    0.80
  20 -12  -3    0.67    1.05
  20  12  -2   11.85    1.96
  20 -12  -2    7.93    1.85
  20  12  -1    1.36    1.08
  20 -12  -1    1.34    1.03
  20  12   0   14.09    2.26
  20 -12   0   17.35    2.33
  20  12   1   -0.33    0.81
  20  12   2    0.99    1.15
  20  13  -3   13.34    2.04
  20  13  -3   10.44    2.84
  20 -13  -3   12.94    2.12
  20  13  -2    0.47    1.03
  20 -13  -2    0.26    1.02
  20  13  -1    3.40    1.30
  20 -13  -1    7.30    1.70
  20  13   0    2.18    1.19
  20  13   1    2.37    1.22
  20  14  -2    3.46    1.36
  20 -14  -2    4.31    1.57
  20  14  -1    0.02    0.87
  20 -14  -1    2.92    1.35
  20  14   0    0.81    0.96
  20  14   1    4.37    1.42
  20  15  -1    4.65    1.44
  20  15   0    0.38    1.06
  21   0  -5   -0.58    0.88
  21   0  -4   37.98    3.53
  21   0  -3   -0.21    0.82
  21   0  -2   11.19    1.94
  21   0  -1   -0.01    0.80
  21   0   0    4.15    1.32
  21   0   1   -0.14    0.99
  21   0   2    2.03    1.30
  21   0   3   -1.15    1.01
  21   1  -5   11.60    2.10
  21  -1  -5   17.48    2.43
  21   1  -4    9.37    1.84
  21  -1  -4   11.33    1.97
  21   1  -3    0.38    0.85
  21  -1  -3    0.45    0.94
  21   1  -2   -1.06    0.61
  21  -1  -2    1.05    0.90
  21   1  -1    0.35    0.94
  21  -1  -1    0.86    0.98
  21   1   0    0.98    1.13
  21  -1   0    3.58    1.24
  21   1   1    1.81    1.20
  21  -1   1    5.83    1.61
  21   1   2   -0.26    0.94
  21  -1   2   -0.60    0.92
  21   1   3    0.17    1.09
  21  -1   3   -0.56    0.88
  21   2  -5    5.11    1.48
  21  -2  -5    3.76    1.43
  21   2  -4    2.67    1.34
  21  -2  -4    6.25    1.59
  21   2  -3    9.90    1.88
  21  -2  -3    6.42    1.62
  21   2  -2   -1.13    0.65
  21  -2  -2    0.10    0.88
  21   2  -1   13.10    2.00
  21  -2  -1   10.67    1.88
  21   2   0    0.69    0.88
  21  -2   0   -0.11    0.85
  21   2   1    3.25    1.30
  21  -2   1    2.03    1.21
  21   2   2    5.21    1.63
  21  -2   2    4.35    1.47
  21   2   3    0.75    1.05
  21  -2   3   -0.49    1.03
  21   3  -5    2.40    1.22
  21  -3  -5    1.78    1.14
  21   3  -4    0.95    1.06
  21  -3  -4    3.11    1.31
  21   3  -3   34.33    3.32
  21  -3  -3   39.48    3.55
  21   3  -2    0.44    0.94
  21  -3  -2    2.89    1.29
  21   3  -1    0.09    0.84
  21  -3  -1    1.72    1.14
  21   3   0    0.80    1.00
  21  -3   0    1.04    0.99
  21   3   1   26.40    2.99
  21  -3   1   21.88    2.65
  21   3   2    1.90    1.30
  21  -3   2    1.26    1.26
  21   3   3    0.59    0.99
  21  -3   3    2.03    1.31
  21   4  -5   -0.41    0.93
  21  -4  -5   -1.05    0.64
  21   4  -4   17.60    2.44
  21  -4  -4   13.66    2.21
  21   4  -3    3.80    1.37
  21  -4  -3    5.23    1.49
  21   4  -2    1.79    1.18
  21  -4  -2    1.95    1.13
  21   4  -1    8.10    1.75
  21  -4  -1    7.39    1.76
  21   4   0    4.62    1.39
  21  -4   0    2.49    1.21
  21   4   1   -0.19    0.82
  21  -4   1   -1.06    0.88
  21   4   2    1.46    1.16
  21  -4   2   -0.40    0.84
  21   4   3    2.03    1.25
  21  -4   3    1.16    1.17
  21   5  -5   19.02    2.62
  21  -5  -5   19.99    2.64
  21   5  -4    2.99    1.19
  21  -5  -4    3.59    1.35
  21   5  -3    0.61    1.10
  21  -5  -3    0.90    1.12
  21   5  -2    0.34    0.97
  21  -5  -2    0.80    1.02
  21   5  -1   -0.35    0.90
  21  -5  -1    0.71    1.05
  21   5   0   14.25    2.16
  21  -5   0   13.49    2.15
  21   5   1    0.61    0.95
  21  -5   1   -1.00    0.92
  21   5   2    5.21    1.52
  21  -5   2    4.78    1.50
  21   5   3    0.39    1.04
  21  -5   3    2.19    1.26
  21   6  -4   12.35    2.01
  21   6  -4   11.94    1.93
  21  -6  -4   13.38    2.17
  21   6  -3    1.60    1.07
  21   6  -3    1.89    1.08
  21  -6  -3    0.88    1.11
  21   6  -2   31.99    3.08
  21  -6  -2   25.22    2.84
  21   6  -1    2.30    1.19
  21  -6  -1    0.54    0.97
  21   6   0   27.48    2.99
  21  -6   0   26.01    2.88
  21   6   1    0.08    0.81
  21  -6   1    0.78    1.14
  21   6   2    6.89    1.84
  21  -6   2    5.11    1.53
  21   6   3   -0.09    1.00
  21  -6   3   -1.54    0.81
  21   7  -4    0.34    0.83
  21   7  -4    0.47    0.95
  21  -7  -4   -0.17    0.94
  21   7  -3    1.37    1.08
  21   7  -3    0.68    0.90
  21  -7  -3    0.92    1.03
  21   7  -2   -0.30    0.84
  21  -7  -2    0.63    1.14
  21   7  -1    1.72    1.18
  21  -7  -1    1.07    1.14
  21   7   0    4.85    1.43
  21  -7   0    5.94    1.57
  21   7   1    0.99    0.93
  21  -7   1   -0.65    0.78
  21   7   2    4.98    1.48
  21  -7   2    5.27    1.57
  21   8  -4   12.45    2.01
  21   8  -4    6.76    1.60
  21  -8  -4   10.33    1.97
  21   8  -3   -0.30    0.80
  21   8  -3    1.19    1.02
  21  -8  -3   -0.68    0.97
  21   8  -2   -0.41    0.92
  21  -8  -2   -0.76    0.80
  21   8  -1    0.69    1.00
  21  -8  -1   -0.04    0.86
  21   8   0    0.11    0.92
  21  -8   0   -0.23    0.99
  21   8   1    4.80    1.46
  21  -8   1    1.96    1.12
  21   8   2    0.58    1.04
  21  -8   2   -0.17    0.96
  21   9  -4    0.03    1.08
  21   9  -4    3.05    1.29
  21  -9  -4    0.95    1.24
  21   9  -3   19.69    2.46
  21   9  -3   20.81    2.52
  21  -9  -3   20.04    2.66
  21   9  -2    0.36    1.00
  21  -9  -2    0.94    0.95
  21   9  -1   -1.72    0.75
  21  -9  -1   -0.50    0.84
  21   9   0    0.23    0.95
  21  -9   0    1.67    1.15
  21   9   1    8.13    1.85
  21  -9   1    7.76    1.63
  21   9   2    0.96    1.04
  21  10  -3    0.25    0.82
  21  10  -3   -1.02    0.86
  21 -10  -3    1.16    1.13
  21  10  -2    1.60    0.90
  21 -10  -2    1.04    1.04
  21  10  -1    0.50    0.88
  21 -10  -1   -0.26    0.98
  21  10   0    0.16    1.02
  21 -10   0    0.24    1.00
  21  10   1    0.58    1.12
  21 -10   1    3.02    1.34
  21  10   2    0.91    1.05
  21  11  -3    1.27    1.07
  21  11  -3    1.34    1.19
  21 -11  -3    4.86    1.62
  21  11  -2    2.98    1.32
  21 -11  -2    1.76    1.17
  21  11  -1    0.87    1.08
  21 -11  -1   -0.60    0.88
  21  11   0    4.38    1.43
  21 -11   0    3.44    1.33
  21  11   1    0.08    1.03
  21  12  -2   12.50    2.14
  21 -12  -2    7.84    1.70
  21  12  -1    1.14    1.11
  21 -12  -1    1.70    1.30
  21  12   0    4.84    1.58
  21 -12   0    4.88    1.71
  21  12   1   -0.39    0.81
  21  13  -1   -0.05    0.85
  21 -13  -1   -0.76    1.02
  21  13   0   -1.44    0.77
  22   0  -4   12.95    2.27
  22   0  -3    0.45    0.95
  22   0  -2   57.36    3.90
  22   0  -1   -0.56    0.75
  22   0   0    9.98    1.89
  22   0   1    0.39    1.07
  22   0   2   51.65    3.88
  22   1  -4    3.67    1.36
  22  -1  -4    4.53    1.38
  22   1  -3   -0.10    0.91
  22  -1  -3   -0.10    0.95
  22   1  -2    3.21    1.30
  22  -1  -2    4.64    1.50
  22   1  -1    0.51    0.88
  22  -1  -1   -0.05    0.96
  22   1   0   13.53    2.18
  22  -1   0   17.07    2.36
  22   1   1    4.18    1.42
  22  -1   1    1.24    1.10
  22   1   2   -0.36    0.94
  22  -1   2   -0.41    1.01
  22   2  -4    3.65    1.35
  22  -2  -4    1.11    1.05
  22   2  -3    4.38    1.37
  22  -2  -3    1.14    1.18
  22   2  -2    4.76    1.34
  22  -2  -2    2.98    1.34
  22   2  -1    3.91    1.32
  22  -2  -1    5.05    1.54
  22   2   0    0.30    1.06
  22  -2   0    0.68    1.01
  22   2   1    3.07    1.23
  22  -2   1   -1.70    0.79
  22   2   2    0.39    1.05
  22  -2   2    0.43    1.11
  22   3  -4   -0.15    1.06
  22  -3  -4    2.63    1.18
  22   3  -3    3.50    1.29
  22  -3  -3    2.73    1.37
  22   3  -2    0.54    1.17
  22  -3  -2    3.45    1.36
  22   3  -1   36.00    3.52
  22  -3  -1   37.42    3.49
  22   3   0    0.58    0.90
  22  -3   0    2.06    1.18
  22   3   1   15.27    2.40
  22  -3   1   12.14    2.17
  22   3   2   -0.12    0.92
  22  -3   2    0.28    1.09
  22   4  -4    5.92    1.61
  22  -4  -4    8.00    1.76
  22   4  -3    1.67    1.18
  22  -4  -3    2.86    1.34
  22   4  -2    1.21    1.11
  22  -4  -2   -0.09    1.02
  22   4  -1    3.38    1.25
  22  -4  -1    3.35    1.27
  22   4   0   -1.41    0.84
  22  -4   0   -1.78    0.85
  22   4   1    1.27    1.19
  22  -4   1    2.29    1.28
  22   4   2    0.41    1.00
  22  -4   2    1.19    1.11
  22   5  -4    1.98    1.27
  22  -5  -4    2.06    1.29
  22   5  -3    0.11    0.70
  22   5  -3    1.08    1.02
  22  -5  -3    0.27    1.06
  22   5  -2    1.49    1.21
  22  -5  -2   -0.16    0.91
  22   5  -1   -0.08    0.92
  22  -5  -1   -0.24    0.88
  22   5   0    0.91    0.98
  22  -5   0    1.38    1.17
  22   5   1   -0.54    0.84
  22  -5   1   -1.02    0.90
  22   5   2   -2.42    0.67
  22  -5   2   -0.53    1.02
  22   6  -3   -0.17    0.90
  22   6  -3   -0.19    0.70
  22  -6  -3    1.12    1.11
  22   6  -2    8.38    1.82
  22  -6  -2    6.61    1.68
  22   6  -1    1.49    1.10
  22  -6  -1    2.23    1.25
  22   6   0    2.29    1.19
  22  -6   0    3.99    1.46
  22   6   1    1.13    1.21
  22  -6   1    0.98    1.05
  22   6   2   18.11    2.69
  22  -6   2   26.62    3.06
  22   7  -3    0.15    0.78
  22   7  -3   -1.41    0.79
  22  -7  -3    0.40    1.12
  22   7  -2    0.83    1.10
  22  -7  -2    0.01    1.08
  22   7  -1    5.44    1.55
  22  -7  -1    4.74    1.52
  22   7   0    1.26    1.16
  22  -7   0   -0.14    0.97
  22   7   1    1.16    1.01
  22  -7   1    0.87    1.14
  22   8  -3    6.11    1.52
  22   8  -3    8.33    1.71
  22  -8  -3    7.66    1.75
  22   8  -2   -0.55    0.83
  22  -8  -2    1.43    1.25
  22   8  -1    4.13    1.36
  22  -8  -1    3.53    1.33
  22   8   0    0.44    1.07
  22  -8   0   -0.66    1.00
  22   8   1    1.68    1.12
  22  -8   1    0.06    1.04
  22   9  -2    1.02    1.17
  22  -9  -2    0.27    0.98
  22   9  -1   21.88    2.75
  22  -9  -1   21.69    2.68
  22   9   0    5.05    1.60
  22  -9   0    1.26    1.18
  22 -10  -2    1.45    1.14
  22  10  -1    2.48    1.35
  22 -10  -1    2.44    1.24
  22  10   0    1.83    1.16
  22 -10   0    1.31    1.19
  23   0  -3   -0.30    0.84
  23   0  -2    2.31    1.22
  23   0  -1   -0.36    0.87
  23   0   0   26.99    3.16
  23   0   1    0.23    1.05
  23   1  -3   -1.04    0.77
  23  -1  -3    0.68    1.14
  23   1  -2   18.07    2.55
  23  -1  -2   16.27    2.39
  23   1  -1   -0.73    0.83
  23  -1  -1    1.21    1.08
  23   1   0   17.18    2.59
  23  -1   0   28.18    3.12
  23   1   1    3.54    1.46
  23  -1   1    5.91    1.70
  23   2  -3    7.22    1.78
  23  -2  -3    9.33    1.97
  23   2  -2    0.21    0.98
  23  -2  -2    0.78    1.04
  23   2  -1   -0.53    0.93
  23  -2  -1    1.35    1.15
  23   2   0    1.17    1.06
  23  -2   0   -1.63    0.84
  23   2   1    6.57    1.74
  23  -2   1   10.21    2.15
  23   3  -2   -1.32    0.88
  23  -3  -2    2.85    1.26
  23   3  -1    4.39    1.46
  23  -3  -1    3.87    1.39
  23   3   0    0.04    0.99
  23  -3   0    0.95    1.13
  23   3   1   15.58    2.52
  23  -3   1   13.92    2.39
  23   4  -2   -0.69    0.93
  23  -4  -2   -0.52    1.05
  23   4  -1   -0.88    0.98
  23  -4  -1   -0.55    1.09
  23   4   0    3.32    1.45
  23  -4   0    4.18    1.49
  23   5  -2    0.71    1.13
  23  -5  -2    0.85    1.13
  23   5  -1   -0.25    0.96
  23  -5  -1    0.15    1.06
  23   5   0    1.31    1.02
  23  -5   0   -0.06    1.04
  23   6  -1   -0.64    0.80
  23  -6  -1    1.64    1.13
  23   6   0    4.12    1.48
  23  -6   0    3.13    1.49
   0   0   0    0.00    0.00
;
_shelx_hkl_checksum              20755
_olex2_submission_special_instructions 'No special instructions were received'
loop_
_space_group_symop_operation_xyz
'x, y, z'
'-x, y+1/2, -z+1/2'
'-x, -y, -z'
'x, -y-1/2, z-1/2'
loop_
_atom_site_label
_atom_site_type_symbol
_atom_site_fract_x
_atom_site_fract_y
_atom_site_fract_z
_atom_site_U_iso_or_equiv
_atom_site_adp_type
_atom_site_occupancy
_atom_site_site_symmetry_order
_atom_site_calc_flag
_atom_site_refinement_flags_posn
_atom_site_refinement_flags_adp
_atom_site_refinement_flags_occupancy
_atom_site_disorder_assembly
_atom_site_disorder_group
Mn1 Mn 0.5000 0.5000 1.0000 0.01816(17) Uani 1 2 d S T P . .
Mn2 Mn 0.70988(3) 0.49611(2) 0.08878(7) 0.02265(15) Uani 1 1 d . . . . .
Mn3 Mn 0.10253(3) 0.16372(2) 0.87193(8) 0.02650(16) Uani 1 1 d . . . . .
O1 O 0.46063(14) 0.41667(11) 0.8700(4) 0.0332(6) Uani 1 1 d . . . . .
O2 O 0.33480(16) 0.41823(12) 0.8501(5) 0.0458(8) Uani 1 1 d . . . . .
O3 O 0.53253(14) 0.44180(13) 0.2345(4) 0.0387(7) Uani 1 1 d . . . . .
O4 O 0.65680(15) 0.45205(14) 0.2935(4) 0.0423(7) Uani 1 1 d . . . . .
O5 O 0.23955(15) 0.14214(12) 0.8265(4) 0.0386(7) Uani 1 1 d . . . . .
O6 O 0.18801(14) 0.23447(12) 0.8402(4) 0.0351(6) Uani 1 1 d . . . . .
O7 O 0.39052(13) 0.51778(11) 1.1357(3) 0.0270(6) Uani 1 1 d . . . . .
H7A H 0.3828 0.5003 1.2369 0.040 Uiso 1 1 d R . . . .
H7B H 0.3867 0.5550 1.1667 0.040 Uiso 1 1 d R . . . .
O8 O 0.8480(4) 0.4333(4) 0.8448(13) 0.0376(19) Uani 0.618(14) 1 d . . . A 1
O8A O 0.8236(10) 0.4369(7) 0.764(3) 0.066(5) Uani 0.382(14) 1 d . . . A 2
O9 O 1.02173(14) 0.24870(14) 0.8796(4) 0.0444(8) Uani 1 1 d . . . . .
O10 O 0.97305(15) 0.15597(13) 0.8796(5) 0.0480(8) Uani 1 1 d . . . . .
O11 O 0.74365(14) 0.41097(12) 0.9711(4) 0.0338(6) Uani 1 1 d . . . . .
O12 O 0.8080(2) 0.5046(2) 0.3009(7) 0.1017(16) Uani 1 1 d . . . . .
H12A H 0.8114 0.4873 0.4040 0.153 Uiso 1 1 d R . . . .
H12B H 0.8500 0.4950 0.2677 0.153 Uiso 1 1 d R . . . .
O13 O 0.78850(16) 0.54565(13) -0.0729(5) 0.0528(9) Uani 1 1 d . . . . .
H13A H 0.8148 0.5185 -0.1198 0.079 Uiso 1 1 d R . . . .
H13B H 0.7875 0.5820 -0.1223 0.079 Uiso 1 1 d R . . . .
O14 O 0.08027(18) 0.15395(15) 0.5776(4) 0.0540(8) Uani 1 1 d . . . . .
H14A H 0.0564 0.1816 0.5166 0.081 Uiso 1 1 d R . . . .
H14B H 0.0789 0.1179 0.5234 0.081 Uiso 1 1 d R . . . .
O15 O 0.1326(2) 0.16085(17) 1.1656(4) 0.0661(10) Uani 1 1 d . . . . .
H15A H 0.1627 0.1893 1.2123 0.099 Uiso 1 1 d R . . . .
H15B H 0.0947 0.1674 1.2328 0.099 Uiso 1 1 d R . . . .
O16 O 0.0970(2) 0.06299(15) 0.8851(6) 0.0773(12) Uani 1 1 d . . . . .
H16A H 0.0535 0.0507 0.8385 0.116 Uiso 1 1 d R . . . .
H16B H 0.0996 0.0484 0.9890 0.116 Uiso 1 1 d R . . . .
O18A O 0.9595(11) 0.4415(6) 0.634(3) 0.128(8) Uani 0.382(14) 1 d . U . A 2
H18A H 0.9671 0.4084 0.5802 0.192 Uiso 0.382(14) 1 d R . . A 2
H18B H 0.9242 0.4369 0.6960 0.192 Uiso 0.382(14) 1 d R . . A 2
C1 C 0.39776(19) 0.39207(15) 0.8351(5) 0.0215(7) Uani 1 1 d . . . . .
C2 C 0.39315(17) 0.32480(14) 0.7814(4) 0.0168(7) Uani 1 1 d . . . . .
C3 C 0.32614(18) 0.29424(15) 0.8076(4) 0.0197(7) Uani 1 1 d . . . . .
H3 H 0.2842 0.3175 0.8409 0.024 Uiso 1 1 calc R . . . .
C4 C 0.31855(18) 0.23095(15) 0.7870(4) 0.0198(7) Uani 1 1 d . . . . .
C5 C 0.38011(18) 0.19661(16) 0.7381(5) 0.0215(7) Uani 1 1 d . . . . .
H5 H 0.3764 0.1530 0.7268 0.026 Uiso 1 1 calc R . . . .
C6 C 0.44693(18) 0.22667(15) 0.7060(4) 0.0187(7) Uani 1 1 d . . . . .
H6 H 0.4881 0.2031 0.6697 0.022 Uiso 1 1 calc R . . . .
C7 C 0.45499(17) 0.29078(14) 0.7258(4) 0.0160(7) Uani 1 1 d . . . . .
C8 C 0.52755(17) 0.31898(15) 0.6766(4) 0.0169(7) Uani 1 1 d . . . . .
C9 C 0.59739(18) 0.29561(15) 0.7525(5) 0.0202(7) Uani 1 1 d . . . . .
H9 H 0.5983 0.2639 0.8413 0.024 Uiso 1 1 calc R . . . .
C10 C 0.66598(18) 0.31853(15) 0.6989(4) 0.0185(7) Uani 1 1 d . . . . .
C11 C 0.66332(18) 0.36353(15) 0.5632(4) 0.0191(7) Uani 1 1 d . . . . .
H11 H 0.7093 0.3792 0.5253 0.023 Uiso 1 1 calc R . . . .
C12 C 0.59392(18) 0.38586(15) 0.4821(4) 0.0175(7) Uani 1 1 d . . . . .
C13 C 0.52626(18) 0.36421(15) 0.5415(4) 0.0174(7) Uani 1 1 d . . . . .
H13 H 0.4791 0.3803 0.4900 0.021 Uiso 1 1 calc R . . . .
C14 C 0.74075(18) 0.29207(15) 0.7674(4) 0.0196(7) Uani 1 1 d . . . . .
C15 C 0.75231(19) 0.22844(16) 0.7547(5) 0.0236(8) Uani 1 1 d . . . . .
H15 H 0.7106 0.2023 0.7171 0.028 Uiso 1 1 calc R . . . .
C16 C 0.8240(2) 0.20271(17) 0.7962(5) 0.0268(8) Uani 1 1 d . . . . .
H16 H 0.8305 0.1592 0.7913 0.032 Uiso 1 1 calc R . . . .
C17 C 0.88588(18) 0.24050(17) 0.8447(5) 0.0247(8) Uani 1 1 d . . . . .
C18 C 0.87530(19) 0.30342(17) 0.8594(5) 0.0259(8) Uani 1 1 d . . . . .
H18 H 0.9178 0.3292 0.8924 0.031 Uiso 1 1 calc R . . . .
C19 C 0.80336(18) 0.32987(16) 0.8267(5) 0.0226(7) Uani 1 1 d . . . . .
C20 C 0.7946(2) 0.39698(17) 0.8723(6) 0.0333(9) Uani 1 1 d . . . . .
C21 C 0.9647(2) 0.21360(18) 0.8714(5) 0.0311(9) Uani 1 1 d . . . . .
C22 C 0.59337(19) 0.43012(15) 0.3233(5) 0.0221(7) Uani 1 1 d . . . . .
C23 C 0.2453(2) 0.20022(16) 0.8199(5) 0.0259(8) Uani 1 1 d . . . . .
O17 O 0.34845(19) 0.45163(15) 1.4178(4) 0.0566(9) Uani 1 1 d . . . . .
H17A H 0.3217 0.4197 1.4040 0.085 Uiso 1 1 d R . . . .
H17B H 0.3492 0.4726 1.5185 0.085 Uiso 1 1 d R . . . .
O18 O 0.8984(5) 0.4387(3) 0.5114(10) 0.073(3) Uani 0.618(14) 1 d . U . A 1
H18C H 0.8816 0.4395 0.6198 0.110 Uiso 0.618(14) 1 d R . . A 1
H18D H 0.9131 0.4036 0.4694 0.110 Uiso 0.618(14) 1 d R . . A 1
O19 O 0.9642(8) 0.5511(7) 0.130(2) 0.220(8) Uani 0.562(11) 1 d . U . B 1
H19A H 0.9752 0.5267 0.0489 0.330 Uiso 0.562(11) 1 d R . . B 1
H19B H 1.0070 0.5720 0.1484 0.330 Uiso 0.562(11) 1 d R . . B 1
O19A O 0.9364(6) 0.4547(5) 0.1718(17) 0.119(6) Uani 0.438(11) 1 d . U . B 2
H19C H 0.9246 0.4196 0.1260 0.178 Uiso 0.438(11) 1 d R . . B 2
H19D H 0.9697 0.4783 0.1301 0.178 Uiso 0.438(11) 1 d R . . B 2
loop_
_atom_site_aniso_label
_atom_site_aniso_U_11
_atom_site_aniso_U_22
_atom_site_aniso_U_33
_atom_site_aniso_U_23
_atom_site_aniso_U_13
_atom_site_aniso_U_12
Mn1 0.0177(4) 0.0154(4) 0.0205(4) 0.0018(3) -0.0026(3) -0.0022(3)
Mn2 0.0220(3) 0.0184(3) 0.0285(3) 0.0010(2) 0.0072(2) 0.0017(2)
Mn3 0.0161(3) 0.0220(3) 0.0418(4) 0.0001(2) 0.0046(2) 0.0011(2)
O1 0.0308(15) 0.0219(13) 0.0472(17) -0.0121(12) 0.0059(12) -0.0076(11)
O2 0.0334(16) 0.0210(14) 0.085(2) -0.0116(14) 0.0143(15) 0.0049(12)
O3 0.0338(16) 0.0428(17) 0.0377(16) 0.0239(13) -0.0056(13) 0.0007(12)
O4 0.0345(16) 0.0510(18) 0.0420(17) 0.0226(14) 0.0071(13) -0.0085(13)
O5 0.0320(15) 0.0242(14) 0.0607(19) -0.0020(13) 0.0096(13) -0.0090(11)
O6 0.0204(14) 0.0296(14) 0.0567(18) 0.0027(13) 0.0111(12) -0.0003(11)
O7 0.0306(14) 0.0257(13) 0.0251(14) -0.0018(11) 0.0050(11) 0.0019(10)
O8 0.019(4) 0.026(3) 0.069(6) -0.011(3) 0.009(3) -0.003(3)
O8A 0.056(11) 0.032(6) 0.119(16) -0.005(9) 0.049(9) -0.003(7)
O9 0.0158(14) 0.0491(18) 0.068(2) -0.0168(16) 0.0030(13) 0.0043(12)
O10 0.0268(16) 0.0362(17) 0.081(2) 0.0038(15) 0.0035(15) 0.0142(12)
O11 0.0325(15) 0.0263(14) 0.0439(17) -0.0053(12) 0.0097(12) 0.0070(11)
O12 0.069(3) 0.130(4) 0.097(4) -0.032(3) -0.041(2) -0.008(3)
O13 0.052(2) 0.0313(17) 0.081(2) 0.0109(16) 0.0383(17) 0.0056(14)
O14 0.065(2) 0.050(2) 0.0467(19) 0.0004(15) 0.0027(16) 0.0083(16)
O15 0.086(3) 0.073(3) 0.0406(19) -0.0025(17) 0.0092(18) -0.035(2)
O16 0.083(3) 0.0286(18) 0.124(4) 0.014(2) 0.029(2) 0.0060(17)
O18A 0.140(15) 0.104(10) 0.158(15) 0.009(9) 0.108(13) 0.029(8)
C1 0.0248(19) 0.0183(17) 0.0219(18) 0.0007(14) 0.0052(14) -0.0003(14)
C2 0.0157(16) 0.0170(16) 0.0174(17) 0.0019(13) -0.0003(12) 0.0007(13)
C3 0.0146(17) 0.0220(18) 0.0225(18) -0.0012(14) 0.0021(13) 0.0015(13)
C4 0.0164(17) 0.0210(17) 0.0216(18) -0.0003(14) 0.0000(13) -0.0025(13)
C5 0.0207(18) 0.0172(17) 0.0265(19) -0.0009(14) 0.0012(14) -0.0010(13)
C6 0.0173(17) 0.0198(17) 0.0193(17) 0.0008(13) 0.0035(13) 0.0038(13)
C7 0.0141(16) 0.0187(17) 0.0145(16) 0.0020(13) -0.0021(12) -0.0008(12)
C8 0.0142(16) 0.0214(17) 0.0152(16) -0.0008(13) 0.0020(12) -0.0010(13)
C9 0.0186(17) 0.0201(17) 0.0221(18) 0.0056(14) 0.0022(13) 0.0005(13)
C10 0.0159(16) 0.0178(17) 0.0216(18) 0.0016(13) 0.0012(13) 0.0017(13)
C11 0.0175(17) 0.0194(17) 0.0212(18) 0.0015(14) 0.0056(13) -0.0016(13)
C12 0.0208(17) 0.0182(16) 0.0135(16) 0.0025(13) 0.0015(13) 0.0018(13)
C13 0.0166(16) 0.0169(16) 0.0178(17) -0.0002(13) -0.0035(12) 0.0017(13)
C14 0.0169(17) 0.0239(18) 0.0182(17) 0.0039(14) 0.0032(13) 0.0034(13)
C15 0.0184(18) 0.0216(18) 0.031(2) 0.0000(15) 0.0004(14) -0.0008(14)
C16 0.0246(19) 0.0229(18) 0.033(2) 0.0026(15) 0.0036(15) 0.0060(15)
C17 0.0174(18) 0.031(2) 0.0257(19) -0.0016(15) 0.0008(14) 0.0061(14)
C18 0.0166(18) 0.029(2) 0.032(2) -0.0065(16) 0.0038(15) 0.0024(14)
C19 0.0157(17) 0.0238(18) 0.0282(19) -0.0023(15) 0.0019(14) 0.0021(14)
C20 0.024(2) 0.023(2) 0.054(3) -0.0030(18) 0.0070(18) 0.0023(15)
C21 0.021(2) 0.036(2) 0.035(2) -0.0051(17) 0.0014(16) 0.0081(16)
C22 0.029(2) 0.0164(17) 0.0207(18) 0.0011(13) 0.0037(15) 0.0020(14)
C23 0.0241(19) 0.0238(19) 0.029(2) -0.0022(15) 0.0016(15) -0.0046(15)
O17 0.084(2) 0.049(2) 0.0396(18) -0.0107(15) 0.0184(17) -0.0232(17)
O18 0.098(6) 0.049(4) 0.074(5) -0.010(3) 0.016(4) 0.005(3)
O19 0.215(13) 0.183(12) 0.252(15) 0.099(11) -0.030(11) 0.072(10)
O19A 0.103(8) 0.087(8) 0.152(11) -0.013(7) -0.064(7) 0.029(6)
loop_
_atom_type_symbol
_atom_type_description
_atom_type_scat_dispersion_real
_atom_type_scat_dispersion_imag
_atom_type_scat_source
C C 0.0033 0.0016 'International Tables Vol C Tables 4.2.6.8 and 6.1.1.4'
H H 0.0000 0.0000 'International Tables Vol C Tables 4.2.6.8 and 6.1.1.4'
Mn Mn 0.3368 0.7283 'International Tables Vol C Tables 4.2.6.8 and 6.1.1.4'
O O 0.0106 0.0060 'International Tables Vol C Tables 4.2.6.8 and 6.1.1.4'
loop_
_geom_angle_atom_site_label_1
_geom_angle_atom_site_label_2
_geom_angle_atom_site_label_3
_geom_angle
_geom_angle_site_symmetry_1
_geom_angle_site_symmetry_3
O1 Mn1 O1 180.0 3_667 .
O1 Mn1 O3 94.58(11) . 3_666
O1 Mn1 O3 85.42(11) . 1_556
O1 Mn1 O3 85.42(11) 3_667 3_666
O1 Mn1 O3 94.58(11) 3_667 1_556
O1 Mn1 O7 85.06(9) 3_667 .
O1 Mn1 O7 94.94(9) 3_667 3_667
O1 Mn1 O7 94.94(9) . .
O1 Mn1 O7 85.06(9) . 3_667
O3 Mn1 O3 180.00(12) 3_666 1_556
O3 Mn1 O7 94.71(10) 3_666 .
O3 Mn1 O7 85.29(10) 1_556 .
O3 Mn1 O7 85.29(10) 3_666 3_667
O3 Mn1 O7 94.71(10) 1_556 3_667
O7 Mn1 O7 180.0 . 3_667
O2 Mn2 O4 92.39(13) 3_666 .
O2 Mn2 O7 89.44(11) 3_666 3_666
O2 Mn2 O11 168.09(12) 3_666 1_554
O2 Mn2 O12 93.43(16) 3_666 .
O2 Mn2 O13 87.60(12) 3_666 .
O4 Mn2 O7 95.32(11) . 3_666
O4 Mn2 O11 93.72(12) . 1_554
O4 Mn2 O12 84.35(17) . .
O4 Mn2 O13 165.82(12) . .
O11 Mn2 O7 79.83(10) 1_554 3_666
O11 Mn2 O12 97.33(15) 1_554 .
O11 Mn2 O13 88.96(11) 1_554 .
O12 Mn2 O7 177.12(14) . 3_666
O13 Mn2 O7 98.86(12) . 3_666
O13 Mn2 O12 81.49(17) . .
O6 Mn3 O5 55.25(9) . .
O6 Mn3 O9 83.27(11) . 1_455
O6 Mn3 O10 139.09(10) . 1_455
O6 Mn3 O14 91.19(12) . .
O6 Mn3 O15 91.25(12) . .
O6 Mn3 O16 137.70(12) . .
O9 Mn3 O5 138.43(10) 1_455 .
O10 Mn3 O5 163.87(10) 1_455 .
O10 Mn3 O9 56.17(10) 1_455 1_455
O14 Mn3 O5 86.14(11) . .
O14 Mn3 O9 92.77(12) . 1_455
O14 Mn3 O10 86.17(12) . 1_455
O14 Mn3 O15 171.95(14) . .
O15 Mn3 O5 88.96(12) . .
O15 Mn3 O9 95.13(13) . 1_455
O15 Mn3 O10 96.96(13) . 1_455
O16 Mn3 O5 82.47(11) . .
O16 Mn3 O9 139.03(12) . 1_455
O16 Mn3 O10 82.96(12) . 1_455
O16 Mn3 O14 86.75(15) . .
O16 Mn3 O15 86.28(15) . .
C1 O1 Mn1 135.0(2) . .
C1 O2 Mn2 140.7(2) . 3_666
C22 O3 Mn1 134.0(2) . 1_554
C22 O4 Mn2 140.4(2) . .
C23 O5 Mn3 84.4(2) . .
C23 O6 Mn3 99.9(2) . .
Mn1 O7 Mn2 106.49(10) . 3_666
C21 O9 Mn3 90.8(2) . 1_655
C21 O10 Mn3 92.3(2) . 1_655
C20 O11 Mn2 133.5(2) . 1_556
O1 C1 O2 124.8(3) . .
O1 C1 C2 119.6(3) . .
O2 C1 C2 115.4(3) . .
C3 C2 C1 116.6(3) . .
C3 C2 C7 119.3(3) . .
C7 C2 C1 123.8(3) . .
C4 C3 C2 122.1(3) . .
C3 C4 C5 119.1(3) . .
C3 C4 C23 119.9(3) . .
C5 C4 C23 121.1(3) . .
C6 C5 C4 119.6(3) . .
C5 C6 C7 121.7(3) . .
C2 C7 C8 124.4(3) . .
C6 C7 C2 118.2(3) . .
C6 C7 C8 117.3(3) . .
C9 C8 C7 120.0(3) . .
C13 C8 C7 120.2(3) . .
C13 C8 C9 119.5(3) . .
C8 C9 C10 120.9(3) . .
C9 C10 C14 122.3(3) . .
C11 C10 C9 118.6(3) . .
C11 C10 C14 118.8(3) . .
C10 C11 C12 121.1(3) . .
C11 C12 C22 119.4(3) . .
C13 C12 C11 119.5(3) . .
C13 C12 C22 121.0(3) . .
C12 C13 C8 120.3(3) . .
C15 C14 C10 119.2(3) . .
C15 C14 C19 118.4(3) . .
C19 C14 C10 122.0(3) . .
C16 C15 C14 121.0(3) . .
C17 C16 C15 120.1(3) . .
C16 C17 C21 120.3(3) . .
C18 C17 C16 119.5(3) . .
C18 C17 C21 120.1(3) . .
C17 C18 C19 121.3(3) . .
C14 C19 C20 122.3(3) . .
C18 C19 C14 119.5(3) . .
C18 C19 C20 118.0(3) . .
O8 C20 C19 118.1(5) . .
O8A C20 C19 116.3(8) . .
O11 C20 O8 122.5(5) . .
O11 C20 O8A 122.8(8) . .
O11 C20 C19 117.4(3) . .
O9 C21 C17 120.1(3) . .
O10 C21 O9 120.3(3) . .
O10 C21 C17 119.5(3) . .
O3 C22 O4 125.3(3) . .
O3 C22 C12 118.9(3) . .
O4 C22 C12 115.8(3) . .
O5 C23 O6 120.4(3) . .
O5 C23 C4 121.5(3) . .
O6 C23 C4 118.1(3) . .
loop_
_geom_bond_atom_site_label_1
_geom_bond_atom_site_label_2
_geom_bond_distance
_geom_bond_site_symmetry_2
Mn1 O1 2.130(2) 3_667
Mn1 O1 2.131(2) .
Mn1 O3 2.178(3) 1_556
Mn1 O3 2.178(3) 3_666
Mn1 O7 2.301(2) 3_667
Mn1 O7 2.301(2) .
Mn2 O2 2.083(3) 3_666
Mn2 O4 2.090(3) .
Mn2 O7 2.334(3) 3_666
Mn2 O11 2.149(3) 1_554
Mn2 O12 2.236(4) .
Mn2 O13 2.201(3) .
Mn3 O5 2.526(3) .
Mn3 O6 2.183(3) .
Mn3 O9 2.335(3) 1_455
Mn3 O10 2.306(3) 1_455
Mn3 O14 2.187(3) .
Mn3 O15 2.190(3) .
Mn3 O16 2.186(3) .
O1 C1 1.239(4) .
O2 Mn2 2.083(3) 3_666
O2 C1 1.265(4) .
O3 Mn1 2.178(3) 1_554
O3 C22 1.234(4) .
O4 C22 1.259(4) .
O5 C23 1.263(4) .
O6 C23 1.277(4) .
O7 Mn2 2.334(3) 3_666
O8 C20 1.260(10) .
O8A C20 1.317(18) .
O9 Mn3 2.335(3) 1_655
O9 C21 1.261(5) .
O10 Mn3 2.306(3) 1_655
O10 C21 1.257(5) .
O11 Mn2 2.149(3) 1_556
O11 C20 1.253(4) .
C1 C2 1.510(4) .
C2 C3 1.389(4) .
C2 C7 1.414(4) .
C3 C4 1.384(5) .
C4 C5 1.396(5) .
C4 C23 1.499(5) .
C5 C6 1.391(5) .
C6 C7 1.402(4) .
C7 C8 1.499(4) .
C8 C9 1.403(4) .
C8 C13 1.399(4) .
C9 C10 1.405(4) .
C10 C11 1.397(5) .
C10 C14 1.487(4) .
C11 C12 1.401(4) .
C12 C13 1.397(4) .
C12 C22 1.516(4) .
C14 C15 1.397(5) .
C14 C19 1.414(5) .
C15 C16 1.393(5) .
C16 C17 1.388(5) .
C17 C18 1.381(5) .
C17 C21 1.508(5) .
C18 C19 1.397(5) .
C19 C20 1.503(5) .
loop_
_geom_hbond_atom_site_label_D
_geom_hbond_atom_site_label_H
_geom_hbond_atom_site_label_A
_geom_hbond_distance_DH
_geom_hbond_distance_HA
_geom_hbond_distance_DA
_geom_hbond_angle_DHA
_geom_hbond_site_symmetry_A
O7 H7A O17 0.86 1.85 2.697(4) 165.7 .
O12 H12A O18 0.85 1.97 2.559(9) 125.8 .
O12 H12B O19 0.83 2.65 3.309(17) 137.4 .
O12 H12B O19A 0.83 1.95 2.770(13) 166.8 .
O13 H13A O8 0.85 1.96 2.743(10) 153.2 1_554
O13 H13A O8A 0.85 1.98 2.744(17) 150.4 1_554
O13 H13B O5 0.87 2.02 2.821(4) 153.5 2_655
O14 H14A O9 0.84 1.89 2.716(4) 168.7 4_465
O14 H14B O19 0.88 1.95 2.777(12) 156.8 2_645
O15 H15A O6 0.86 1.93 2.743(4) 155.4 4_566
O15 H15B O9 0.89 2.54 3.287(5) 143.3 4_466
O15 H15B O14 0.89 2.61 3.277(5) 133.2 1_556
O16 H16A O18A 0.86 2.39 2.814(14) 111.4 2_646
O16 H16A O19A 0.86 2.31 3.141(10) 163.2 4_466
O16 H16B O12 0.83 2.35 3.013(6) 137.9 2_646
O16 H16B O18 0.83 2.37 2.797(7) 112.3 2_646
O18A H18A O10 0.84 2.05 2.855(17) 161.9 4_565
O18A H18B O8A 0.82 1.90 2.68(2) 159.9 .
O17 H17A O5 0.84 2.02 2.837(4) 164.5 4_566
O17 H17B O4 0.87 2.15 2.995(5) 161.7 3_667
O18 H18C O8 0.88 1.83 2.709(13) 174.6 .
O18 H18D O10 0.87 1.84 2.674(7) 161.1 4_565
O19 H19A O19 0.84 2.45 3.27(3) 164.8 3_765
O19 H19B O8 0.88 2.57 3.331(17) 145.4 3_766
loop_
_geom_torsion_atom_site_label_1
_geom_torsion_atom_site_label_2
_geom_torsion_atom_site_label_3
_geom_torsion_atom_site_label_4
_geom_torsion
_geom_torsion_site_symmetry_1
Mn1 O1 C1 O2 11.1(6) .
Mn1 O1 C1 C2 -164.9(2) .
Mn1 O3 C22 O4 0.1(6) 1_554
Mn1 O3 C22 C12 -179.8(2) 1_554
Mn2 O2 C1 O1 4.7(7) 3_666
Mn2 O2 C1 C2 -179.2(3) 3_666
Mn2 O4 C22 O3 -17.7(6) .
Mn2 O4 C22 C12 162.2(3) .
Mn2 O11 C20 O8 12.4(8) 1_556
Mn2 O11 C20 O8A -25.5(13) 1_556
Mn2 O11 C20 C19 176.2(2) 1_556
Mn3 O5 C23 O6 1.3(3) .
Mn3 O5 C23 C4 -178.3(3) .
Mn3 O6 C23 O5 -1.5(4) .
Mn3 O6 C23 C4 178.1(3) .
Mn3 O9 C21 O10 6.2(4) 1_655
Mn3 O9 C21 C17 -171.5(3) 1_655
Mn3 O10 C21 O9 -6.3(4) 1_655
Mn3 O10 C21 C17 171.4(3) 1_655
O1 C1 C2 C3 157.3(3) .
O1 C1 C2 C7 -15.7(5) .
O2 C1 C2 C3 -19.0(4) .
O2 C1 C2 C7 168.0(3) .
C1 C2 C3 C4 -171.2(3) .
C1 C2 C7 C6 170.5(3) .
C1 C2 C7 C8 -13.0(5) .
C2 C3 C4 C5 0.0(5) .
C2 C3 C4 C23 179.1(3) .
C2 C7 C8 C9 130.8(3) .
C2 C7 C8 C13 -55.8(4) .
C3 C2 C7 C6 -2.4(5) .
C3 C2 C7 C8 174.2(3) .
C3 C4 C5 C6 -1.9(5) .
C3 C4 C23 O5 -170.3(3) .
C3 C4 C23 O6 10.2(5) .
C4 C5 C6 C7 1.6(5) .
C5 C4 C23 O5 8.8(5) .
C5 C4 C23 O6 -170.8(3) .
C5 C6 C7 C2 0.5(5) .
C5 C6 C7 C8 -176.3(3) .
C6 C7 C8 C9 -52.6(4) .
C6 C7 C8 C13 120.8(3) .
C7 C2 C3 C4 2.2(5) .
C7 C8 C9 C10 175.6(3) .
C7 C8 C13 C12 -173.2(3) .
C8 C9 C10 C11 -2.4(5) .
C8 C9 C10 C14 -175.9(3) .
C9 C8 C13 C12 0.2(5) .
C9 C10 C11 C12 0.3(5) .
C9 C10 C14 C15 52.1(5) .
C9 C10 C14 C19 -135.1(4) .
C10 C11 C12 C13 2.0(5) .
C10 C11 C12 C22 -174.2(3) .
C10 C14 C15 C16 172.0(3) .
C10 C14 C19 C18 -168.8(3) .
C10 C14 C19 C20 16.8(5) .
C11 C10 C14 C15 -121.4(4) .
C11 C10 C14 C19 51.4(5) .
C11 C12 C13 C8 -2.2(5) .
C11 C12 C22 O3 168.5(3) .
C11 C12 C22 O4 -11.4(5) .
C13 C8 C9 C10 2.2(5) .
C13 C12 C22 O3 -7.7(5) .
C13 C12 C22 O4 172.5(3) .
C14 C10 C11 C12 174.1(3) .
C14 C15 C16 C17 -2.4(5) .
C14 C19 C20 O8 -148.7(6) .
C14 C19 C20 O8A -112.8(11) .
C14 C19 C20 O11 46.8(5) .
C15 C14 C19 C18 4.0(5) .
C15 C14 C19 C20 -170.3(3) .
C15 C16 C17 C18 2.9(5) .
C15 C16 C17 C21 -173.8(3) .
C16 C17 C18 C19 0.1(6) .
C16 C17 C21 O9 165.9(4) .
C16 C17 C21 O10 -11.8(6) .
C17 C18 C19 C14 -3.6(5) .
C17 C18 C19 C20 171.0(3) .
C18 C17 C21 O9 -10.9(6) .
C18 C17 C21 O10 171.4(4) .
C18 C19 C20 O8 36.9(7) .
C18 C19 C20 O8A 72.7(11) .
C18 C19 C20 O11 -127.6(4) .
C19 C14 C15 C16 -1.1(5) .
C21 C17 C18 C19 176.9(3) .
C22 C12 C13 C8 173.9(3) .
C23 C4 C5 C6 179.1(3) .
