#------------------------------------------------------------------------------
#$Date: 2019-11-17 10:57:06 +0200 (Sun, 17 Nov 2019) $
#$Revision: 229459 $
#$URL: file:///home/coder/svn-repositories/cod/cif/7/04/51/7045153.cif $
#------------------------------------------------------------------------------
#
# This file is available in the Crystallography Open Database (COD),
# http://www.crystallography.net/
#
# All data on this site have been placed in the public domain by the
# contributors.
#
data_7045153
loop_
_publ_author_name
'Liu, Fu-Ling'
'Li, Dong'
'Su, Li-Jie'
'Tao, Jun'
_publ_section_title
;
 Reversible three equal-step spin crossover in an iron(ii) Hofmann-type
 metal-organic framework.
;
_journal_issue                   5
_journal_name_full
'Dalton transactions (Cambridge, England : 2003)'
_journal_page_first              1407
_journal_page_last               1411
_journal_paper_doi               10.1039/c7dt04205a
_journal_volume                  47
_journal_year                    2018
_chemical_formula_sum            'C22 Fe N11.5 Pt'
_chemical_formula_weight         676.28
_space_group_crystal_system      orthorhombic
_space_group_IT_number           51
_space_group_name_Hall           '-P 2a 2a'
_space_group_name_H-M_alt        'P m m a'
_symmetry_space_group_name_Hall  '-P 2a 2a'
_symmetry_space_group_name_H-M   'P m m a'
_audit_creation_method           SHELXL-2014/7
_audit_update_record
;
2017-10-21 deposited with the CCDC.
2017-12-22 downloaded from the CCDC.
;
_cell_angle_alpha                90
_cell_angle_beta                 90
_cell_angle_gamma                90
_cell_formula_units_Z            4
_cell_length_a                   27.4940(13)
_cell_length_b                   7.2434(3)
_cell_length_c                   14.3883(9)
_cell_measurement_reflns_used    4059
_cell_measurement_temperature    150(2)
_cell_measurement_theta_max      65.4760
_cell_measurement_theta_min      5.7430
_cell_volume                     2865.4(3)
_computing_structure_refinement  'SHELXL-2014/7 (Sheldrick, 2014)'
_diffrn_ambient_temperature      150(2)
_diffrn_measured_fraction_theta_full 0.973
_diffrn_measured_fraction_theta_max 0.973
_diffrn_measurement_device_type  'SuperNova, Dual, Cu at zero, Atlas'
_diffrn_radiation_type           CuK\a
_diffrn_radiation_wavelength     1.54184
_diffrn_reflns_av_R_equivalents  0.0504
_diffrn_reflns_av_unetI/netI     0.0394
_diffrn_reflns_Laue_measured_fraction_full 0.973
_diffrn_reflns_Laue_measured_fraction_max 0.973
_diffrn_reflns_limit_h_max       31
_diffrn_reflns_limit_h_min       -32
_diffrn_reflns_limit_k_max       5
_diffrn_reflns_limit_k_min       -8
_diffrn_reflns_limit_l_max       10
_diffrn_reflns_limit_l_min       -16
_diffrn_reflns_number            8665
_diffrn_reflns_point_group_measured_fraction_full 0.973
_diffrn_reflns_point_group_measured_fraction_max 0.973
_diffrn_reflns_theta_full        65.939
_diffrn_reflns_theta_max         65.939
_diffrn_reflns_theta_min         3.467
_diffrn_source                   'SuperNova (Cu) X-ray Source'
_exptl_absorpt_coefficient_mu    13.313
_exptl_absorpt_correction_T_max  1.00000
_exptl_absorpt_correction_T_min  0.52755
_exptl_absorpt_correction_type   multi-scan
_exptl_crystal_colour            red
_exptl_crystal_density_diffrn    1.568
_exptl_crystal_description       rodlike
_exptl_crystal_F_000             1266
_exptl_crystal_size_max          0.100
_exptl_crystal_size_mid          0.050
_exptl_crystal_size_min          0.050
_refine_diff_density_max         2.847
_refine_diff_density_min         -2.765
_refine_diff_density_rms         0.291
_refine_ls_extinction_method     none
_refine_ls_goodness_of_fit_ref   1.069
_refine_ls_hydrogen_treatment    undef
_refine_ls_matrix_type           full
_refine_ls_number_parameters     337
_refine_ls_number_reflns         2700
_refine_ls_number_restraints     480
_refine_ls_restrained_S_all      1.001
_refine_ls_R_factor_all          0.0725
_refine_ls_R_factor_gt           0.0675
_refine_ls_shift/su_max          0.051
_refine_ls_shift/su_mean         0.006
_refine_ls_structure_factor_coef Fsqd
_refine_ls_weighting_details
'w=1/[\s^2^(Fo^2^)+(0.1145P)^2^+52.1116P] where P=(Fo^2^+2Fc^2^)/3'
_refine_ls_weighting_scheme      calc
_refine_ls_wR_factor_gt          0.1775
_refine_ls_wR_factor_ref         0.1842
_reflns_Friedel_coverage         0.000
_reflns_number_gt                2441
_reflns_number_total             2700
_reflns_threshold_expression     'I > 2\s(I)'
_cod_data_source_file            c7dt04205a2.cif
_cod_data_source_block           p-150K
_cod_depositor_comments
'Adding full bibliography for 7045151--7045154.cif.'
_cod_original_formula_sum        'C22 Fe N11.50 Pt'
_cod_database_code               7045153
_shelx_shelxl_version_number     2014/7
_shelx_space_group_comment
;
The symmetry employed for this shelxl refinement is uniquely defined
by the following loop, which should always be used as a source of
symmetry information in preference to the above space-group names.
They are only intended as comments.
;
_shelx_estimated_absorpt_t_min   0.349
_shelx_estimated_absorpt_t_max   0.556
_shelx_res_file
;

    p.res created by SHELXL-2014/7


TITL exp_4312_a.res in Pmma
REM Old TITL exp_4312_a.res in Pmma
REM SHELXT solution in Pmma
REM R1 0.129, Rweak 0.004, Alpha 0.018, Orientation as input
REM Formula found by SHELXT: C25 Fe N19 Pt
CELL 1.54184 27.494 7.2434 14.3883 90 90 90
ZERR 4 0.0013 0.0003 0.0009 0 0 0
LATT 1
SYMM 0.5-X,-Y,+Z
SYMM -X,+Y,-Z
SYMM 0.5+X,-Y,-Z
SFAC C Fe N Pt
UNIT 88 4 46 4
SIMU 0.004 0.008 1.7
ISOR 0.01 0.2 N12 C25 C24 N11
EADP N17 C37
EXYZ N17 C37

L.S. 5 0   14
PLAN  40
TEMP -123
size 0.1 0.05 0.05
bond $h
list 4
fmap 2
acta
OMIT 0 1 0
OMIT 6 0 3
OMIT 0 7 9
OMIT 6 0 2
OMIT 4 5 13
OMIT 5 5 13
OMIT 0 3 0
OMIT 1 1 1
OMIT 1 5 12
REM <olex2.extras>
REM <HklSrc "%.\\exp_4312.hkl">
REM </olex2.extras>

ABIN
ACTA
WGHT    0.114500   52.111595
FVAR       0.13607
PT1   4    0.375045    0.500000    0.066445    10.50000    0.01074    0.01498 =
         0.02371    0.00000   -0.00019    0.00000
FE2   2    0.500000    1.000000    0.000000    10.25000    0.00775    0.01732 =
         0.00863    0.00000    0.00242    0.00000
FE1   2    0.250000    0.000000    0.126414    10.25000    0.01846    0.01390 =
         0.00780    0.00000    0.00000    0.00000
N11   3    0.299834    0.196609    0.122851    11.00000    0.02992    0.02673 =
         0.08579    0.00254    0.02512    0.00322
C24   1    0.328023    0.305195    0.103264    11.00000    0.02803    0.02763 =
         0.08314    0.00282    0.02190    0.00660
N12   3    0.448955    0.800556    0.004582    11.00000    0.03273    0.03205 =
         0.09027    0.01319    0.02646    0.00571
C9    1    0.250000    0.000000    0.828441    10.25000    0.02537    0.06157 =
         0.04305    0.00000    0.00000    0.00000
C25   1    0.421058    0.692338    0.026912    11.00000    0.02830    0.02990 =
         0.08150    0.01106    0.02474    0.00829
C4    1    0.250000    0.000000    0.426106    10.25000    0.02293    0.05317 =
         0.03509    0.00000    0.00000    0.00000
C16   1    0.499546    1.000000   -0.301381    10.25000    0.01347    0.03946 =
         0.02380    0.00000    0.00248    0.00000
N1    3    0.264726    0.000000    0.261346    10.25000    0.01986    0.04999 =
         0.03163    0.00000   -0.00122    0.00000
N7    3    0.520041    1.000000   -0.155246    10.25000    0.01475    0.04012 =
         0.02601    0.00000    0.00227    0.00000
N6    3    0.480462    1.000000   -0.131417    10.25000    0.01479    0.03947 =
         0.02696    0.00000    0.00302    0.00000
C12   1    0.329377    0.000000    0.863358    10.25000    0.02371    0.06144 =
         0.04149    0.00000    0.00016    0.00000
C11   1    0.315611    0.000000    0.958730    10.25000    0.02278    0.05972 =
         0.04233    0.00000    0.00089    0.00000
C13   1    0.432471    1.000000   -0.158706    10.25000    0.01500    0.03906 =
         0.02565    0.00000    0.00167    0.00000
N4    3    0.278752    0.000000    0.625344    10.25000    0.02254    0.06204 =
         0.03557    0.00000    0.00056    0.00000
C8    1    0.294656    0.000000    0.793448    10.25000    0.02417    0.06215 =
         0.04070    0.00000    0.00040    0.00000
C1    1    0.311027    0.000000    0.289557    10.25000    0.02012    0.05089 =
         0.03225    0.00000   -0.00040    0.00000
C22   1    0.564898    1.000000   -0.177323    10.25000    0.01485    0.03996 =
         0.02533    0.00000    0.00185    0.00000
N10   3    0.471232    1.000000   -0.492723    10.25000    0.01990    0.05364 =
         0.03021    0.00000   -0.00022    0.00000
C20   1    0.542322    1.000000   -0.338812    10.25000    0.01434    0.03976 =
         0.02381    0.00000    0.00234    0.00000
C21   1    0.579969    1.000000   -0.271554    10.25000    0.01501    0.04074 =
         0.02532    0.00000    0.00137    0.00000
C14   1    0.419545    1.000000   -0.250655    10.25000    0.01519    0.04014 =
         0.02505    0.00000    0.00143    0.00000
C3    1    0.293157    0.000000    0.454457    10.25000    0.02204    0.05526 =
         0.03453    0.00000    0.00025    0.00000
C7    1    0.308295    0.000000    0.695903    10.25000    0.02349    0.06405 =
         0.03805    0.00000    0.00055    0.00000
C23   1    0.484234    1.000000   -0.215685    10.25000    0.01504    0.04024 =
         0.02599    0.00000    0.00214    0.00000
C2    1    0.325702    0.000000    0.381070    10.25000    0.02122    0.05270 =
         0.03295    0.00000    0.00008    0.00000
N3    3    0.354109    0.000000    0.671207    10.25000    0.02508    0.06750 =
         0.03814    0.00000    0.00128    0.00000
C18   1    0.440327    1.000000   -0.418191    10.25000    0.01874    0.05067 =
         0.02874    0.00000   -0.00004    0.00000
C6    1    0.306469    0.000000    0.552745    10.25000    0.02244    0.06112 =
         0.03561    0.00000    0.00078    0.00000
C5    1    0.269198    0.000000    0.326185    10.25000    0.02011    0.05099 =
         0.03308    0.00000   -0.00049    0.00000
C19   1    0.438320    1.000000   -0.561921    10.25000    0.02105    0.05559 =
         0.03114    0.00000   -0.00239    0.00000
C10   1    0.265846    0.000000    0.927776    10.50000    0.02529    0.06097 =
         0.04542    0.00000    0.00136    0.00000
C15   1    0.455475    1.000000   -0.319487    10.25000    0.01577    0.04232 =
         0.02578    0.00000    0.00124    0.00000
C17   1    0.513742    1.000000   -0.202451    10.25000    0.01466    0.03985 =
         0.02575    0.00000    0.00224    0.00000
N5    3    0.271788    0.000000    0.986490    10.25000    0.02190    0.05897 =
         0.04155    0.00000    0.00120    0.00000
C31   1    0.415606   -0.500000    0.407155    10.25000    0.06722    0.06185 =
         0.06318    0.00000   -0.00201    0.00000
C33   1    0.250000   -0.500000    0.511598    10.25000    0.07008    0.06301 =
         0.06415    0.00000    0.00000    0.00000
C35   1    0.250000   -0.500000    0.345235    10.25000    0.07194    0.06385 =
         0.06444    0.00000    0.00000    0.00000
N17   3    0.323710   -0.500000    0.427334    10.25000    0.07026    0.06352 =
         0.06476    0.00000    0.00181    0.00000
C37   1    0.323710   -0.500000    0.427334    10.25000    0.07026    0.06352 =
         0.06476    0.00000    0.00181    0.00000
C36   1    0.286111   -0.500000    0.340573    10.25000    0.07032    0.06313 =
         0.06432    0.00000    0.00106    0.00000
C30   1    0.505246   -0.500000    0.232375    10.25000    0.06835    0.06366 =
         0.06764    0.00000   -0.00620    0.00000
C34   1    0.281433   -0.500000    0.435283    10.25000    0.07026    0.06315 =
         0.06429    0.00000    0.00086    0.00000
N16   3    0.369239   -0.500000    0.376965    10.25000    0.06909    0.06283 =
         0.06400    0.00000    0.00062    0.00000
C32   1    0.297826   -0.500000    0.497508    10.25000    0.06998    0.06336 =
         0.06431    0.00000    0.00133    0.00000
N15   3    0.356525   -0.500000    0.524758    10.25000    0.06958    0.06412 =
         0.06470    0.00000    0.00117    0.00000
N14   3    0.408256   -0.500000    0.514667    10.25000    0.06860    0.06369 =
         0.06422    0.00000   -0.00056    0.00000
C27   1    0.499160   -0.500000    0.419334    10.25000    0.06821    0.06393 =
         0.06737    0.00000   -0.00511    0.00000
N13   3    0.543984   -0.500000    0.278313    10.25000    0.06892    0.06496 =
         0.06891    0.00000   -0.00525    0.00000
C26   1    0.540591   -0.500000    0.372610    10.25000    0.06896    0.06504 =
         0.06872    0.00000   -0.00521    0.00000
C29   1    0.457408   -0.500000    0.275544    10.25000    0.06853    0.06263 =
         0.06673    0.00000   -0.00623    0.00000
C28   1    0.453463   -0.500000    0.377009    10.25000    0.06824    0.06259 =
         0.06572    0.00000   -0.00490    0.00000
N9    3    0.394825    1.000000   -0.544899    10.25000    0.02093    0.05658 =
         0.03110    0.00000   -0.00266    0.00000
N8    3    0.395900    1.000000   -0.451040    10.25000    0.02044    0.05519 =
         0.03027    0.00000   -0.00132    0.00000
N2    3    0.351233    0.000000    0.579325    10.25000    0.02426    0.06627 =
         0.03732    0.00000    0.00144    0.00000
HKLF 4

REM  exp_4312_a.res in Pmma
REM R1 =  0.0675 for    2441 Fo > 4sig(Fo)  and  0.0725 for all    2700 data
REM    337 parameters refined using    480 restraints

END

WGHT      0.1133     53.6720

REM Highest difference peak  2.847,  deepest hole -2.765,  1-sigma level  0.291
Q1    1   0.3165 -0.1468  0.6422  11.00000  0.05    2.71
Q2    1   0.4314  1.1408 -0.5193  11.00000  0.05    2.66
Q3    1   0.3757  0.5000  0.1199  10.50000  0.05    2.15
Q4    1   0.3742  0.5000  0.0096  10.50000  0.05    1.93
Q5    1   0.5526 -0.5000  0.1975  10.50000  0.05    1.92
Q6    1   0.2500  0.0000  0.0662  10.25000  0.05    1.81
Q7    1   0.3746  0.3741  0.0662  11.00000  0.05    1.60
Q8    1   0.4118  0.5842  0.0661  11.00000  0.05    1.48
Q9    1   0.3343  0.4331  0.0709  11.00000  0.05    1.35
Q10   1   0.2500  0.0000  0.2846  10.25000  0.05    1.34
Q11   1   0.3980  0.3655  0.1268  11.00000  0.05    1.19
Q12   1   0.2500  0.0000  0.1693  10.25000  0.05    1.18
Q13   1   0.3532  0.3593  0.1261  11.00000  0.05    1.15
Q14   1   0.3435 -0.5000  0.4615  10.50000  0.05    1.14
Q15   1   0.4350 -0.5000  0.3094  10.50000  0.05    1.11
Q16   1   0.4445  0.7953 -0.0411  11.00000  0.05    1.06
Q17   1   0.2992  0.1961  0.0818  11.00000  0.05    1.04
Q18   1   0.4667 -0.5000  0.3537  10.50000  0.05    1.01
Q19   1   0.4532  0.8140  0.0452  11.00000  0.05    0.98
Q20   1   0.5908  1.0000 -0.1334  10.50000  0.05    0.97
Q21   1   0.3087  0.1963  0.1657  11.00000  0.05    0.96
Q22   1   0.3535  0.3591  0.0111  11.00000  0.05    0.94
Q23   1   0.3993  0.6473  0.0078  11.00000  0.05    0.93
Q24   1   0.2500 -0.5000  0.5857  10.25000  0.05    0.90
Q25   1   0.3487 -0.1000  0.5728  11.00000  0.05    0.89
Q26   1   0.4707 -0.5000  0.2743  10.50000  0.05    0.82
Q27   1   0.3289  0.2999  0.1426  11.00000  0.05    0.82
Q28   1   0.2803  0.0000  0.7886  10.50000  0.05    0.80
Q29   1   0.3825  1.0000 -0.2605  10.50000  0.05    0.80
Q30   1   0.4163  1.0000 -0.0880  10.50000  0.05    0.80
Q31   1   0.2930  0.0597  0.1285  11.00000  0.05    0.78
Q32   1   0.3587  0.0000  0.2205  10.50000  0.05    0.78
Q33   1   0.3857  0.7584 -0.0443  11.00000  0.05    0.76
Q34   1   0.3415  0.0000  1.0081  10.50000  0.05    0.76
Q35   1   0.2734  0.0000  0.4432  10.50000  0.05    0.76
Q36   1   0.3870  0.2529  0.1762  11.00000  0.05    0.76
Q37   1   0.3605  0.7559 -0.0443  11.00000  0.05    0.76
Q38   1   0.2500  0.0000  0.6703  10.25000  0.05    0.76
Q39   1   0.3785  0.7901 -0.0242  11.00000  0.05    0.75
Q40   1   0.4221  0.5000  0.0175  10.50000  0.05    0.73
;
_shelx_res_checksum              49005
_shelx_fab_file
;
    4    0    0      8.11      0.00
    6    0    0     -4.43      0.00
    8    0    0     16.27      0.00
   10    0    0     -8.84      0.00
   12    0    0      5.35      0.00
   14    0    0     -7.28      0.00
   16    0    0      2.62      0.00
   18    0    0     -0.09      0.00
   20    0    0     -0.49      0.00
   22    0    0      5.85      0.00
   24    0    0     -7.31      0.00
   26    0    0      1.47      0.00
   28    0    0      1.60      0.00
   30    0    0      1.07      0.00
   32    0    0     -3.56      0.00
    1    0    1     80.74      0.00
    2    0    1    -22.66      0.00
    3    0    1    -21.38      0.00
    4    0    1     13.29      0.00
    5    0    1     -7.68      0.00
    6    0    1    -17.00      0.00
    7    0    1     -5.86      0.00
    8    0    1     12.91      0.00
    9    0    1     10.77      0.00
   10    0    1     -1.24      0.00
   11    0    1     -4.76      0.00
   12    0    1      0.02      0.00
   13    0    1      5.08      0.00
   14    0    1     -2.78      0.00
   15    0    1     -3.68      0.00
   16    0    1     -0.19      0.00
   17    0    1      0.20      0.00
   18    0    1      1.76      0.00
   19    0    1     -0.44      0.00
   20    0    1     -0.49      0.00
   21    0    1     -2.38      0.00
   22    0    1      1.22      0.00
   23    0    1      6.86      0.00
   24    0    1     -1.89      0.00
   25    0    1     -4.00      0.00
   26    0    1      1.21      0.00
   27    0    1     -1.57      0.00
   28    0    1     -1.48      0.00
   29    0    1      1.52      0.00
   30    0    1      2.27      0.00
   31    0    1      1.63      0.00
   32    0    1     -2.45      0.00
    0    0    2    -49.24      0.00
    1    0    2     29.15      0.00
    2    0    2     23.16      0.00
    3    0    2    -12.42      0.00
    4    0    2     13.81      0.00
    5    0    2     15.15      0.00
    7    0    2    -21.83      0.00
    8    0    2     -2.16      0.00
    9    0    2      7.52      0.00
   10    0    2      6.34      0.00
   11    0    2      3.06      0.00
   12    0    2     -3.22      0.00
   13    0    2      1.59      0.00
   14    0    2      1.32      0.00
   15    0    2     -0.86      0.00
   16    0    2     -0.30      0.00
   17    0    2     -3.95      0.00
   18    0    2      1.20      0.00
   19    0    2      1.88      0.00
   20    0    2     -0.86      0.00
   21    0    2     -0.35      0.00
   22    0    2     -3.27      0.00
   23    0    2      2.28      0.00
   24    0    2      4.40      0.00
   25    0    2     -1.92      0.00
   26    0    2      0.27      0.00
   27    0    2      1.00      0.00
   28    0    2     -3.15      0.00
   29    0    2     -1.87      0.00
   30    0    2      0.96      0.00
   31    0    2      2.54      0.00
   32    0    2      0.97      0.00
    0    0    3    -11.49      0.00
    1    0    3    -18.26      0.00
    2    0    3      3.06      0.00
    3    0    3     -4.14      0.00
    4    0    3     -1.80      0.00
    5    0    3     19.59      0.00
    7    0    3    -10.89      0.00
    8    0    3    -14.11      0.00
    9    0    3     -4.67      0.00
   10    0    3     -1.04      0.00
   11    0    3      6.48      0.00
   12    0    3      1.82      0.00
   13    0    3     -0.16      0.00
   14    0    3      1.23      0.00
   15    0    3     -0.89      0.00
   16    0    3      3.74      0.00
   17    0    3     -2.34      0.00
   18    0    3     -3.62      0.00
   19    0    3      3.12      0.00
   20    0    3     -1.17      0.00
   21    0    3     -0.13      0.00
   22    0    3      0.33      0.00
   23    0    3     -2.81      0.00
   24    0    3      1.58      0.00
   25    0    3      1.43      0.00
   26    0    3     -0.47      0.00
   27    0    3      1.93      0.00
   28    0    3      0.46      0.00
   29    0    3     -1.43      0.00
   30    0    3     -1.63      0.00
   31    0    3     -1.22      0.00
    0    0    4     14.48      0.00
    1    0    4      5.30      0.00
    2    0    4     -7.88      0.00
    3    0    4     -4.50      0.00
    4    0    4     -8.07      0.00
    5    0    4     -7.65      0.00
    6    0    4     15.49      0.00
    7    0    4     14.62      0.00
    8    0    4     -3.15      0.00
    9    0    4     -5.00      0.00
   10    0    4     -7.78      0.00
   11    0    4     -1.59      0.00
   12    0    4      2.00      0.00
   13    0    4     -0.56      0.00
   14    0    4      3.42      0.00
   15    0    4     -1.65      0.00
   16    0    4      1.10      0.00
   17    0    4      3.70      0.00
   18    0    4     -4.03      0.00
   19    0    4      1.23      0.00
   20    0    4      1.27      0.00
   21    0    4     -3.48      0.00
   22    0    4      1.72      0.00
   23    0    4      0.33      0.00
   24    0    4     -2.16      0.00
   25    0    4      0.75      0.00
   26    0    4      0.17      0.00
   27    0    4     -0.28      0.00
   28    0    4      0.63      0.00
   29    0    4      1.66      0.00
   30    0    4      1.75      0.00
    0    0    5     -8.07      0.00
    1    0    5     11.00      0.00
    2    0    5      4.56      0.00
    3    0    5     -2.45      0.00
    4    0    5      4.57      0.00
    5    0    5    -10.56      0.00
    6    0    5    -10.96      0.00
    7    0    5      9.35      0.00
    8    0    5      6.99      0.00
    9    0    5      3.80      0.00
   10    0    5     -0.29      0.00
   11    0    5     -4.27      0.00
   12    0    5     -0.68      0.00
   13    0    5     -4.46      0.00
   14    0    5      1.06      0.00
   15    0    5      2.85      0.00
   16    0    5     -2.89      0.00
   17    0    5      2.92      0.00
   18    0    5      0.34      0.00
   19    0    5     -1.54      0.00
   20    0    5      3.46      0.00
   21    0    5     -1.58      0.00
   22    0    5     -1.96      0.00
   23    0    5      1.84      0.00
   24    0    5     -0.81      0.00
   25    0    5     -0.68      0.00
   26    0    5      0.80      0.00
   27    0    5     -0.46      0.00
   28    0    5     -1.55      0.00
   29    0    5     -0.59      0.00
   30    0    5      3.55      0.00
    0    0    6     -8.14      0.00
    1    0    6     -4.32      0.00
    2    0    6      5.37      0.00
    3    0    6     -3.81      0.00
    4    0    6      3.35      0.00
    5    0    6      8.80      0.00
    6    0    6     -7.96      0.00
    7    0    6     -6.20      0.00
    8    0    6     -0.60      0.00
    9    0    6      1.47      0.00
   10    0    6      6.12      0.00
   11    0    6      1.02      0.00
   12    0    6      1.62      0.00
   13    0    6     -1.90      0.00
   14    0    6     -5.54      0.00
   15    0    6      2.50      0.00
   16    0    6     -0.24      0.00
   17    0    6     -1.58      0.00
   18    0    6      2.34      0.00
   19    0    6     -1.10      0.00
   20    0    6      0.33      0.00
   21    0    6      1.85      0.00
   22    0    6     -0.59      0.00
   23    0    6     -0.03      0.00
   24    0    6     -0.51      0.00
   25    0    6     -0.35      0.00
   26    0    6      0.94      0.00
   27    0    6     -0.12      0.00
   28    0    6     -0.75      0.00
   29    0    6     -1.70      0.00
    0    0    7      2.26      0.00
    1    0    7     -3.07      0.00
    2    0    7      2.92      0.00
    3    0    7      0.21      0.00
    4    0    7     -9.38      0.00
    5    0    7      3.61      0.00
    6    0    7      8.21      0.00
    7    0    7     -0.36      0.00
    8    0    7     -4.38      0.00
    9    0    7     -5.95      0.00
   10    0    7      1.61      0.00
   11    0    7      2.36      0.00
   12    0    7      1.12      0.00
   13    0    7      4.93      0.00
   14    0    7     -2.26      0.00
   15    0    7     -2.96      0.00
   16    0    7      1.41      0.00
   17    0    7     -2.01      0.00
   18    0    7     -0.19      0.00
   19    0    7      1.75      0.00
   20    0    7     -0.96      0.00
   21    0    7     -0.92      0.00
   22    0    7      1.25      0.00
   23    0    7      1.66      0.00
   24    0    7     -1.24      0.00
   25    0    7     -1.00      0.00
   26    0    7      2.22      0.00
   27    0    7     -0.05      0.00
   28    0    7     -1.86      0.00
    0    0    8     -2.57      0.00
    1    0    8     -0.59      0.00
    2    0    8      2.29      0.00
    3    0    8      8.37      0.00
    4    0    8     -2.82      0.00
    5    0    8    -10.65      0.00
    6    0    8      2.34      0.00
    7    0    8      7.31      0.00
    8    0    8      1.52      0.00
    9    0    8     -4.79      0.00
   10    0    8     -2.15      0.00
   11    0    8      1.48      0.00
   12    0    8     -3.22      0.00
   13    0    8      1.82      0.00
   14    0    8      5.04      0.00
   15    0    8     -1.48      0.00
   16    0    8     -0.48      0.00
   17    0    8      0.13      0.00
   18    0    8     -2.32      0.00
   19    0    8      0.27      0.00
   20    0    8      1.76      0.00
   21    0    8     -1.25      0.00
   22    0    8     -1.46      0.00
   23    0    8      2.11      0.00
   24    0    8      0.26      0.00
   25    0    8     -2.62      0.00
   26    0    8      2.14      0.00
   27    0    8      3.18      0.00
    0    0    9     -3.98      0.00
    1    0    9     -6.25      0.00
    2    0    9     -1.95      0.00
    3    0    9      5.09      0.00
    4    0    9      8.57      0.00
    5    0    9     -4.28      0.00
    6    0    9     -6.51      0.00
    7    0    9      2.94      0.00
    8    0    9      3.62      0.00
    9    0    9     -1.59      0.00
   10    0    9     -2.32      0.00
   11    0    9      2.95      0.00
   12    0    9     -1.01      0.00
   13    0    9     -4.73      0.00
   14    0    9      2.33      0.00
   15    0    9      2.52      0.00
   16    0    9     -0.42      0.00
   17    0    9      1.22      0.00
   18    0    9     -0.01      0.00
   19    0    9     -2.12      0.00
   20    0    9     -0.27      0.00
   21    0    9      1.13      0.00
   22    0    9     -0.61      0.00
   23    0    9      0.32      0.00
   24    0    9      0.84      0.00
   25    0    9     -2.76      0.00
   26    0    9     -1.00      0.00
    0    0   10      5.67      0.00
    1    0   10     -5.67      0.00
    2    0   10     -5.74      0.00
    3    0   10     -2.54      0.00
    4    0   10      4.76      0.00
    5    0   10      3.86      0.00
    6    0   10     -2.82      0.00
    7    0   10     -0.01      0.00
    8    0   10      2.49      0.00
    9    0   10     -0.18      0.00
   10    0   10     -3.65      0.00
   11    0   10      0.40      0.00
   12    0   10      3.86      0.00
   13    0   10     -2.07      0.00
   14    0   10     -2.40      0.00
   15    0   10      0.85      0.00
   16    0   10     -0.01      0.00
   17    0   10      0.40      0.00
   18    0   10      1.96      0.00
   19    0   10      1.00      0.00
   20    0   10     -1.99      0.00
   21    0   10     -1.71      0.00
   22    0   10      0.62      0.00
   23    0   10      1.55      0.00
   24    0   10      1.03      0.00
    0    0   11      7.12      0.00
    1    0   11      3.71      0.00
    2    0   11     -3.03      0.00
    3    0   11     -4.84      0.00
    4    0   11     -0.99      0.00
    5    0   11      1.74      0.00
    6    0   11     -1.16      0.00
    7    0   11      0.68      0.00
    8    0   11      2.46      0.00
    9    0   11      2.31      0.00
   10    0   11     -1.21      0.00
   11    0   11     -4.28      0.00
   12    0   11      1.28      0.00
   13    0   11      2.30      0.00
   14    0   11     -0.74      0.00
   15    0   11     -0.55      0.00
   16    0   11     -0.77      0.00
   17    0   11     -0.75      0.00
   18    0   11     -0.13      0.00
   19    0   11      2.39      0.00
   20    0   11      2.01      0.00
   21    0   11     -2.40      0.00
   22    0   11     -2.44      0.00
   23    0   11      1.39      0.00
    0    0   12     -2.47      0.00
    1    0   12      4.23      0.00
    2    0   12      4.02      0.00
    3    0   12     -2.67      0.00
    4    0   12     -2.47      0.00
    5    0   12      1.82      0.00
    6    0   12     -2.73      0.00
    7    0   12     -1.75      0.00
    8    0   12      1.36      0.00
    9    0   12      1.83      0.00
   10    0   12      3.66      0.00
   11    0   12     -2.05      0.00
   12    0   12     -3.09      0.00
   13    0   12      1.22      0.00
   14    0   12      0.60      0.00
   15    0   12      0.32      0.00
   16    0   12     -0.23      0.00
   17    0   12     -0.33      0.00
   18    0   12     -1.10      0.00
   19    0   12     -0.80      0.00
   20    0   12      2.68      0.00
   21    0   12      1.33      0.00
   22    0   12     -2.45      0.00
    0    0   13     -1.70      0.00
    1    0   13     -2.86      0.00
    2    0   13      3.51      0.00
    3    0   13      2.00      0.00
    4    0   13     -4.09      0.00
    5    0   13      2.46      0.00
    6    0   13      0.77      0.00
    7    0   13     -3.53      0.00
    8    0   13      0.17      0.00
    9    0   13     -1.25      0.00
   10    0   13      2.35      0.00
   11    0   13      2.81      0.00
   12    0   13     -2.52      0.00
   13    0   13     -0.22      0.00
   14    0   13      0.51      0.00
   15    0   13     -0.36      0.00
   16    0   13     -0.10      0.00
   17    0   13      0.15      0.00
   18    0   13      0.47      0.00
   19    0   13     -1.28      0.00
   20    0   13     -0.14      0.00
    0    0   14      3.45      0.00
    1    0   14      0.11      0.00
    2    0   14     -1.37      0.00
    3    0   14      3.74      0.00
    4    0   14     -2.57      0.00
    5    0   14     -1.73      0.00
    6    0   14      3.02      0.00
    7    0   14     -1.96      0.00
    8    0   14      0.71      0.00
    9    0   14     -0.43      0.00
   10    0   14     -2.17      0.00
   11    0   14      2.96      0.00
   12    0   14     -0.20      0.00
   13    0   14     -1.27      0.00
   14    0   14      1.39      0.00
   15    0   14      0.24      0.00
   16    0   14     -0.72      0.00
   17    0   14     -0.80      0.00
   18    0   14      0.52      0.00
    0    0   15     -2.50      0.00
    1    0   15      3.70      0.00
    2    0   15     -0.16      0.00
    3    0   15      1.84      0.00
    4    0   15      1.94      0.00
    5    0   15     -2.79      0.00
    6    0   15      0.44      0.00
    7    0   15     -1.71      0.00
    8    0   15     -0.12      0.00
    9    0   15      3.04      0.00
   10    0   15     -2.55      0.00
   11    0   15      0.06      0.00
   12    0   15      2.02      0.00
   13    0   15     -1.89      0.00
   14    0   15     -0.43      0.00
    0    0   16     -5.24      0.00
    1    0   16     -1.26      0.00
    2    0   16      1.13      0.00
    3    0   16     -0.36      0.00
    4    0   16      2.92      0.00
    5    0   16      1.14      0.00
    6    0   16      0.30      0.00
    7    0   16     -1.89      0.00
    8    0   16     -3.10      0.00
    2    1    0     53.93      0.00
    4    1    0     -5.88      0.00
    6    1    0      2.33      0.00
    8    1    0    -11.19      0.00
   10    1    0      6.62      0.00
   12    1    0     -5.22      0.00
   14    1    0      5.83      0.00
   16    1    0     -0.87      0.00
   18    1    0     -0.74      0.00
   20    1    0      0.77      0.00
   22    1    0     -5.67      0.00
   24    1    0      7.10      0.00
   26    1    0     -1.73      0.00
   28    1    0     -1.47      0.00
   30    1    0     -0.48      0.00
   32    1    0      2.58      0.00
   32    1    1      1.76      0.00
   31    1    1     -1.05      0.00
   30    1    1     -1.76      0.00
   29    1    1     -1.50      0.00
   28    1    1      1.14      0.00
   27    1    1      1.08      0.00
   26    1    1     -1.04      0.00
   25    1    1      4.07      0.00
   24    1    1      1.92      0.00
   23    1    1     -6.46      0.00
   22    1    1     -1.39      0.00
   21    1    1      2.25      0.00
   20    1    1      0.48      0.00
   19    1    1      0.15      0.00
   18    1    1     -1.72      0.00
   17    1    1      0.52      0.00
   16    1    1      0.95      0.00
   15    1    1      2.78      0.00
   14    1    1      1.78      0.00
   13    1    1     -5.22      0.00
   12    1    1      0.10      0.00
   11    1    1      4.82      0.00
   10    1    1      0.03      0.00
    9    1    1     -8.28      0.00
    8    1    1     -8.94      0.00
    7    1    1      4.02      0.00
    6    1    1     13.41      0.00
    5    1    1      6.22      0.00
    4    1    1    -11.10      0.00
    3    1    1     17.06      0.00
    2    1    1     17.24      0.00
    0    1    1    -24.10      0.00
   31    1    2     -2.04      0.00
   30    1    2     -1.10      0.00
   29    1    2      1.58      0.00
   28    1    2      2.58      0.00
   27    1    2     -0.83      0.00
   26    1    2      0.28      0.00
   25    1    2      1.83      0.00
   24    1    2     -4.14      0.00
   23    1    2     -2.31      0.00
   22    1    2      2.78      0.00
   21    1    2      0.31      0.00
   20    1    2      0.82      0.00
   19    1    2     -1.30      0.00
   18    1    2     -0.95      0.00
   17    1    2      3.59      0.00
   16    1    2      0.50      0.00
   15    1    2      0.33      0.00
   14    1    2     -2.09      0.00
   13    1    2     -1.94      0.00
   12    1    2      3.90      0.00
   11    1    2     -2.01      0.00
   10    1    2     -6.06      0.00
    9    1    2     -5.37      0.00
    8    1    2      2.35      0.00
    7    1    2     17.75      0.00
    6    1    2     11.28      0.00
    5    1    2    -14.34      0.00
    4    1    2    -10.88      0.00
    3    1    2     11.58      0.00
    2    1    2    -19.65      0.00
    1    1    2    -22.74      0.00
    0    1    2     41.23      0.00
   32    1    2     -0.66      0.00
   31    1    3      0.48      0.00
   30    1    3      1.51      0.00
   29    1    3      1.54      0.00
   28    1    3     -0.55      0.00
   27    1    3     -1.30      0.00
   26    1    3      0.51      0.00
   25    1    3     -1.68      0.00
   24    1    3     -1.44      0.00
   23    1    3      2.42      0.00
   22    1    3     -0.40      0.00
   21    1    3      0.21      0.00
   20    1    3      1.44      0.00
   19    1    3     -2.45      0.00
   18    1    3      2.79      0.00
   17    1    3      2.02      0.00
   16    1    3     -3.15      0.00
   15    1    3      0.19      0.00
   14    1    3     -1.71      0.00
   13    1    3      0.33      0.00
   12    1    3     -0.19      0.00
   11    1    3     -5.05      0.00
   10    1    3      0.22      0.00
    9    1    3      3.86      0.00
    8    1    3     12.17      0.00
    7    1    3      9.13      0.00
    6    1    3    -15.70      0.00
    5    1    3    -17.31      0.00
    4    1    3      4.58      0.00
    3    1    3      4.19      0.00
    2    1    3     -4.07      0.00
    1    1    3     16.01      0.00
    0    1    3      9.74      0.00
   31    1    4      2.10      0.00
   30    1    4     -0.69      0.00
   29    1    4     -1.64      0.00
   28    1    4     -0.63      0.00
   27    1    4      0.54      0.00
   26    1    4     -0.66      0.00
   25    1    4     -0.73      0.00
   24    1    4      2.21      0.00
   23    1    4     -0.51      0.00
   22    1    4     -1.50      0.00
   21    1    4      3.30      0.00
   20    1    4     -0.93      0.00
   19    1    4     -1.05      0.00
   18    1    4      3.28      0.00
   17    1    4     -3.42      0.00
   16    1    4     -1.24      0.00
   15    1    4      1.35      0.00
   14    1    4     -2.89      0.00
   13    1    4      0.85      0.00
   12    1    4     -0.52      0.00
   11    1    4      1.23      0.00
   10    1    4      5.23      0.00
    9    1    4      4.31      0.00
    8    1    4      3.40      0.00
    7    1    4    -13.22      0.00
    6    1    4    -14.48      0.00
    5    1    4      7.92      0.00
    4    1    4      8.97      0.00
    3    1    4      2.73      0.00
    2    1    4      5.88      0.00
    1    1    4     -4.11      0.00
    0    1    4    -12.76      0.00
   30    1    5     -3.06      0.00
   29    1    5     -0.11      0.00
   28    1    5      1.85      0.00
   27    1    5      0.27      0.00
   26    1    5     -1.17      0.00
   25    1    5      1.05      0.00
   24    1    5      0.68      0.00
   23    1    5     -1.88      0.00
   22    1    5      2.02      0.00
   21    1    5      1.34      0.00
   20    1    5     -2.91      0.00
   19    1    5      1.65      0.00
   18    1    5     -0.87      0.00
   17    1    5     -3.17      0.00
   16    1    5      2.82      0.00
   15    1    5     -1.80      0.00
   14    1    5     -0.96      0.00
   13    1    5      3.94      0.00
   12    1    5      1.13      0.00
   11    1    5      2.77      0.00
   10    1    5     -0.33      0.00
    9    1    5     -2.53      0.00
    8    1    5     -6.40      0.00
    7    1    5     -8.42      0.00
    6    1    5      9.99      0.00
    5    1    5      9.68      0.00
    4    1    5     -3.59      0.00
    3    1    5      1.86      0.00
    2    1    5     -4.49      0.00
    1    1    5    -10.33      0.00
    0    1    5      7.25      0.00
   29    1    6      1.85      0.00
   28    1    6      1.23      0.00
   27    1    6     -0.62      0.00
   26    1    6     -0.87      0.00
   25    1    6      0.65      0.00
   24    1    6      0.15      0.00
   23    1    6      0.21      0.00
   22    1    6      0.71      0.00
   21    1    6     -1.86      0.00
   20    1    6      0.19      0.00
   19    1    6      0.80      0.00
   18    1    6     -3.11      0.00
   17    1    6      1.60      0.00
   16    1    6      1.12      0.00
   15    1    6     -1.90      0.00
   14    1    6      4.39      0.00
   13    1    6      1.47      0.00
   12    1    6     -1.36      0.00
   11    1    6     -1.13      0.00
   10    1    6     -4.91      0.00
    9    1    6     -1.88      0.00
    8    1    6     -0.03      0.00
    7    1    6      7.02      0.00
    6    1    6      6.77      0.00
    5    1    6     -8.52      0.00
    4    1    6     -1.82      0.00
    3    1    6      3.12      0.00
    2    1    6     -6.14      0.00
    1    1    6      3.77      0.00
    0    1    6      8.55      0.00
   30    1    6     -0.44      0.00
   29    1    7      0.56      0.00
   28    1    7      1.14      0.00
   27    1    7     -0.63      0.00
   26    1    7     -1.57      0.00
   25    1    7      1.00      0.00
   24    1    7      1.08      0.00
   23    1    7     -1.13      0.00
   22    1    7     -1.29      0.00
   21    1    7      0.77      0.00
   20    1    7      1.11      0.00
   19    1    7     -2.35      0.00
   18    1    7      0.04      0.00
   17    1    7      2.64      0.00
   16    1    7     -1.09      0.00
   15    1    7      2.58      0.00
   14    1    7      1.54      0.00
   13    1    7     -4.63      0.00
   12    1    7     -0.65      0.00
   11    1    7     -1.79      0.00
   10    1    7     -1.75      0.00
    9    1    7      4.18      0.00
    8    1    7      5.14      0.00
    7    1    7      1.58      0.00
    6    1    7     -9.09      0.00
    5    1    7     -3.02      0.00
    4    1    7      9.36      0.00
    3    1    7     -1.26      0.00
    2    1    7     -2.91      0.00
    1    1    7      3.23      0.00
    0    1    7     -1.79      0.00
   28    1    8      1.69      0.00
   27    1    8     -2.61      0.00
   26    1    8     -1.48      0.00
   25    1    8      2.34      0.00
   24    1    8     -0.11      0.00
   23    1    8     -1.82      0.00
   22    1    8      1.00      0.00
   21    1    8      1.15      0.00
   20    1    8     -1.78      0.00
   19    1    8     -0.56      0.00
   18    1    8      2.79      0.00
   17    1    8     -0.05      0.00
   16    1    8      0.29      0.00
   15    1    8      1.56      0.00
   14    1    8     -5.16      0.00
   13    1    8     -1.60      0.00
   12    1    8      3.26      0.00
   11    1    8     -1.40      0.00
   10    1    8      1.62      0.00
    9    1    8      4.23      0.00
    8    1    8     -0.15      0.00
    7    1    8     -7.01      0.00
    6    1    8     -3.20      0.00
    5    1    8     10.51      0.00
    4    1    8      2.44      0.00
    3    1    8     -7.89      0.00
    2    1    8     -2.08      0.00
    1    1    8     -0.04      0.00
    0    1    8      2.96      0.00
   26    1    9      0.89      0.00
   25    1    9      2.46      0.00
   24    1    9     -0.72      0.00
   23    1    9     -0.38      0.00
   22    1    9      0.34      0.00
   21    1    9     -1.08      0.00
   20    1    9      0.06      0.00
   19    1    9      2.30      0.00
   18    1    9      0.43      0.00
   17    1    9     -1.53      0.00
   16    1    9      0.61      0.00
   15    1    9     -2.50      0.00
   14    1    9     -2.63      0.00
   13    1    9      4.75      0.00
   12    1    9      0.87      0.00
   11    1    9     -2.37      0.00
   10    1    9      2.17      0.00
    9    1    9      1.01      0.00
    8    1    9     -2.88      0.00
    7    1    9     -3.01      0.00
    6    1    9      5.91      0.00
    5    1    9      4.26      0.00
    4    1    9     -8.22      0.00
    3    1    9     -4.75      0.00
    2    1    9      1.31      0.00
    1    1    9      6.27      0.00
    0    1    9      4.90      0.00
   25    1   10      1.65      0.00
   24    1   10     -1.00      0.00
   23    1   10     -1.47      0.00
   22    1   10     -0.73      0.00
   21    1   10      1.45      0.00
   20    1   10      1.94      0.00
   19    1   10     -0.32      0.00
   18    1   10     -1.86      0.00
   17    1   10     -0.83      0.00
   16    1   10     -0.01      0.00
   15    1   10     -1.12      0.00
   14    1   10      2.62      0.00
   13    1   10      2.16      0.00
   12    1   10     -3.72      0.00
   11    1   10      0.17      0.00
   10    1   10      2.61      0.00
    9    1   10     -0.15      0.00
    8    1   10     -1.55      0.00
    7    1   10     -0.24      0.00
    6    1   10      2.72      0.00
    5    1   10     -3.72      0.00
    4    1   10     -4.93      0.00
    3    1   10      2.49      0.00
    2    1   10      5.89      0.00
    1    1   10      6.10      0.00
    0    1   10     -5.91      0.00
   24    1   11     -2.29      0.00
   23    1   11     -1.22      0.00
   22    1   11      2.10      0.00
   21    1   11      2.20      0.00
   20    1   11     -1.49      0.00
   19    1   11     -1.80      0.00
   18    1   11     -0.46      0.00
   17    1   11      0.20      0.00
   16    1   11      0.85      0.00
   15    1   11      0.93      0.00
   14    1   11      1.17      0.00
   13    1   11     -2.64      0.00
   12    1   11     -1.24      0.00
   11    1   11      4.01      0.00
   10    1   11      0.58      0.00
    9    1   11     -1.46      0.00
    8    1   11     -2.30      0.00
    7    1   11     -0.99      0.00
    6    1   11      1.46      0.00
    5    1   11     -2.21      0.00
    4    1   11      0.92      0.00
    3    1   11      5.30      0.00
    2    1   11      3.16      0.00
    1    1   11     -3.83      0.00
    0    1   11     -7.51      0.00
   22    1   12      2.13      0.00
   21    1   12     -1.27      0.00
   20    1   12     -2.14      0.00
   19    1   12      0.75      0.00
   18    1   12      0.32      0.00
   17    1   12      0.41      0.00
   16    1   12      0.77      0.00
   15    1   12     -0.06      0.00
   14    1   12     -0.86      0.00
   13    1   12     -1.61      0.00
   12    1   12      3.10      0.00
   11    1   12      1.87      0.00
   10    1   12     -3.14      0.00
    9    1   12     -1.55      0.00
    8    1   12     -1.98      0.00
    7    1   12      2.09      0.00
    6    1   12      2.62      0.00
    5    1   12     -2.09      0.00
    4    1   12      2.93      0.00
    3    1   12      2.40      0.00
    2    1   12     -3.77      0.00
    1    1   12     -3.99      0.00
    0    1   12      1.66      0.00
   20    1   13      0.56      0.00
   19    1   13      1.05      0.00
   18    1   13     -0.75      0.00
   17    1   13      0.25      0.00
   16    1   13      0.09      0.00
   15    1   13      0.14      0.00
   14    1   13     -0.56      0.00
   13    1   13      0.24      0.00
   12    1   13      2.42      0.00
   11    1   13     -2.64      0.00
   10    1   13     -1.88      0.00
    9    1   13      0.69      0.00
    8    1   13     -0.32      0.00
    7    1   13      3.86      0.00
    6    1   13     -0.96      0.00
    5    1   13     -1.93      0.00
    4    1   13      3.66      0.00
    3    1   13     -2.34      0.00
    2    1   13     -2.32      0.00
    1    1   13      1.94      0.00
    0    1   13      0.31      0.00
   17    1   14      0.69      0.00
   16    1   14      0.54      0.00
   15    1   14      0.21      0.00
   14    1   14     -1.21      0.00
   13    1   14      0.87      0.00
   12    1   14     -0.02      0.00
   11    1   14     -2.41      0.00
   10    1   14      2.27      0.00
    9    1   14     -0.30      0.00
    8    1   14     -0.48      0.00
    7    1   14      2.24      0.00
    6    1   14     -2.68      0.00
    5    1   14      1.79      0.00
    4    1   14      1.46      0.00
    3    1   14     -3.08      0.00
    2    1   14      1.69      0.00
    1    1   14     -1.79      0.00
    0    1   14     -2.86      0.00
   18    1   14     -0.70      0.00
   14    1   15     -0.30      0.00
   13    1   15      1.41      0.00
   12    1   15     -1.49      0.00
   11    1   15      0.56      0.00
   10    1   15      1.80      0.00
    9    1   15     -3.51      0.00
    8    1   15      1.09      0.00
    7    1   15      1.92      0.00
    6    1   15     -0.57      0.00
    5    1   15      2.18      0.00
    4    1   15     -2.53      0.00
    3    1   15     -1.12      0.00
    2    1   15     -0.20      0.00
    1    1   15     -3.70      0.00
    0    1   15      3.77      0.00
    9    1   16     -1.97      0.00
    8    1   16      4.00      0.00
    7    1   16      0.86      0.00
    6    1   16     -0.58      0.00
    5    1   16     -1.37      0.00
    4    1   16     -3.08      0.00
    3    1   16      1.04      0.00
    2    1   16     -0.93      0.00
    1    1   16      1.67      0.00
    0    1   16      5.09      0.00
    0    2    0     42.54      0.00
    2    2    0    -25.46      0.00
    4    2    0      1.99      0.00
    6    2    0      0.41      0.00
    8    2    0      3.43      0.00
   10    2    0     -3.14      0.00
   12    2    0      4.59      0.00
   14    2    0     -3.43      0.00
   16    2    0     -1.33      0.00
   18    2    0      1.73      0.00
   20    2    0     -1.02      0.00
   22    2    0      4.53      0.00
   24    2    0     -6.02      0.00
   26    2    0      2.15      0.00
   28    2    0      1.30      0.00
   30    2    0     -0.97      0.00
   31    2    1     -0.28      0.00
   30    2    1      0.74      0.00
   29    2    1      1.71      0.00
   28    2    1     -0.64      0.00
   27    2    1     -0.21      0.00
   26    2    1      0.90      0.00
   25    2    1     -3.96      0.00
   24    2    1     -1.76      0.00
   23    2    1      5.12      0.00
   22    2    1      1.38      0.00
   21    2    1     -1.72      0.00
   20    2    1     -0.40      0.00
   19    2    1      0.29      0.00
   18    2    1      1.43      0.00
   17    2    1     -1.27      0.00
   16    2    1     -1.86      0.00
   15    2    1     -1.59      0.00
   14    2    1     -0.08      0.00
   13    2    1      5.00      0.00
   12    2    1     -0.29      0.00
   11    2    1     -4.48      0.00
   10    2    1      1.47      0.00
    9    2    1      4.31      0.00
    8    2    1      2.51      0.00
    7    2    1     -1.65      0.00
    6    2    1     -6.71      0.00
    5    2    1     -3.02      0.00
    4    2    1      6.43      0.00
    3    2    1     -9.12      0.00
    2    2    1     -7.26      0.00
    1    2    1     33.29      0.00
    0    2    1      8.98      0.00
   31    2    2      1.01      0.00
   30    2    2      1.58      0.00
   29    2    2     -1.08      0.00
   28    2    2     -1.82      0.00
   27    2    2      0.87      0.00
   26    2    2     -1.12      0.00
   25    2    2     -1.83      0.00
   24    2    2      3.53      0.00
   23    2    2      2.15      0.00
   22    2    2     -1.77      0.00
   21    2    2     -0.23      0.00
   20    2    2     -0.71      0.00
   19    2    2      0.42      0.00
   18    2    2      0.55      0.00
   17    2    2     -2.61      0.00
   16    2    2     -1.02      0.00
   15    2    2      0.47      0.00
   14    2    2      3.27      0.00
   13    2    2      2.00      0.00
   12    2    2     -4.40      0.00
   11    2    2      0.28      0.00
   10    2    2      4.95      0.00
    9    2    2      2.17      0.00
    8    2    2     -2.73      0.00
    7    2    2    -10.28      0.00
    6    2    2     -5.10      0.00
    5    2    2     11.50      0.00
    4    2    2      5.02      0.00
    3    2    2     -9.13      0.00
    2    2    2     13.13      0.00
    1    2    2     11.54      0.00
    0    2    2    -26.12      0.00
   31    2    3      0.95      0.00
   30    2    3     -1.11      0.00
   29    2    3     -2.11      0.00
   28    2    3      0.67      0.00
   27    2    3      0.68      0.00
   26    2    3     -0.82      0.00
   25    2    3      1.86      0.00
   24    2    3      1.39      0.00
   23    2    3     -1.65      0.00
   22    2    3      0.36      0.00
   21    2    3     -0.47      0.00
   20    2    3     -1.55      0.00
   19    2    3      1.45      0.00
   18    2    3     -1.38      0.00
   17    2    3     -1.53      0.00
   16    2    3      1.91      0.00
   15    2    3      1.15      0.00
   14    2    3      2.03      0.00
   13    2    3     -0.77      0.00
   12    2    3     -1.74      0.00
   11    2    3      2.29      0.00
   10    2    3      1.04      0.00
    9    2    3     -2.05      0.00
    8    2    3     -8.54      0.00
    7    2    3     -5.53      0.00
    6    2    3     13.09      0.00
    5    2    3     11.87      0.00
    4    2    3     -7.95      0.00
    3    2    3     -3.46      0.00
    2    2    3      5.86      0.00
    1    2    3    -11.52      0.00
    0    2    3     -7.62      0.00
   30    2    4     -1.32      0.00
   29    2    4      1.06      0.00
   28    2    4      1.03      0.00
   27    2    4     -0.57      0.00
   26    2    4      1.03      0.00
   25    2    4      0.72      0.00
   24    2    4     -2.00      0.00
   23    2    4      0.59      0.00
   22    2    4      0.90      0.00
   21    2    4     -2.78      0.00
   20    2    4      0.75      0.00
   19    2    4      0.76      0.00
   18    2    4     -2.22      0.00
   17    2    4      2.56      0.00
   16    2    4      1.51      0.00
   15    2    4     -0.73      0.00
   14    2    4      1.48      0.00
   13    2    4     -0.88      0.00
   12    2    4     -1.33      0.00
   11    2    4     -0.88      0.00
   10    2    4     -0.87      0.00
    9    2    4     -3.07      0.00
    8    2    4     -3.67      0.00
    7    2    4      9.94      0.00
    6    2    4     11.28      0.00
    5    2    4     -7.01      0.00
    4    2    4     -8.86      0.00
    3    2    4     -0.01      0.00
    2    2    4     -2.44      0.00
    1    2    4      0.92      0.00
    0    2    4      8.71      0.00
   30    2    5      1.79      0.00
   29    2    5      1.17      0.00
   28    2    5     -1.50      0.00
   27    2    5      0.08      0.00
   26    2    5      1.17      0.00
   25    2    5     -1.50      0.00
   24    2    5     -0.41      0.00
   23    2    5      1.79      0.00
   22    2    5     -2.02      0.00
   21    2    5     -0.78      0.00
   20    2    5      2.27      0.00
   19    2    5     -1.95      0.00
   18    2    5      1.20      0.00
   17    2    5      3.32      0.00
   16    2    5     -2.33      0.00
   15    2    5      0.13      0.00
   14    2    5      0.73      0.00
   13    2    5     -2.51      0.00
   12    2    5     -1.68      0.00
   11    2    5     -0.54      0.00
   10    2    5      0.97      0.00
    9    2    5      0.10      0.00
    8    2    5      5.27      0.00
    7    2    5      6.29      0.00
    6    2    5     -7.51      0.00
    5    2    5     -6.64      0.00
    4    2    5      1.40      0.00
    3    2    5     -1.46      0.00
    2    2    5      3.87      0.00
    1    2    5      8.00      0.00
    0    2    5     -4.80      0.00
   29    2    6     -1.76      0.00
   28    2    6     -1.38      0.00
   27    2    6      1.28      0.00
   26    2    6      0.32      0.00
   25    2    6     -0.89      0.00
   24    2    6      0.49      0.00
   23    2    6     -0.35      0.00
   22    2    6     -1.00      0.00
   21    2    6      1.92      0.00
   20    2    6     -0.74      0.00
   19    2    6     -0.77      0.00
   18    2    6      3.84      0.00
   17    2    6     -1.41      0.00
   16    2    6     -2.08      0.00
   15    2    6      1.19      0.00
   14    2    6     -2.45      0.00
   13    2    6     -0.74      0.00
   12    2    6      0.82      0.00
   11    2    6      0.81      0.00
   10    2    6      2.37      0.00
    9    2    6      2.66      0.00
    8    2    6      1.51      0.00
    7    2    6     -7.72      0.00
    6    2    6     -4.19      0.00
    5    2    6      7.33      0.00
    4    2    6     -1.44      0.00
    3    2    6     -1.78      0.00
    2    2    6      6.90      0.00
    1    2    6     -2.68      0.00
    0    2    6     -7.93      0.00
   28    2    7      0.14      0.00
   27    2    7      1.16      0.00
   26    2    7      0.49      0.00
   25    2    7     -0.86      0.00
   24    2    7     -0.60      0.00
   23    2    7      0.39      0.00
   22    2    7      1.00      0.00
   21    2    7     -0.27      0.00
   20    2    7     -1.34      0.00
   19    2    7      2.67      0.00
   18    2    7      0.28      0.00
   17    2    7     -3.23      0.00
   16    2    7      1.09      0.00
   15    2    7     -1.74      0.00
   14    2    7     -0.97      0.00
   13    2    7      3.76      0.00
   12    2    7     -0.23      0.00
   11    2    7      0.58      0.00
   10    2    7      2.13      0.00
    9    2    7     -0.78      0.00
    8    2    7     -5.71      0.00
    7    2    7     -3.39      0.00
    6    2    7      9.45      0.00
    5    2    7      1.50      0.00
    4    2    7     -8.55      0.00
    3    2    7      3.11      0.00
    2    2    7      2.46      0.00
    1    2    7     -3.20      0.00
    0    2    7      1.35      0.00
   27    2    8      1.40      0.00
   26    2    8      0.34      0.00
   25    2    8     -1.79      0.00
   24    2    8      0.40      0.00
   23    2    8      1.21      0.00
   22    2    8     -0.71      0.00
   21    2    8     -0.77      0.00
   20    2    8      1.52      0.00
   19    2    8      0.94      0.00
   18    2    8     -3.07      0.00
   17    2    8      0.18      0.00
   16    2    8      0.42      0.00
   15    2    8     -2.12      0.00
   14    2    8      4.44      0.00
   13    2    8      1.31      0.00
   12    2    8     -3.07      0.00
   11    2    8      1.57      0.00
   10    2    8     -0.56      0.00
    9    2    8     -3.29      0.00
    8    2    8     -1.67      0.00
    7    2    8      5.88      0.00
    6    2    8      3.79      0.00
    5    2    8     -9.31      0.00
    4    2    8     -1.40      0.00
    3    2    8      6.48      0.00
    2    2    8      1.29      0.00
    1    2    8      1.04      0.00
    0    2    8     -2.87      0.00
   26    2    9     -0.85      0.00
   25    2    9     -1.38      0.00
   24    2    9      1.03      0.00
   23    2    9     -0.38      0.00
   22    2    9     -0.33      0.00
   21    2    9      1.37      0.00
   20    2    9      0.34      0.00
   19    2    9     -2.20      0.00
   18    2    9     -0.95      0.00
   17    2    9      1.95      0.00
   16    2    9     -0.99      0.00
   15    2    9      1.74      0.00
   14    2    9      2.99      0.00
   13    2    9     -4.27      0.00
   12    2    9     -0.39      0.00
   11    2    9      1.64      0.00
   10    2    9     -2.39      0.00
    9    2    9      0.00      0.00
    8    2    9      2.23      0.00
    7    2    9      2.41      0.00
    6    2    9     -4.75      0.00
    5    2    9     -3.60      0.00
    4    2    9      6.91      0.00
    3    2    9      3.77      0.00
    2    2    9     -0.51      0.00
    1    2    9     -5.57      0.00
    0    2    9     -5.21      0.00
   25    2   10     -0.64      0.00
   24    2   10      0.48      0.00
   23    2   10      0.18      0.00
   22    2   10      1.35      0.00
   21    2   10     -0.32      0.00
   20    2   10     -1.80      0.00
   19    2   10     -0.69      0.00
   18    2   10      1.37      0.00
   17    2   10      1.18      0.00
   16    2   10     -0.06      0.00
   15    2   10      1.58      0.00
   14    2   10     -2.54      0.00
   13    2   10     -2.39      0.00
   12    2   10      3.40      0.00
   11    2   10     -0.93      0.00
   10    2   10     -1.21      0.00
    9    2   10      1.30      0.00
    8    2   10      0.19      0.00
    7    2   10     -0.16      0.00
    6    2   10     -2.26      0.00
    5    2   10      3.10      0.00
    4    2   10      4.60      0.00
    3    2   10     -2.00      0.00
    2    2   10     -5.76      0.00
    1    2   10     -5.59      0.00
    0    2   10      6.12      0.00
   23    2   11      0.87      0.00
   22    2   11     -0.43      0.00
   21    2   11     -1.75      0.00
   20    2   11      0.28      0.00
   19    2   11      0.77      0.00
   18    2   11      0.96      0.00
   17    2   11      0.62      0.00
   16    2   11     -0.58      0.00
   15    2   11     -1.21      0.00
   14    2   11     -2.12      0.00
   13    2   11      2.44      0.00
   12    2   11      1.68      0.00
   11    2   11     -2.92      0.00
   10    2   11      0.27      0.00
    9    2   11      0.39      0.00
    8    2   11      1.36      0.00
    7    2   11      0.94      0.00
    6    2   11     -1.58      0.00
    5    2   11      2.33      0.00
    4    2   11     -0.42      0.00
    3    2   11     -5.00      0.00
    2    2   11     -3.10      0.00
    1    2   11      4.10      0.00
    0    2   11      7.06      0.00
   21    2   12      0.58      0.00
   20    2   12      1.14      0.00
   19    2   12     -0.67      0.00
   18    2   12      0.69      0.00
   17    2   12     -0.19      0.00
   16    2   12     -1.36      0.00
   15    2   12     -0.55      0.00
   14    2   12      0.57      0.00
   13    2   12      2.27      0.00
   12    2   12     -1.65      0.00
   11    2   12     -1.56      0.00
   10    2   12      1.54      0.00
    9    2   12      0.96      0.00
    8    2   12      2.16      0.00
    7    2   12     -2.27      0.00
    6    2   12     -2.11      0.00
    5    2   12      1.98      0.00
    4    2   12     -2.42      0.00
    3    2   12     -1.49      0.00
    2    2   12      2.66      0.00
    1    2   12      3.27      0.00
    0    2   12     -0.70      0.00
   19    2   13     -0.81      0.00
   18    2   13      1.19      0.00
   17    2   13     -0.69      0.00
   16    2   13     -0.23      0.00
   15    2   13      0.04      0.00
   14    2   13      0.47      0.00
   13    2   13      0.60      0.00
   12    2   13     -1.52      0.00
   11    2   13      1.14      0.00
   10    2   13      0.75      0.00
    9    2   13      0.09      0.00
    8    2   13      0.17      0.00
    7    2   13     -3.30      0.00
    6    2   13      0.99      0.00
    5    2   13      1.01      0.00
    4    2   13     -1.65      0.00
    3    2   13      2.13      0.00
    2    2   13     -0.02      0.00
    1    2   13     -0.41      0.00
    0    2   13      1.31      0.00
   16    2   14     -0.23      0.00
   15    2   14     -0.72      0.00
   14    2   14      1.01      0.00
   13    2   14      0.31      0.00
   12    2   14     -0.17      0.00
   11    2   14      0.71      0.00
   10    2   14     -1.91      0.00
    9    2   14      0.90      0.00
    8    2   14      0.36      0.00
    7    2   14     -1.64      0.00
    6    2   14      1.43      0.00
    5    2   14     -1.21      0.00
    4    2   14      0.64      0.00
    3    2   14      1.07      0.00
    2    2   14     -1.86      0.00
    1    2   14      3.44      0.00
    0    2   14      1.31      0.00
   13    2   15     -0.67      0.00
   12    2   15      0.01      0.00
   11    2   15     -1.29      0.00
   10    2   15     -0.50      0.00
    9    2   15      3.42      0.00
    8    2   15     -1.52      0.00
    7    2   15     -1.72      0.00
    6    2   15      0.31      0.00
    5    2   15     -0.66      0.00
    4    2   15      2.67      0.00
    3    2   15     -0.26      0.00
    2    2   15      0.54      0.00
    1    2   15      2.30      0.00
    0    2   15     -4.35      0.00
    8    2   16     -4.01      0.00
    7    2   16      0.54      0.00
    6    2   16      0.67      0.00
    5    2   16      1.43      0.00
    4    2   16      2.52      0.00
    3    2   16     -1.74      0.00
    2    2   16     -0.06      0.00
    1    2   16     -2.07      0.00
    0    2   16     -2.64      0.00
    2    3    0     10.45      0.00
    4    3    0     -0.96      0.00
    6    3    0      0.41      0.00
    8    3    0     -2.00      0.00
   10    3    0      2.16      0.00
   12    3    0     -3.43      0.00
   14    3    0      2.60      0.00
   16    3    0      0.62      0.00
   18    3    0     -1.31      0.00
   20    3    0      0.77      0.00
   22    3    0     -2.58      0.00
   24    3    0      4.08      0.00
   26    3    0     -2.09      0.00
   28    3    0     -1.13      0.00
   30    3    0      1.98      0.00
   30    3    1     -0.23      0.00
   29    3    1     -1.98      0.00
   28    3    1      0.71      0.00
   27    3    1     -0.17      0.00
   26    3    1     -1.01      0.00
   25    3    1      3.25      0.00
   24    3    1      1.19      0.00
   23    3    1     -3.29      0.00
   22    3    1     -0.79      0.00
   21    3    1      0.99      0.00
   20    3    1      0.26      0.00
   19    3    1     -0.44      0.00
   18    3    1     -0.91      0.00
   17    3    1      0.69      0.00
   16    3    1      1.48      0.00
   15    3    1      1.69      0.00
   14    3    1     -0.48      0.00
   13    3    1     -3.82      0.00
   12    3    1      0.04      0.00
   11    3    1      3.09      0.00
   10    3    1     -0.46      0.00
    9    3    1     -2.76      0.00
    8    3    1     -1.11      0.00
    7    3    1      1.91      0.00
    6    3    1      3.26      0.00
    5    3    1      0.23      0.00
    4    3    1     -3.05      0.00
    3    3    1      5.04      0.00
    2    3    1      2.28      0.00
    1    3    1    -16.12      0.00
    0    3    1     -2.26      0.00
   30    3    2     -2.10      0.00
   29    3    2      0.94      0.00
   28    3    2      1.85      0.00
   27    3    2     -1.36      0.00
   26    3    2      1.12      0.00
   25    3    2      1.89      0.00
   24    3    2     -2.78      0.00
   23    3    2     -1.56      0.00
   22    3    2      1.07      0.00
   21    3    2      0.21      0.00
   20    3    2      0.44      0.00
   19    3    2     -0.35      0.00
   18    3    2     -0.26      0.00
   17    3    2      1.73      0.00
   16    3    2      1.43      0.00
   15    3    2     -0.74      0.00
   14    3    2     -3.24      0.00
   13    3    2     -1.00      0.00
   12    3    2      2.88      0.00
   11    3    2      0.54      0.00
   10    3    2     -2.49      0.00
    9    3    2     -2.01      0.00
    8    3    2      2.18      0.00
    7    3    2      6.31      0.00
    6    3    2      1.21      0.00
    5    3    2     -7.36      0.00
    4    3    2     -1.13      0.00
    3    3    2      6.00      0.00
    2    3    2     -8.91      0.00
    1    3    2     -6.50      0.00
    0    3    2     16.23      0.00
   29    3    3      2.89      0.00
   28    3    3     -0.53      0.00
   27    3    3     -1.19      0.00
   26    3    3      1.21      0.00
   25    3    3     -1.31      0.00
   24    3    3     -1.58      0.00
   23    3    3      1.05      0.00
   22    3    3     -0.05      0.00
   21    3    3      0.69      0.00
   20    3    3      0.87      0.00
   19    3    3     -1.12      0.00
   18    3    3      1.05      0.00
   17    3    3      1.41      0.00
   16    3    3     -1.24      0.00
   15    3    3     -2.00      0.00
   14    3    3     -1.03      0.00
   13    3    3      1.13      0.00
   12    3    3      0.88      0.00
   11    3    3     -0.30      0.00
   10    3    3     -1.11      0.00
    9    3    3      0.12      0.00
    8    3    3      6.00      0.00
    7    3    3      3.05      0.00
    6    3    3     -8.61      0.00
    5    3    3     -6.47      0.00
    4    3    3      6.07      0.00
    3    3    3      1.59      0.00
    2    3    3     -6.10      0.00
    1    3    3      7.81      0.00
    0    3    3      7.82      0.00
   29    3    4      0.27      0.00
   28    3    4     -1.69      0.00
   27    3    4     -0.36      0.00
   26    3    4     -0.30      0.00
   25    3    4     -0.62      0.00
   24    3    4      1.10      0.00
   23    3    4     -0.25      0.00
   22    3    4     -0.14      0.00
   21    3    4      2.11      0.00
   20    3    4     -1.17      0.00
   19    3    4     -0.58      0.00
   18    3    4      2.05      0.00
   17    3    4     -1.63      0.00
   16    3    4     -1.75      0.00
   15    3    4      0.28      0.00
   14    3    4      0.04      0.00
   13    3    4      0.20      0.00
   12    3    4      0.86      0.00
   11    3    4      1.12      0.00
   10    3    4     -0.76      0.00
    9    3    4      2.24      0.00
    8    3    4      3.15      0.00
    7    3    4     -6.54      0.00
    6    3    4     -6.69      0.00
    5    3    4      3.76      0.00
    4    3    4      5.23      0.00
    3    3    4     -0.38      0.00
    2    3    4      0.99      0.00
    1    3    4      2.27      0.00
    0    3    4     -4.53      0.00
   28    3    5     -0.38      0.00
   27    3    5     -0.46      0.00
   26    3    5      0.16      0.00
   25    3    5      1.10      0.00
   24    3    5      0.00      0.00
   23    3    5     -1.10      0.00
   22    3    5      1.90      0.00
   21    3    5      0.35      0.00
   20    3    5     -2.37      0.00
   19    3    5      1.89      0.00
   18    3    5     -0.36      0.00
   17    3    5     -2.70      0.00
   16    3    5      1.36      0.00
   15    3    5      0.17      0.00
   14    3    5     -0.38      0.00
   13    3    5      1.22      0.00
   12    3    5      1.25      0.00
   11    3    5      0.15      0.00
   10    3    5     -0.31      0.00
    9    3    5      1.05      0.00
    8    3    5     -4.31      0.00
    7    3    5     -4.11      0.00
    6    3    5      4.69      0.00
    5    3    5      2.44      0.00
    4    3    5      0.29      0.00
    3    3    5      2.24      0.00
    2    3    5     -2.32      0.00
    1    3    5     -4.38      0.00
    0    3    5      1.58      0.00
   28    3    6     -0.11      0.00
   27    3    6     -0.28      0.00
   26    3    6      0.75      0.00
   25    3    6      0.14      0.00
   24    3    6     -0.58      0.00
   23    3    6      0.46      0.00
   22    3    6      1.20      0.00
   21    3    6     -1.91      0.00
   20    3    6      0.04      0.00
   19    3    6      1.40      0.00
   18    3    6     -2.72      0.00
   17    3    6      0.91      0.00
   16    3    6      1.27      0.00
   15    3    6     -1.46      0.00
   14    3    6      1.98      0.00
   13    3    6      0.63      0.00
   12    3    6     -0.72      0.00
   11    3    6      0.19      0.00
   10    3    6     -0.45      0.00
    9    3    6     -2.88      0.00
    8    3    6     -2.57      0.00
    7    3    6      6.02      0.00
    6    3    6      2.10      0.00
    5    3    6     -5.08      0.00
    4    3    6      3.47      0.00
    3    3    6      1.05      0.00
    2    3    6     -5.50      0.00
    1    3    6      1.63      0.00
    0    3    6      4.55      0.00
   27    3    7      0.03      0.00
   26    3    7     -0.19      0.00
   25    3    7      0.42      0.00
   24    3    7      0.38      0.00
   23    3    7     -0.31      0.00
   22    3    7     -0.31      0.00
   21    3    7     -0.52      0.00
   20    3    7      1.05      0.00
   19    3    7     -1.23      0.00
   18    3    7     -0.35      0.00
   17    3    7      2.31      0.00
   16    3    7     -2.00      0.00
   15    3    7      1.04      0.00
   14    3    7      2.06      0.00
   13    3    7     -2.71      0.00
   12    3    7      0.43      0.00
   11    3    7      0.37      0.00
   10    3    7     -2.29      0.00
    9    3    7     -1.06      0.00
    8    3    7      4.01      0.00
    7    3    7      3.25      0.00
    6    3    7     -6.60      0.00
    5    3    7     -0.08      0.00
    4    3    7      6.32      0.00
    3    3    7     -3.44      0.00
    2    3    7     -1.57      0.00
    1    3    7      2.28      0.00
    0    3    7     -1.57      0.00
   26    3    8      0.14      0.00
   25    3    8      1.45      0.00
   24    3    8     -1.38      0.00
   23    3    8     -0.81      0.00
   22    3    8      1.35      0.00
   21    3    8      0.05      0.00
   20    3    8     -0.81      0.00
   19    3    8     -0.60      0.00
   18    3    8      1.97      0.00
   17    3    8     -0.69      0.00
   16    3    8     -1.20      0.00
   15    3    8      2.97      0.00
   14    3    8     -2.21      0.00
   13    3    8     -1.28      0.00
   12    3    8      2.33      0.00
   11    3    8     -2.15      0.00
   10    3    8     -0.19      0.00
    9    3    8      2.74      0.00
    8    3    8      1.15      0.00
    7    3    8     -3.68      0.00
    6    3    8     -2.14      0.00
    5    3    8      6.40      0.00
    4    3    8      0.40      0.00
    3    3    8     -4.62      0.00
    2    3    8     -0.24      0.00
    1    3    8     -1.03      0.00
    0    3    8      1.25      0.00
   25    3    9     -0.20      0.00
   24    3    9     -2.10      0.00
   23    3    9      2.17      0.00
   22    3    9      1.11      0.00
   21    3    9     -2.16      0.00
   20    3    9     -0.41      0.00
   19    3    9      1.31      0.00
   18    3    9      0.52      0.00
   17    3    9     -1.52      0.00
   16    3    9      1.33      0.00
   15    3    9     -0.19      0.00
   14    3    9     -2.58      0.00
   13    3    9      2.96      0.00
   12    3    9     -0.41      0.00
   11    3    9     -1.99      0.00
   10    3    9      3.15      0.00
    9    3    9     -0.21      0.00
    8    3    9     -2.75      0.00
    7    3    9     -0.66      0.00
    6    3    9      3.63      0.00
    5    3    9      2.16      0.00
    4    3    9     -4.66      0.00
    3    3    9     -2.66      0.00
    2    3    9      0.83      0.00
    1    3    9      3.43      0.00
    0    3    9      2.56      0.00
   23    3   10      2.48      0.00
   22    3   10     -2.32      0.00
   21    3   10     -1.51      0.00
   20    3   10      1.57      0.00
   19    3   10      0.58      0.00
   18    3   10     -0.46      0.00
   17    3   10     -0.11      0.00
   16    3   10      0.23      0.00
   15    3   10     -1.91      0.00
   14    3   10      1.57      0.00
   13    3   10      2.43      0.00
   12    3   10     -3.12      0.00
   11    3   10      0.72      0.00
   10    3   10      1.56      0.00
    9    3   10     -2.53      0.00
    8    3   10     -0.17      0.00
    7    3   10      1.70      0.00
    6    3   10      1.52      0.00
    5    3   10     -1.88      0.00
    4    3   10     -3.42      0.00
    3    3   10      0.86      0.00
    2    3   10      4.68      0.00
    1    3   10      2.64      0.00
    0    3   10     -5.22      0.00
   22    3   11     -2.40      0.00
   21    3   11      1.20      0.00
   20    3   11      0.83      0.00
   19    3   11     -0.23      0.00
   18    3   11      0.18      0.00
   17    3   11     -0.48      0.00
   16    3   11     -0.79      0.00
   15    3   11      0.31      0.00
   14    3   11      2.89      0.00
   13    3   11     -0.81      0.00
   12    3   11     -2.78      0.00
   11    3   11      1.30      0.00
   10    3   11     -0.02      0.00
    9    3   11     -0.66      0.00
    8    3   11      0.39      0.00
    7    3   11      0.34      0.00
    6    3   11      0.76      0.00
    5    3   11     -1.42      0.00
    4    3   11     -0.85      0.00
    3    3   11      3.06      0.00
    2    3   11      2.56      0.00
    1    3   11     -4.22      0.00
    0    3   11     -4.31      0.00
   20    3   12     -0.33      0.00
   19    3   12      0.73      0.00
   18    3   12     -0.29      0.00
   17    3   12     -0.83      0.00
   16    3   12      0.40      0.00
   15    3   12      1.20      0.00
   14    3   12      1.15      0.00
   13    3   12     -2.41      0.00
   12    3   12     -1.67      0.00
   11    3   12      1.42      0.00
   10    3   12      0.44      0.00
    9    3   12     -0.25      0.00
    8    3   12     -0.15      0.00
    7    3   12      1.20      0.00
    6    3   12      0.59      0.00
    5    3   12     -1.25      0.00
    4    3   12      0.22      0.00
    3    3   12      1.09      0.00
    2    3   12     -1.41      0.00
    1    3   12     -2.79      0.00
    0    3   12      1.80      0.00
   17    3   13      0.13      0.00
   16    3   13      0.51      0.00
   15    3   13      0.50      0.00
   14    3   13     -0.13      0.00
   13    3   13     -2.54      0.00
   12    3   13     -0.07      0.00
   11    3   13      1.69      0.00
   10    3   13      0.34      0.00
    9    3   13      0.25      0.00
    8    3   13      0.51      0.00
    7    3   13      0.13      0.00
    6    3   13     -0.82      0.00
    5    3   13     -0.26      0.00
    4    3   13     -0.34      0.00
    3    3   13     -0.64      0.00
    2    3   13      0.10      0.00
    1    3   13      0.51      0.00
    0    3   13      0.81      0.00
   14    3   14     -1.11      0.00
   13    3   14     -1.42      0.00
   12    3   14      1.42      0.00
   11    3   14      1.17      0.00
   10    3   14      0.75      0.00
    9    3   14      0.20      0.00
    8    3   14     -1.23      0.00
    7    3   14     -1.02      0.00
    6    3   14      0.51      0.00
    5    3   14      0.46      0.00
    4    3   14     -1.27      0.00
    3    3   14      0.26      0.00
    2    3   14      0.94      0.00
    1    3   14     -0.25      0.00
    0    3   14      0.09      0.00
   10    3   15      0.09      0.00
    9    3   15     -1.66      0.00
    8    3   15     -0.95      0.00
    7    3   15      0.66      0.00
    6    3   15      1.04      0.00
    5    3   15     -0.45      0.00
    4    3   15     -1.26      0.00
    3    3   15      0.51      0.00
    2    3   15      0.40      0.00
    1    3   15      1.00      0.00
    0    3   15      0.52      0.00
    0    4    0     14.31      0.00
    2    4    0     -9.21      0.00
    4    4    0      2.67      0.00
    6    4    0     -2.72      0.00
    8    4    0      3.51      0.00
   10    4    0     -2.17      0.00
   12    4    0      2.35      0.00
   14    4    0     -2.69      0.00
   16    4    0      0.89      0.00
   18    4    0      0.59      0.00
   20    4    0     -0.83      0.00
   22    4    0      1.65      0.00
   24    4    0     -2.50      0.00
   26    4    0      1.53      0.00
   27    4    1      0.08      0.00
   26    4    1      0.98      0.00
   25    4    1     -2.08      0.00
   24    4    1     -0.65      0.00
   23    4    1      2.04      0.00
   22    4    1      0.40      0.00
   21    4    1     -0.85      0.00
   20    4    1     -0.32      0.00
   19    4    1      0.59      0.00
   18    4    1      0.69      0.00
   17    4    1      0.04      0.00
   16    4    1     -0.92      0.00
   15    4    1     -2.02      0.00
   14    4    1      0.21      0.00
   13    4    1      2.38      0.00
   12    4    1      0.80      0.00
   11    4    1     -1.13      0.00
   10    4    1     -1.90      0.00
    9    4    1      1.83      0.00
    8    4    1      3.30      0.00
    7    4    1     -2.43      0.00
    6    4    1     -3.44      0.00
    5    4    1      1.17      0.00
    4    4    1      2.35      0.00
    3    4    1     -4.67      0.00
    2    4    1     -2.48      0.00
    1    4    1     12.40      0.00
    0    4    1      3.13      0.00
   27    4    2      1.35      0.00
   26    4    2     -0.40      0.00
   25    4    2     -1.35      0.00
   24    4    2      1.81      0.00
   23    4    2      0.89      0.00
   22    4    2     -0.75      0.00
   21    4    2     -0.26      0.00
   20    4    2     -0.02      0.00
   19    4    2      0.77      0.00
   18    4    2     -0.03      0.00
   17    4    2     -1.73      0.00
   16    4    2     -1.38      0.00
   15    4    2      1.08      0.00
   14    4    2      2.33      0.00
   13    4    2      0.15      0.00
   12    4    2     -0.48      0.00
   11    4    2     -0.99      0.00
   10    4    2     -0.67      0.00
    9    4    2      3.39      0.00
    8    4    2     -0.04      0.00
    7    4    2     -5.60      0.00
    6    4    2     -0.88      0.00
    5    4    2      4.38      0.00
    4    4    2      0.35      0.00
    3    4    2     -3.64      0.00
    2    4    2      6.24      0.00
    1    4    2      5.91      0.00
    0    4    2    -11.03      0.00
   27    4    3      1.55      0.00
   26    4    3     -0.71      0.00
   25    4    3      0.53      0.00
   24    4    3      1.20      0.00
   23    4    3     -0.53      0.00
   22    4    3     -0.05      0.00
   21    4    3     -0.54      0.00
   20    4    3     -0.19      0.00
   19    4    3      0.72      0.00
   18    4    3     -1.61      0.00
   17    4    3     -1.32      0.00
   16    4    3      1.73      0.00
   15    4    3      2.22      0.00
   14    4    3     -0.24      0.00
   13    4    3     -1.07      0.00
   12    4    3      0.46      0.00
   11    4    3     -0.84      0.00
   10    4    3      0.47      0.00
    9    4    3      1.40      0.00
    8    4    3     -4.23      0.00
    7    4    3     -2.39      0.00
    6    4    3      4.58      0.00
    5    4    3      3.36      0.00
    4    4    3     -2.01      0.00
    3    4    3     -0.31      0.00
    2    4    3      4.00      0.00
    1    4    3     -4.79      0.00
    0    4    3     -6.83      0.00
   27    4    4      1.35      0.00
   26    4    4     -0.31      0.00
   25    4    4      0.14      0.00
   24    4    4      0.04      0.00
   23    4    4      0.08      0.00
   22    4    4     -0.42      0.00
   21    4    4     -1.52      0.00
   20    4    4      0.89      0.00
   19    4    4      0.16      0.00
   18    4    4     -1.71      0.00
   17    4    4      1.54      0.00
   16    4    4      1.92      0.00
   15    4    4     -0.26      0.00
   14    4    4     -0.81      0.00
   13    4    4     -0.02      0.00
   12    4    4      0.08      0.00
   11    4    4     -1.05      0.00
   10    4    4      0.18      0.00
    9    4    4     -1.49      0.00
    8    4    4     -1.75      0.00
    7    4    4      3.88      0.00
    6    4    4      2.96      0.00
    5    4    4     -0.93      0.00
    4    4    4     -1.41      0.00
    3    4    4     -0.59      0.00
    2    4    4     -0.98      0.00
    1    4    4     -2.76      0.00
    0    4    4      1.85      0.00
   26    4    5     -1.48      0.00
   25    4    5     -0.11      0.00
   24    4    5      0.68      0.00
   23    4    5     -0.24      0.00
   22    4    5     -1.77      0.00
   21    4    5     -0.28      0.00
   20    4    5      2.01      0.00
   19    4    5     -0.91      0.00
   18    4    5      0.04      0.00
   17    4    5      1.80      0.00
   16    4    5     -0.72      0.00
   15    4    5      0.28      0.00
   14    4    5     -0.05      0.00
   13    4    5     -1.25      0.00
   12    4    5     -0.29      0.00
   11    4    5     -0.39      0.00
   10    4    5     -0.56      0.00
    9    4    5     -0.31      0.00
    8    4    5      3.15      0.00
    7    4    5      2.14      0.00
    6    4    5     -2.60      0.00
    5    4    5     -0.02      0.00
    4    4    5     -0.45      0.00
    3    4    5     -2.40      0.00
    2    4    5      0.64      0.00
    1    4    5      1.41      0.00
    0    4    5      0.48      0.00
   27    4    5      0.87      0.00
   25    4    6      1.21      0.00
   24    4    6     -0.15      0.00
   23    4    6     -1.27      0.00
   22    4    6     -0.81      0.00
   21    4    6      1.59      0.00
   20    4    6      1.05      0.00
   19    4    6     -1.07      0.00
   18    4    6      1.00      0.00
   17    4    6     -0.61      0.00
   16    4    6     -0.13      0.00
   15    4    6      1.73      0.00
   14    4    6     -2.49      0.00
   13    4    6     -1.11      0.00
   12    4    6      1.29      0.00
   11    4    6     -0.57      0.00
   10    4    6      0.08      0.00
    9    4    6      2.09      0.00
    8    4    6      1.86      0.00
    7    4    6     -2.86      0.00
    6    4    6     -1.10      0.00
    5    4    6      2.64      0.00
    4    4    6     -2.72      0.00
    3    4    6     -1.22      0.00
    2    4    6      2.61      0.00
    1    4    6     -0.45      0.00
    0    4    6     -0.84      0.00
   26    4    6     -1.36      0.00
   24    4    7     -1.16      0.00
   23    4    7      0.40      0.00
   22    4    7      0.30      0.00
   21    4    7      1.02      0.00
   20    4    7     -0.07      0.00
   19    4    7     -0.34      0.00
   18    4    7     -0.05      0.00
   17    4    7     -0.95      0.00
   16    4    7      2.14      0.00
   15    4    7     -0.65      0.00
   14    4    7     -3.01      0.00
   13    4    7      1.75      0.00
   12    4    7      0.23      0.00
   11    4    7     -0.47      0.00
   10    4    7      1.78      0.00
    9    4    7      0.61      0.00
    8    4    7     -1.24      0.00
    7    4    7     -1.44      0.00
    6    4    7      2.31      0.00
    5    4    7     -0.36      0.00
    4    4    7     -3.78      0.00
    3    4    7      1.82      0.00
    2    4    7      1.26      0.00
    1    4    7     -0.72      0.00
    0    4    7      1.23      0.00
   25    4    7      0.07      0.00
   23    4    8      0.95      0.00
   22    4    8     -1.53      0.00
   21    4    8      0.65      0.00
   20    4    8      0.28      0.00
   19    4    8     -0.40      0.00
   18    4    8     -0.44      0.00
   17    4    8      0.86      0.00
   16    4    8      0.99      0.00
   15    4    8     -2.63      0.00
   14    4    8      0.18      0.00
   13    4    8      0.99      0.00
   12    4    8     -1.24      0.00
   11    4    8      2.35      0.00
   10    4    8      0.50      0.00
    9    4    8     -1.92      0.00
    8    4    8      0.33      0.00
    7    4    8      0.98      0.00
    6    4    8     -0.02      0.00
    5    4    8     -3.15      0.00
    4    4    8     -0.34      0.00
    3    4    8      3.21      0.00
    2    4    8      0.04      0.00
    1    4    8      0.24      0.00
    0    4    8      0.24      0.00
   24    4    8      1.52      0.00
   22    4    9     -1.50      0.00
   21    4    9      2.51      0.00
   20    4    9     -0.07      0.00
   19    4    9     -0.48      0.00
   18    4    9      0.60      0.00
   17    4    9      0.20      0.00
   16    4    9     -1.52      0.00
   15    4    9     -0.48      0.00
   14    4    9      1.38      0.00
   13    4    9     -1.53      0.00
   12    4    9      1.22      0.00
   11    4    9      2.66      0.00
   10    4    9     -2.83      0.00
    9    4    9     -0.43      0.00
    8    4    9      2.08      0.00
    7    4    9     -0.82      0.00
    6    4    9     -2.07      0.00
    5    4    9     -1.10      0.00
    4    4    9      2.64      0.00
    3    4    9      2.15      0.00
    2    4    9     -1.34      0.00
    1    4    9     -0.97      0.00
    0    4    9      0.10      0.00
   21    4   10      2.40      0.00
   20    4   10     -1.37      0.00
   19    4   10      0.36      0.00
   18    4   10     -0.27      0.00
   17    4   10     -1.97      0.00
   16    4   10     -0.16      0.00
   15    4   10      2.21      0.00
   14    4   10     -0.47      0.00
   13    4   10     -1.62      0.00
   12    4   10      2.72      0.00
   11    4   10      0.02      0.00
   10    4   10     -2.40      0.00
    9    4   10      1.80      0.00
    8    4   10      0.38      0.00
    7    4   10     -2.09      0.00
    6    4   10     -0.88      0.00
    5    4   10      0.85      0.00
    4    4   10      2.78      0.00
    3    4   10      0.02      0.00
    2    4   10     -3.12      0.00
    1    4   10      0.13      0.00
    0    4   10      2.75      0.00
   19    4   11      0.13      0.00
   18    4   11     -2.05      0.00
   17    4   11     -0.49      0.00
   16    4   11      2.71      0.00
   15    4   11      1.22      0.00
   14    4   11     -2.73      0.00
   13    4   11     -0.67      0.00
   12    4   11      2.83      0.00
   11    4   11     -0.29      0.00
   10    4   11     -0.76      0.00
    9    4   11      0.91      0.00
    8    4   11     -1.48      0.00
    7    4   11     -1.42      0.00
    6    4   11      0.40      0.00
    5    4   11      1.60      0.00
    4    4   11      1.92      0.00
    3    4   11     -2.41      0.00
    2    4   11     -2.11      0.00
    1    4   11      4.02      0.00
    0    4   11      1.52      0.00
   16    4   12      1.67      0.00
   15    4   12     -1.52      0.00
   14    4   12     -2.70      0.00
   13    4   12      1.75      0.00
   12    4   12      3.37      0.00
   11    4   12     -1.14      0.00
   10    4   12     -1.28      0.00
    9    4   12     -0.57      0.00
    8    4   12     -2.08      0.00
    7    4   12      0.42      0.00
    6    4   12      2.03      0.00
    5    4   12      1.46      0.00
    4    4   12     -0.40      0.00
    3    4   12     -3.02      0.00
    2    4   12      2.28      0.00
    1    4   12      3.90      0.00
    0    4   12     -4.42      0.00
   13    4   13      3.41      0.00
   12    4   13      0.67      0.00
   11    4   13     -3.02      0.00
   10    4   13     -0.76      0.00
    9    4   13     -1.41      0.00
    8    4   13     -0.68      0.00
    7    4   13      3.55      0.00
    6    4   13      1.62      0.00
    5    4   13     -0.98      0.00
    4    4   13     -1.83      0.00
    3    4   13      0.00      0.00
    2    4   13      4.28      0.00
    1    4   13     -2.35      0.00
    0    4   13     -6.37      0.00
    9    4   14     -1.40      0.00
    8    4   14      2.63      0.00
    7    4   14      3.47      0.00
    6    4   14     -1.70      0.00
    5    4   14     -1.84      0.00
    4    4   14     -0.32      0.00
    3    4   14      2.23      0.00
    2    4   14      0.62      0.00
    1    4   14     -6.27      0.00
    0    4   14     -0.32      0.00
    0    5    0     -9.77      0.00
    2    5    0      6.88      0.00
    4    5    0     -3.18      0.00
    6    5    0      2.79      0.00
    8    5    0     -2.27      0.00
   10    5    0      1.00      0.00
   12    5    0     -1.41      0.00
   14    5    0      1.91      0.00
   16    5    0     -0.73      0.00
   18    5    0     -0.78      0.00
   20    5    0      1.81      0.00
   22    5    0     -2.31      0.00
   24    5    0      1.88      0.00
   25    5    1      0.95      0.00
   24    5    1      0.52      0.00
   23    5    1     -1.55      0.00
   22    5    1     -0.81      0.00
   21    5    1      1.37      0.00
   20    5    1      0.86      0.00
   19    5    1     -0.90      0.00
   18    5    1     -0.94      0.00
   17    5    1     -0.07      0.00
   16    5    1      1.07      0.00
   15    5    1      1.52      0.00
   14    5    1     -0.29      0.00
   13    5    1     -1.40      0.00
   12    5    1     -1.19      0.00
   11    5    1     -0.16      0.00
   10    5    1      2.57      0.00
    9    5    1     -0.01      0.00
    8    5    1     -3.58      0.00
    7    5    1      1.24      0.00
    6    5    1      3.36      0.00
    5    5    1     -1.39      0.00
    4    5    1     -2.22      0.00
    3    5    1      3.47      0.00
    2    5    1      2.10      0.00
    1    5    1     -7.69      0.00
    0    5    1     -2.52      0.00
   25    5    2      0.15      0.00
   24    5    2     -0.57      0.00
   23    5    2     -0.35      0.00
   22    5    2      0.29      0.00
   21    5    2      0.45      0.00
   20    5    2     -0.13      0.00
   19    5    2     -0.89      0.00
   18    5    2      0.06      0.00
   17    5    2      1.84      0.00
   16    5    2      1.23      0.00
   15    5    2     -1.46      0.00
   14    5    2     -1.73      0.00
   13    5    2     -0.15      0.00
   12    5    2     -0.50      0.00
   11    5    2      1.45      0.00
   10    5    2      2.30      0.00
    9    5    2     -3.10      0.00
    8    5    2     -1.69      0.00
    7    5    2      4.38      0.00
    6    5    2      1.17      0.00
    5    5    2     -3.20      0.00
    4    5    2     -0.39      0.00
    3    5    2      2.12      0.00
    2    5    2     -3.03      0.00
    1    5    2     -3.21      0.00
    0    5    2      5.47      0.00
   24    5    3      0.17      0.00
   23    5    3     -0.01      0.00
   22    5    3     -0.41      0.00
   21    5    3      0.24      0.00
   20    5    3      0.26      0.00
   19    5    3      0.02      0.00
   18    5    3      1.48      0.00
   17    5    3      0.98      0.00
   16    5    3     -1.98      0.00
   15    5    3     -2.13      0.00
   14    5    3      0.40      0.00
   13    5    3      0.73      0.00
   12    5    3      0.09      0.00
   11    5    3      1.45      0.00
   10    5    3     -0.31      0.00
    9    5    3     -1.92      0.00
    8    5    3      2.33      0.00
    7    5    3      1.95      0.00
    6    5    3     -2.71      0.00
    5    5    3     -2.04      0.00
    4    5    3      0.82      0.00
    3    5    3      0.40      0.00
    2    5    3     -1.27      0.00
    1    5    3      1.99      0.00
    0    5    3      2.64      0.00
   25    5    3     -0.18      0.00
   24    5    4     -0.41      0.00
   23    5    4     -0.49      0.00
   22    5    4      0.46      0.00
   21    5    4      1.04      0.00
   20    5    4      0.29      0.00
   19    5    4      0.40      0.00
   18    5    4      0.52      0.00
   17    5    4     -1.83      0.00
   16    5    4     -1.79      0.00
   15    5    4      0.42      0.00
   14    5    4      0.74      0.00
   13    5    4      0.58      0.00
   12    5    4      0.53      0.00
   11    5    4      0.35      0.00
   10    5    4     -0.12      0.00
    9    5    4      0.46      0.00
    8    5    4      0.43      0.00
    7    5    4     -1.95      0.00
    6    5    4     -1.36      0.00
    5    5    4      0.59      0.00
    4    5    4      0.71      0.00
    3    5    4      0.63      0.00
    2    5    4      0.42      0.00
    1    5    4      0.66      0.00
    0    5    4     -0.69      0.00
   25    5    4      0.56      0.00
   23    5    5      1.30      0.00
   22    5    5      1.40      0.00
   21    5    5      0.20      0.00
   20    5    5     -0.49      0.00
   19    5    5     -0.15      0.00
   18    5    5     -1.16      0.00
   17    5    5     -1.45      0.00
   16    5    5      0.90      0.00
   15    5    5      0.16      0.00
   14    5    5      0.13      0.00
   13    5    5      1.74      0.00
   12    5    5      0.09      0.00
   11    5    5     -0.24      0.00
   10    5    5      0.17      0.00
    9    5    5     -0.92      0.00
    8    5    5     -1.37      0.00
    7    5    5     -0.32      0.00
    6    5    5      1.22      0.00
    5    5    5      0.13      0.00
    4    5    5      0.00      0.00
    3    5    5      0.92      0.00
    2    5    5     -0.21      0.00
    1    5    5     -0.31      0.00
    0    5    5     -0.09      0.00
   24    5    5     -1.09      0.00
   22    5    6     -0.25      0.00
   21    5    6     -0.96      0.00
   20    5    6     -0.79      0.00
   19    5    6     -0.51      0.00
   18    5    6     -0.88      0.00
   17    5    6      0.73      0.00
   16    5    6      0.88      0.00
   15    5    6     -1.02      0.00
   14    5    6      1.67      0.00
   13    5    6      1.37      0.00
   12    5    6     -1.40      0.00
   11    5    6     -0.25      0.00
   10    5    6     -0.73      0.00
    9    5    6     -0.83      0.00
    8    5    6      0.38      0.00
    7    5    6      0.73      0.00
    6    5    6      0.15      0.00
    5    5    6     -1.06      0.00
    4    5    6      0.92      0.00
    3    5    6      1.17      0.00
    2    5    6     -0.59      0.00
    1    5    6     -0.09      0.00
    0    5    6     -0.36      0.00
   23    5    6      2.22      0.00
   21    5    7     -0.65      0.00
   20    5    7     -0.70      0.00
   19    5    7      0.08      0.00
   18    5    7      0.36      0.00
   17    5    7      0.98      0.00
   16    5    7     -0.46      0.00
   15    5    7     -0.15      0.00
   14    5    7      1.74      0.00
   13    5    7     -0.58      0.00
   12    5    7     -0.68      0.00
   11    5    7     -0.17      0.00
   10    5    7     -0.92      0.00
    9    5    7      0.58      0.00
    8    5    7     -0.01      0.00
    7    5    7     -0.30      0.00
    6    5    7     -0.27      0.00
    5    5    7      0.28      0.00
    4    5    7      2.32      0.00
    3    5    7     -0.08      0.00
    2    5    7     -1.23      0.00
    1    5    7     -0.50      0.00
    0    5    7     -0.63      0.00
   22    5    7     -1.17      0.00
   20    5    8     -0.30      0.00
   19    5    8      1.01      0.00
   18    5    8      0.01      0.00
   17    5    8     -0.08      0.00
   16    5    8     -0.11      0.00
   15    5    8      0.53      0.00
   14    5    8      0.41      0.00
   13    5    8      0.10      0.00
   12    5    8      0.14      0.00
   11    5    8     -1.70      0.00
   10    5    8     -0.51      0.00
    9    5    8      0.48      0.00
    8    5    8     -0.52      0.00
    7    5    8      0.77      0.00
    6    5    8      0.59      0.00
    5    5    8      1.50      0.00
    4    5    8      0.86      0.00
    3    5    8     -2.24      0.00
    2    5    8     -0.80      0.00
    1    5    8     -0.57      0.00
    0    5    8      0.00      0.00
   21    5    8     -0.74      0.00
   18    5    9     -1.19      0.00
   17    5    9      0.93      0.00
   16    5    9      1.14      0.00
   15    5    9     -0.23      0.00
   14    5    9      0.11      0.00
   13    5    9      0.50      0.00
   12    5    9     -1.69      0.00
   11    5    9     -1.98      0.00
   10    5    9      0.77      0.00
    9    5    9      0.66      0.00
    8    5    9      0.83      0.00
    7    5    9      1.15      0.00
    6    5    9      0.34      0.00
    5    5    9      0.80      0.00
    4    5    9     -1.86      0.00
    3    5    9     -1.99      0.00
    2    5    9      0.50      0.00
    1    5    9     -0.30      0.00
    0    5    9      0.94      0.00
   19    5    9      0.37      0.00
   17    5   10      2.99      0.00
   16    5   10     -0.18      0.00
   15    5   10     -1.97      0.00
   14    5   10     -0.06      0.00
   13    5   10     -0.19      0.00
   12    5   10     -1.54      0.00
   11    5   10     -0.09      0.00
   10    5   10      1.31      0.00
    9    5   10      0.84      0.00
    8    5   10      0.90      0.00
    7    5   10      0.37      0.00
    6    5   10      0.20      0.00
    5    5   10     -1.13      0.00
    4    5   10     -3.03      0.00
    3    5   10      0.39      0.00
    2    5   10      1.96      0.00
    1    5   10      0.07      0.00
    0    5   10     -0.08      0.00
   15    5   11     -1.84      0.00
   14    5   11      1.25      0.00
   13    5   11      0.72      0.00
   12    5   11     -0.68      0.00
   11    5   11     -0.04      0.00
   10    5   11      0.79      0.00
    9    5   11      0.62      0.00
    8    5   11      0.97      0.00
    7    5   11      0.63      0.00
    6    5   11     -1.24      0.00
    5    5   11     -3.48      0.00
    4    5   11     -1.12      0.00
    3    5   11      4.48      0.00
    2    5   11      1.90      0.00
    1    5   11     -3.63      0.00
    0    5   11     -1.33      0.00
   12    5   12     -1.68      0.00
   11    5   12      0.29      0.00
   10    5   12      0.96      0.00
    9    5   12      1.05      0.00
    8    5   12      1.69      0.00
    7    5   12     -1.15      0.00
    6    5   12     -4.07      0.00
    5    5   12     -2.34      0.00
    4    5   12      4.33      0.00
    3    5   12      5.64      0.00
    2    5   12     -4.95      0.00
    0    5   12      5.79      0.00
    6    5   13     -2.91      0.00
    3    5   13     -1.36      0.00
    2    5   13     -9.44      0.00
    1    5   13      3.31      0.00
    0    5   13     10.61      0.00
    7    5   13     -4.17      0.00
    0    6    0      1.30      0.00
    2    6    0     -1.29      0.00
    4    6    0      1.55      0.00
    6    6    0     -1.51      0.00
    8    6    0      0.51      0.00
   10    6    0      0.20      0.00
   12    6    0      0.22      0.00
   14    6    0     -0.73      0.00
   16    6    0      0.39      0.00
   18    6    0      1.00      0.00
   20    6    0     -2.57      0.00
   22    6    0      2.61      0.00
   23    6    1      0.99      0.00
   22    6    1      1.20      0.00
   21    6    1     -1.58      0.00
   20    6    1     -1.36      0.00
   19    6    1      0.99      0.00
   18    6    1      0.90      0.00
   17    6    1      0.24      0.00
   16    6    1     -0.72      0.00
   15    6    1     -0.98      0.00
   14    6    1      0.42      0.00
   13    6    1      0.58      0.00
   12    6    1      0.44      0.00
   11    6    1      0.54      0.00
   10    6    1     -1.27      0.00
    9    6    1     -0.72      0.00
    8    6    1      1.81      0.00
    7    6    1     -0.38      0.00
    6    6    1     -1.84      0.00
    5    6    1      1.14      0.00
    4    6    1      1.08      0.00
    3    6    1     -1.16      0.00
    2    6    1     -0.19      0.00
    1    6    1      1.25      0.00
    0    6    1     -0.14      0.00
   22    6    2      0.27      0.00
   21    6    2     -0.62      0.00
   20    6    2     -0.12      0.00
   19    6    2      0.63      0.00
   18    6    2      0.37      0.00
   17    6    2     -0.72      0.00
   16    6    2     -1.20      0.00
   15    6    2      0.72      0.00
   14    6    2      1.27      0.00
   13    6    2      0.08      0.00
   12    6    2      0.32      0.00
   11    6    2     -0.89      0.00
   10    6    2     -1.75      0.00
    9    6    2      1.55      0.00
    8    6    2      1.41      0.00
    7    6    2     -2.40      0.00
    6    6    2     -0.37      0.00
    5    6    2      2.28      0.00
    4    6    2     -0.25      0.00
    3    6    2     -0.98      0.00
    2    6    2      0.72      0.00
    1    6    2     -0.02      0.00
    0    6    2     -1.02      0.00
   22    6    3      0.89      0.00
   21    6    3     -0.19      0.00
   20    6    3     -0.48      0.00
   19    6    3     -0.15      0.00
   18    6    3     -0.27      0.00
   17    6    3     -0.60      0.00
   16    6    3      0.69      0.00
   15    6    3      1.45      0.00
   14    6    3      0.03      0.00
   13    6    3     -0.32      0.00
   12    6    3     -0.49      0.00
   11    6    3     -1.40      0.00
   10    6    3      0.24      0.00
    9    6    3      1.68      0.00
    8    6    3     -0.95      0.00
    7    6    3     -1.31      0.00
    6    6    3      2.04      0.00
    5    6    3      1.05      0.00
    4    6    3     -1.53      0.00
    3    6    3     -0.47      0.00
    2    6    3      0.16      0.00
    1    6    3     -0.16      0.00
    0    6    3      0.43      0.00
   21    6    4     -0.56      0.00
   20    6    4     -0.73      0.00
   19    6    4     -0.44      0.00
   18    6    4      0.25      0.00
   17    6    4      1.21      0.00
   16    6    4      1.14      0.00
   15    6    4     -0.40      0.00
   14    6    4     -0.41      0.00
   13    6    4     -0.37      0.00
   12    6    4     -1.20      0.00
   11    6    4     -0.28      0.00
   10    6    4      0.91      0.00
    9    6    4      0.55      0.00
    8    6    4     -0.37      0.00
    7    6    4      0.51      0.00
    6    6    4      1.04      0.00
    5    6    4     -1.02      0.00
    4    6    4     -1.25      0.00
    3    6    4      0.02      0.00
    2    6    4      0.68      0.00
    1    6    4      1.14      0.00
    0    6    4     -0.38      0.00
   20    6    5     -0.71      0.00
   19    6    5      0.14      0.00
   18    6    5      1.76      0.00
   17    6    5      1.45      0.00
   16    6    5     -1.11      0.00
   15    6    5     -1.16      0.00
   14    6    5      0.34      0.00
   13    6    5     -1.03      0.00
   12    6    5     -0.72      0.00
   11    6    5      0.77      0.00
   10    6    5      0.97      0.00
    9    6    5      1.01      0.00
    8    6    5     -0.45      0.00
    7    6    5     -0.73      0.00
    6    6    5     -0.16      0.00
    5    6    5     -0.44      0.00
    4    6    5      0.01      0.00
    3    6    5      0.55      0.00
    2    6    5      1.22      0.00
    1    6    5     -0.34      0.00
    0    6    5     -2.08      0.00
   21    6    5      0.13      0.00
   19    6    6      1.32      0.00
   18    6    6      1.70      0.00
   17    6    6     -0.72      0.00
   16    6    6     -2.36      0.00
   15    6    6      0.12      0.00
   14    6    6      0.50      0.00
   13    6    6     -0.95      0.00
   12    6    6      0.39      0.00
   11    6    6      0.96      0.00
   10    6    6      1.17      0.00
    9    6    6     -0.16      0.00
    8    6    6     -2.05      0.00
    7    6    6     -0.16      0.00
    6    6    6      1.14      0.00
    5    6    6      0.57      0.00
    4    6    6     -0.19      0.00
    3    6    6     -0.09      0.00
    2    6    6     -0.21      0.00
    1    6    6     -1.70      0.00
    0    6    6      0.32      0.00
   20    6    6     -0.43      0.00
   18    6    7     -0.18      0.00
   17    6    7     -1.81      0.00
   16    6    7     -1.18      0.00
   15    6    7      1.37      0.00
   14    6    7      0.45      0.00
   13    6    7     -0.68      0.00
   12    6    7      0.21      0.00
   11    6    7      0.75      0.00
   10    6    7      0.36      0.00
    9    6    7     -1.24      0.00
    8    6    7     -0.33      0.00
    7    6    7      1.36      0.00
    6    6    7      0.79      0.00
    5    6    7     -0.48      0.00
    4    6    7     -1.52      0.00
    3    6    7     -0.64      0.00
    2    6    7     -0.49      0.00
    1    6    7      0.95      0.00
    0    6    7      2.45      0.00
   17    6    8     -0.82      0.00
   16    6    8     -0.04      0.00
   15    6    8      1.50      0.00
   14    6    8     -0.47      0.00
   13    6    8     -1.27      0.00
   12    6    8      0.57      0.00
   11    6    8      0.84      0.00
   10    6    8      0.09      0.00
    9    6    8      0.51      0.00
    8    6    8      0.36      0.00
    7    6    8     -0.67      0.00
    6    6    8     -0.47      0.00
    5    6    8     -1.29      0.00
    4    6    8     -0.94      0.00
    3    6    8      0.63      0.00
    2    6    8      1.23      0.00
    1    6    8      3.02      0.00
    0    6    8     -0.65      0.00
   15    6    9      0.72      0.00
   14    6    9     -1.27      0.00
   13    6    9      0.24      0.00
   12    6    9      1.62      0.00
   11    6    9      0.18      0.00
   10    6    9      0.98      0.00
    9    6    9      0.31      0.00
    8    6    9     -2.70      0.00
    7    6    9     -1.31      0.00
    6    6    9      0.19      0.00
    5    6    9     -0.30      0.00
    4    6    9      1.62      0.00
    3    6    9      1.36      0.00
    2    6    9      1.35      0.00
    1    6    9      0.47      0.00
    0    6    9     -3.91      0.00
   13    6   10      1.72      0.00
   12    6   10     -0.14      0.00
   11    6   10     -0.40      0.00
   10    6   10      1.04      0.00
    9    6   10     -2.45      0.00
    8    6   10     -2.66      0.00
    7    6   10      0.92      0.00
    6    6   10      0.69      0.00
    5    6   10      2.18      0.00
    4    6   10      2.64      0.00
    3    6   10     -1.28      0.00
    2    6   10     -1.46      0.00
    1    6   10     -1.67      0.00
    0    6   10     -0.66      0.00
   10    6   11     -0.24      0.00
    9    6   11     -2.52      0.00
    8    6   11      0.15      0.00
    7    6   11      1.00      0.00
    6    6   11      1.71      0.00
    5    6   11      4.14      0.00
    4    6   11     -0.98      0.00
    3    6   11     -5.82      0.00
    2    6   11     -1.47      0.00
    1    6   11      3.34      0.00
    0    6   11      2.56      0.00
    0    7    0      0.56      0.00
    2    7    0      0.01      0.00
    4    7    0     -1.04      0.00
    6    7    0      1.37      0.00
    8    7    0     -0.60      0.00
   10    7    0     -0.51      0.00
   12    7    0      0.60      0.00
   14    7    0      0.56      0.00
   16    7    0     -1.00      0.00
   18    7    0     -0.49      0.00
   18    7    1     -0.19      0.00
   17    7    1     -0.59      0.00
   16    7    1     -0.57      0.00
   15    7    1      0.93      0.00
   14    7    1      0.19      0.00
   13    7    1      0.09      0.00
   12    7    1      0.34      0.00
   11    7    1     -0.83      0.00
   10    7    1      0.12      0.00
    9    7    1      0.41      0.00
    8    7    1     -0.92      0.00
    7    7    1      0.60      0.00
    6    7    1      0.97      0.00
    5    7    1     -1.24      0.00
    4    7    1     -0.42      0.00
    3    7    1      0.81      0.00
    2    7    1      0.09      0.00
    1    7    1      0.09      0.00
    0    7    1     -0.07      0.00
   18    7    2     -0.47      0.00
   17    7    2     -0.83      0.00
   16    7    2      0.72      0.00
   15    7    2      0.80      0.00
   14    7    2     -0.30      0.00
   13    7    2      0.28      0.00
   12    7    2     -0.62      0.00
   11    7    2     -0.48      0.00
   10    7    2      1.33      0.00
    9    7    2     -0.55      0.00
    8    7    2     -1.13      0.00
    7    7    2      1.46      0.00
    6    7    2     -0.08      0.00
    5    7    2     -1.42      0.00
    4    7    2      0.99      0.00
    3    7    2      0.91      0.00
    2    7    2     -0.47      0.00
    1    7    2     -0.59      0.00
    0    7    2     -0.17      0.00
   17    7    3      0.28      0.00
   16    7    3      0.85      0.00
   15    7    3     -0.24      0.00
   14    7    3     -0.03      0.00
   13    7    3     -0.24      0.00
   12    7    3     -0.76      0.00
   11    7    3      1.27      0.00
   10    7    3      0.61      0.00
    9    7    3     -2.06      0.00
    8    7    3      0.24      0.00
    7    7    3      1.60      0.00
    6    7    3     -1.21      0.00
    5    7    3     -0.24      0.00
    4    7    3      1.51      0.00
    3    7    3     -0.06      0.00
    2    7    3     -0.84      0.00
    1    7    3     -0.90      0.00
    0    7    3      0.30      0.00
   17    7    4      0.11      0.00
   16    7    4     -0.38      0.00
   15    7    4      0.19      0.00
   14    7    4      0.23      0.00
   13    7    4     -0.74      0.00
   12    7    4      0.68      0.00
   11    7    4      1.20      0.00
   10    7    4     -1.50      0.00
    9    7    4     -1.31      0.00
    8    7    4      1.54      0.00
    7    7    4      0.51      0.00
    6    7    4     -0.87      0.00
    5    7    4      0.75      0.00
    4    7    4      0.55      0.00
    3    7    4     -0.41      0.00
    2    7    4     -1.40      0.00
    1    7    4     -1.28      0.00
    0    7    4      2.12      0.00
   16    7    5      0.52      0.00
   15    7    5      1.27      0.00
   14    7    5     -0.64      0.00
   13    7    5     -0.35      0.00
   12    7    5      1.05      0.00
   11    7    5     -0.48      0.00
   10    7    5     -1.51      0.00
    9    7    5      0.11      0.00
    8    7    5      1.42      0.00
    7    7    5      0.50      0.00
    6    7    5     -0.23      0.00
    5    7    5     -0.18      0.00
    4    7    5     -0.17      0.00
    3    7    5     -0.91      0.00
    2    7    5     -2.21      0.00
    1    7    5      1.85      0.00
    0    7    5      4.10      0.00
   14    7    6     -1.58      0.00
   13    7    6      0.24      0.00
   12    7    6      0.47      0.00
   11    7    6     -0.70      0.00
   10    7    6     -0.62      0.00
    9    7    6      0.69      0.00
    8    7    6      1.77      0.00
    7    7    6      0.08      0.00
    6    7    6     -1.62      0.00
    5    7    6     -0.82      0.00
    4    7    6     -0.03      0.00
    3    7    6     -1.20      0.00
    2    7    6      1.14      0.00
    1    7    6      4.92      0.00
    0    7    6     -1.30      0.00
   13    7    7      1.08      0.00
   12    7    7      0.38      0.00
   11    7    7     -0.58      0.00
   10    7    7     -0.03      0.00
    9    7    7      1.27      0.00
    8    7    7      0.49      0.00
    7    7    7     -1.88      0.00
    6    7    7     -1.37      0.00
    5    7    7      0.53      0.00
    4    7    7      0.38      0.00
    3    7    7      1.00      0.00
    2    7    7      3.65      0.00
    1    7    7     -0.92      0.00
    0    7    7     -6.26      0.00
   10    7    8      0.61      0.00
    9    7    8     -0.37      0.00
    8    7    8     -1.31      0.00
    7    7    8     -0.39      0.00
    6    7    8      1.02      0.00
    5    7    8      0.94      0.00
    4    7    8      0.54      0.00
    3    7    8      1.63      0.00
    2    7    8     -0.66      0.00
    1    7    8     -5.49      0.00
    0    7    8      0.02      0.00
    6    7    9      0.52      0.00
    5    7    9     -0.51      0.00
    4    7    9     -0.64      0.00
    3    7    9     -0.47      0.00
    2    7    9     -2.41      0.00
    1    7    9     -0.38      0.00
    0    8    0      2.50      0.00
    2    8    0     -2.66      0.00
    4    8    0      2.64      0.00
    6    8    0     -1.78      0.00
    8    8    0      0.21      0.00
   10    8    0      0.88      0.00
   11    8    1      1.10      0.00
   10    8    1      0.04      0.00
    9    8    1     -1.11      0.00
    8    8    1      0.96      0.00
    7    8    1     -0.15      0.00
    6    8    1     -1.30      0.00
    5    8    1      1.69      0.00
    4    8    1      1.18      0.00
    3    8    1     -2.21      0.00
    2    8    1     -1.74      0.00
    1    8    1      1.73      0.00
    0    8    1      2.25      0.00
   10    8    2     -2.00      0.00
    9    8    2      0.07      0.00
    8    8    2      2.18      0.00
    7    8    2     -1.22      0.00
    6    8    2     -0.55      0.00
    5    8    2      1.40      0.00
    4    8    2     -1.13      0.00
    3    8    2     -1.81      0.00
    2    8    2      0.56      0.00
    1    8    2      2.66      0.00
    0    8    2      0.42      0.00
    9    8    3      2.78      0.00
    8    8    3      0.40      0.00
    7    8    3     -2.40      0.00
    6    8    3      0.46      0.00
    5    8    3      0.08      0.00
    4    8    3     -1.12      0.00
    3    8    3      0.28      0.00
    2    8    3      1.38      0.00
    1    8    3      1.77      0.00
    0    8    3     -1.34      0.00
    6    8    4      0.68      0.00
    5    8    4     -0.52      0.00
    4    8    4      0.44      0.00
    3    8    4      0.59      0.00
    2    8    4      1.43      0.00
    1    8    4      0.97      0.00
    2    0    0    -69.33      0.00
    0    1    0    -88.90      0.00
   32    2    0     -0.58      0.00
    0    3    0    -17.61      0.00
   32    3    0     -0.64      0.00
   28    4    0      0.51      0.00
   30    4    0     -1.29      0.00
   32    4    0      0.46      0.00
   26    5    0     -1.00      0.00
   28    5    0      0.41      0.00
   30    5    0     -0.12      0.00
   24    6    0     -1.44      0.00
   26    6    0      0.85      0.00
   20    7    0      1.78      0.00
   22    7    0     -1.34      0.00
   24    7    0      0.78      0.00
   12    8    0     -0.28      0.00
   14    8    0     -1.09      0.00
   16    8    0      1.02      0.00
   18    8    0      0.04      0.00
    0    9    0     -2.74      0.00
    2    9    0      3.11      0.00
    4    9    0     -3.03      0.00
    6    9    0      1.17      0.00
    8    9    0      1.09      0.00
   10    9    0     -1.25      0.00
    0    0    1     32.59      0.00
   33    0    1     -2.29      0.00
    1    1    1    -64.11      0.00
   33    1    1      1.74      0.00
   32    2    1     -0.43      0.00
   33    2    1     -0.74      0.00
   31    3    1      1.21      0.00
   32    3    1     -0.30      0.00
   33    3    1      0.25      0.00
   28    4    1     -1.09      0.00
   29    4    1      1.46      0.00
   30    4    1      0.55      0.00
   31    4    1     -0.94      0.00
   32    4    1      0.12      0.00
   26    5    1     -0.68      0.00
   27    5    1     -0.02      0.00
   28    5    1      1.13      0.00
   29    5    1     -0.38      0.00
   30    5    1     -0.88      0.00
   24    6    1     -0.56      0.00
   25    6    1     -0.24      0.00
   26    6    1      0.55      0.00
   27    6    1      0.11      0.00
   19    7    1     -0.66      0.00
   20    7    1      0.94      0.00
   21    7    1      0.90      0.00
   22    7    1     -0.71      0.00
   23    7    1     -0.27      0.00
   24    7    1      0.50      0.00
   12    8    1     -0.10      0.00
   13    8    1      0.00      0.00
   14    8    1     -0.87      0.00
   15    8    1     -0.74      0.00
   16    8    1      1.07      0.00
   17    8    1      0.25      0.00
   18    8    1     -0.38      0.00
   19    8    1      0.25      0.00
    0    9    1     -2.24      0.00
    1    9    1     -1.54      0.00
    2    9    1      1.92      0.00
    3    9    1      2.28      0.00
    4    9    1     -1.48      0.00
    5    9    1     -1.51      0.00
    6    9    1      1.14      0.00
    7    9    1     -0.71      0.00
    8    9    1     -0.42      0.00
    9    9    1      1.78      0.00
   10    9    1     -0.09      0.00
    6    0    2    -14.36      0.00
   33    0    2     -2.23      0.00
   33    1    2      1.51      0.00
   32    2    2      0.07      0.00
   33    2    2     -0.29      0.00
   31    3    2     -0.39      0.00
   32    3    2      0.27      0.00
   33    3    2     -0.16      0.00
   28    4    2     -1.91      0.00
   29    4    2     -1.10      0.00
   30    4    2      1.90      0.00
   31    4    2      0.45      0.00
   32    4    2     -0.30      0.00
   26    5    2     -0.29      0.00
   27    5    2     -0.52      0.00
   28    5    2      1.27      0.00
   29    5    2      0.93      0.00
   30    5    2     -1.04      0.00
   23    6    2     -0.08      0.00
   24    6    2     -0.46      0.00
   25    6    2      0.56      0.00
   26    6    2      0.62      0.00
   27    6    2     -0.07      0.00
   19    7    2     -0.23      0.00
   20    7    2      0.20      0.00
   21    7    2      0.41      0.00
   22    7    2     -0.34      0.00
   23    7    2      0.22      0.00
   11    8    2      0.94      0.00
   12    8    2      1.08      0.00
   13    8    2     -0.10      0.00
   14    8    2     -0.41      0.00
   15    8    2     -1.21      0.00
   16    8    2      0.08      0.00
   17    8    2      0.92      0.00
   18    8    2     -0.09      0.00
    0    9    2     -1.07      0.00
    1    9    2     -1.96      0.00
    2    9    2      0.00      0.00
    3    9    2      1.67      0.00
    4    9    2      0.78      0.00
    5    9    2     -1.33      0.00
    6    9    2      0.76      0.00
    7    9    2      0.60      0.00
    8    9    2     -2.19      0.00
    9    9    2      0.31      0.00
   10    9    2      1.65      0.00
    6    0    3     16.36      0.00
   32    0    3      1.68      0.00
   33    0    3      0.90      0.00
   32    1    3     -1.28      0.00
   33    1    3     -0.69      0.00
   32    2    3      0.60      0.00
   33    2    3      0.24      0.00
   30    3    3      0.60      0.00
   31    3    3     -1.75      0.00
   32    3    3     -0.28      0.00
   33    3    3      0.08      0.00
   28    4    3      0.07      0.00
   29    4    3     -2.72      0.00
   30    4    3     -0.28      0.00
   31    4    3      1.49      0.00
   32    4    3      0.16      0.00
   26    5    3     -0.59      0.00
   27    5    3     -0.76      0.00
   28    5    3      0.39      0.00
   29    5    3      1.34      0.00
   23    6    3      0.23      0.00
   24    6    3     -1.35      0.00
   25    6    3      0.05      0.00
   26    6    3      1.26      0.00
   27    6    3      0.01      0.00
   18    7    3     -0.66      0.00
   19    7    3     -0.28      0.00
   20    7    3      0.24      0.00
   21    7    3      0.17      0.00
   22    7    3     -0.68      0.00
   23    7    3     -0.06      0.00
   10    8    3     -1.37      0.00
   11    8    3     -1.38      0.00
   12    8    3      1.48      0.00
   13    8    3      0.63      0.00
   14    8    3     -0.18      0.00
   15    8    3     -0.43      0.00
   16    8    3     -0.82      0.00
   17    8    3     -0.06      0.00
   18    8    3      0.39      0.00
    0    9    3      0.18      0.00
    1    9    3     -1.70      0.00
    2    9    3     -0.56      0.00
    3    9    3     -0.09      0.00
    4    9    3      0.87      0.00
    5    9    3     -0.13      0.00
    6    9    3     -0.28      0.00
    7    9    3      1.82      0.00
    8    9    3     -0.55      0.00
    9    9    3     -1.91      0.00
   31    0    4     -2.60      0.00
   32    0    4     -2.64      0.00
   33    0    4      1.50      0.00
   32    1    4      1.66      0.00
   33    1    4     -0.99      0.00
   31    2    4     -1.06      0.00
   32    2    4      0.15      0.00
   33    2    4      0.13      0.00
   30    3    4      2.30      0.00
   31    3    4      0.19      0.00
   32    3    4     -0.99      0.00
   33    3    4      0.26      0.00
   28    4    4      1.44      0.00
   29    4    4     -1.19      0.00
   30    4    4     -1.76      0.00
   31    4    4      0.21      0.00
   26    5    4     -0.19      0.00
   27    5    4     -1.30      0.00
   28    5    4     -0.25      0.00
   29    5    4      0.83      0.00
   22    6    4     -0.05      0.00
   23    6    4      0.83      0.00
   24    6    4     -0.12      0.00
   25    6    4     -0.90      0.00
   26    6    4      0.68      0.00
   18    7    4      0.10      0.00
   19    7    4     -0.03      0.00
   20    7    4      0.05      0.00
   21    7    4      0.10      0.00
   22    7    4     -0.33      0.00
    0    8    4     -3.10      0.00
    7    8    4     -0.88      0.00
    8    8    4     -2.25      0.00
    9    8    4      1.51      0.00
   10    8    4      1.52      0.00
   11    8    4     -1.56      0.00
   12    8    4     -0.12      0.00
   13    8    4      1.14      0.00
   14    8    4     -0.11      0.00
   15    8    4      0.00      0.00
   16    8    4      0.12      0.00
   17    8    4     -0.66      0.00
    0    9    4      1.91      0.00
    1    9    4     -0.94      0.00
    2    9    4     -0.77      0.00
    3    9    4     -0.55      0.00
    4    9    4     -0.38      0.00
    5    9    4      0.61      0.00
    6    9    4     -0.51      0.00
    7    9    4      0.46      0.00
    8    9    4      1.39      0.00
   31    0    5      2.32      0.00
   32    0    5     -3.12      0.00
   33    0    5     -1.21      0.00
   31    1    5     -1.16      0.00
   32    1    5      2.31      0.00
   33    1    5      0.81      0.00
   31    2    5     -0.79      0.00
   32    2    5     -0.89      0.00
   33    2    5     -0.13      0.00
   29    3    5     -1.02      0.00
   30    3    5     -0.30      0.00
   31    3    5      1.29      0.00
   32    3    5      0.13      0.00
   28    4    5      1.87      0.00
   29    4    5      0.04      0.00
   30    4    5     -0.65      0.00
   31    4    5     -0.61      0.00
   25    5    5     -0.47      0.00
   26    5    5      1.27      0.00
   27    5    5     -0.94      0.00
   28    5    5     -1.30      0.00
   22    6    5     -0.57      0.00
   23    6    5     -1.06      0.00
   24    6    5      0.69      0.00
   25    6    5      0.26      0.00
   26    6    5     -0.33      0.00
   17    7    5     -1.02      0.00
   18    7    5     -0.62      0.00
   19    7    5      0.44      0.00
   20    7    5      0.53      0.00
   21    7    5     -0.29      0.00
   22    7    5     -0.23      0.00
    0    8    5     -4.16      0.00
    1    8    5     -2.77      0.00
    2    8    5      1.90      0.00
    3    8    5      0.83      0.00
    4    8    5      0.85      0.00
    5    8    5      0.47      0.00
    6    8    5     -0.11      0.00
    7    8    5      0.23      0.00
    8    8    5     -1.25      0.00
    9    8    5     -1.02      0.00
   10    8    5      1.06      0.00
   11    8    5      0.23      0.00
   12    8    5     -0.69      0.00
   13    8    5      0.68      0.00
   14    8    5      0.37      0.00
   15    8    5     -0.49      0.00
   16    8    5      0.34      0.00
    0    9    5      2.16      0.00
    1    9    5      1.61      0.00
    2    9    5     -0.65      0.00
    3    9    5     -0.64      0.00
    4    9    5     -0.98      0.00
    5    9    5      0.04      0.00
   30    0    6     -0.49      0.00
   31    0    6      2.99      0.00
   32    0    6      0.79      0.00
   33    0    6     -1.21      0.00
   31    1    6     -2.33      0.00
   32    1    6     -0.19      0.00
   33    1    6      0.83      0.00
   30    2    6      1.70      0.00
   31    2    6      1.28      0.00
   32    2    6     -0.75      0.00
   33    2    6     -0.27      0.00
   29    3    6      0.89      0.00
   30    3    6     -1.29      0.00
   31    3    6     -0.79      0.00
   32    3    6      0.80      0.00
   27    4    6     -0.97      0.00
   28    4    6      1.75      0.00
   29    4    6      0.15      0.00
   30    4    6      0.02      0.00
   24    5    6      1.08      0.00
   25    5    6     -1.77      0.00
   26    5    6      0.83      0.00
   27    5    6      0.84      0.00
   28    5    6     -1.51      0.00
   21    6    6      0.31      0.00
   22    6    6      1.05      0.00
   23    6    6     -1.75      0.00
   24    6    6     -1.21      0.00
   25    6    6      1.04      0.00
   15    7    6      0.11      0.00
   16    7    6      2.05      0.00
   17    7    6      0.29      0.00
   18    7    6     -1.36      0.00
   19    7    6     -0.60      0.00
   20    7    6      0.83      0.00
   21    7    6      0.13      0.00
    0    8    6      2.24      0.00
    1    8    6     -5.69      0.00
    2    8    6     -1.99      0.00
    3    8    6      1.35      0.00
    4    8    6      0.68      0.00
    5    8    6      1.00      0.00
    6    8    6      0.84      0.00
    7    8    6      0.01      0.00
    8    8    6     -0.53      0.00
    9    8    6     -0.70      0.00
   10    8    6     -0.27      0.00
   11    8    6      0.20      0.00
   12    8    6     -0.31      0.00
   13    8    6      0.05      0.00
   14    8    6      0.81      0.00
   15    8    6     -0.01      0.00
   29    0    7      0.36      0.00
   30    0    7     -0.42      0.00
   31    0    7     -0.60      0.00
   32    0    7      0.79      0.00
   33    0    7      0.27      0.00
   30    1    7      0.35      0.00
   31    1    7     -0.04      0.00
   32    1    7     -0.38      0.00
   33    1    7     -0.04      0.00
   29    2    7     -1.73      0.00
   30    2    7     -0.45      0.00
   31    2    7      1.21      0.00
   32    2    7     -0.07      0.00
   28    3    7     -0.77      0.00
   29    3    7      1.11      0.00
   30    3    7      0.79      0.00
   31    3    7     -1.51      0.00
   26    4    7      0.47      0.00
   27    4    7     -1.45      0.00
   28    4    7      0.75      0.00
   29    4    7      0.34      0.00
   23    5    7     -0.27      0.00
   24    5    7      2.21      0.00
   25    5    7     -0.13      0.00
   26    5    7     -0.51      0.00
   27    5    7      1.26      0.00
   19    6    7      0.97      0.00
   20    6    7      0.54      0.00
   21    6    7     -0.18      0.00
   22    6    7      1.52      0.00
   23    6    7      0.33      0.00
   24    6    7     -1.94      0.00
   14    7    7     -1.08      0.00
   15    7    7     -1.68      0.00
   16    7    7      0.94      0.00
   17    7    7      1.52      0.00
   18    7    7      0.04      0.00
   19    7    7     -0.89      0.00
   20    7    7     -0.09      0.00
    0    8    7      7.13      0.00
    1    8    7      0.70      0.00
    2    8    7     -4.75      0.00
    3    8    7     -1.32      0.00
    4    8    7      0.66      0.00
    5    8    7     -0.10      0.00
    6    8    7      0.83      0.00
    7    8    7      1.65      0.00
    8    8    7     -0.05      0.00
    9    8    7     -0.87      0.00
   10    8    7     -0.27      0.00
   11    8    7      0.05      0.00
   12    8    7     -0.23      0.00
   13    8    7     -0.55      0.00
   28    0    8     -2.75      0.00
   29    0    8     -2.04      0.00
   30    0    8      1.69      0.00
   31    0    8      0.11      0.00
   32    0    8     -0.84      0.00
   29    1    8      1.62      0.00
   30    1    8     -1.02      0.00
   31    1    8     -0.25      0.00
   32    1    8      0.68      0.00
   28    2    8      0.00      0.00
   29    2    8     -0.64      0.00
   30    2    8     -0.34      0.00
   31    2    8      0.36      0.00
   27    3    8     -0.31      0.00
   28    3    8     -0.39      0.00
   29    3    8     -0.27      0.00
   30    3    8      1.12      0.00
   25    4    8     -1.29      0.00
   26    4    8     -0.11      0.00
   27    4    8     -0.41      0.00
   28    4    8      0.05      0.00
   22    5    8      0.48      0.00
   23    5    8     -1.29      0.00
   24    5    8     -0.43      0.00
   25    5    8      1.00      0.00
   26    5    8      0.16      0.00
   18    6    8     -0.39      0.00
   19    6    8     -0.71      0.00
   20    6    8      0.37      0.00
   21    6    8      0.24      0.00
   22    6    8      0.36      0.00
   23    6    8      1.25      0.00
   11    7    8     -0.32      0.00
   12    7    8     -0.62      0.00
   13    7    8      1.36      0.00
   14    7    8      0.67      0.00
   15    7    8     -1.54      0.00
   16    7    8     -0.48      0.00
   17    7    8      0.65      0.00
   18    7    8      0.46      0.00
    0    8    8      0.94      0.00
    1    8    8      4.86      0.00
    2    8    8     -0.03      0.00
    3    8    8     -2.59      0.00
    4    8    8     -0.26      0.00
    5    8    8     -0.13      0.00
    6    8    8     -1.46      0.00
    7    8    8      0.89      0.00
    8    8    8      2.04      0.00
    9    8    8     -0.07      0.00
   10    8    8     -0.86      0.00
   11    8    8     -0.02      0.00
   27    0    9      4.46      0.00
   28    0    9      1.59      0.00
   29    0    9     -3.40      0.00
   30    0    9     -0.84      0.00
   31    0    9      1.22      0.00
   27    1    9     -3.59      0.00
   28    1    9     -1.17      0.00
   29    1    9      2.60      0.00
   30    1    9      0.49      0.00
   31    1    9     -1.10      0.00
   27    2    9      1.87      0.00
   28    2    9      0.37      0.00
   29    2    9     -0.99      0.00
   30    2    9      0.00      0.00
   26    3    9      1.08      0.00
   27    3    9     -0.55      0.00
   28    3    9      0.05      0.00
   29    3    9     -0.12      0.00
   23    4    9     -2.79      0.00
   24    4    9      2.57      0.00
   25    4    9      1.11      0.00
   26    4    9     -1.15      0.00
   27    4    9     -0.38      0.00
   20    5    9      0.72      0.00
   21    5    9     -1.74      0.00
   22    5    9      0.72      0.00
   23    5    9      1.30      0.00
   24    5    9     -1.64      0.00
   25    5    9     -0.87      0.00
   16    6    9     -0.15      0.00
   17    6    9     -0.99      0.00
   18    6    9      0.82      0.00
   19    6    9     -0.37      0.00
   20    6    9     -0.90      0.00
   21    6    9      0.48      0.00
    0    7    9      4.44      0.00
    7    7    9      1.88      0.00
    8    7    9      1.28      0.00
    9    7    9     -1.53      0.00
   10    7    9     -0.83      0.00
   11    7    9      0.88      0.00
   12    7    9     -1.03      0.00
   13    7    9     -0.48      0.00
   14    7    9      1.38      0.00
   15    7    9     -0.27      0.00
   16    7    9     -0.55      0.00
   17    7    9      0.40      0.00
    0    8    9     -2.00      0.00
    1    8    9      0.19      0.00
    2    8    9      1.80      0.00
    3    8    9      0.13      0.00
    4    8    9     -0.55      0.00
    5    8    9      0.70      0.00
    6    8    9     -0.96      0.00
    7    8    9     -1.80      0.00
    8    8    9      0.77      0.00
   25    0   10     -1.81      0.00
   26    0   10     -2.77      0.00
   27    0   10      0.92      0.00
   28    0   10      3.33      0.00
   29    0   10      0.33      0.00
   30    0   10     -1.71      0.00
   26    1   10      2.49      0.00
   27    1   10     -1.00      0.00
   28    1   10     -2.63      0.00
   29    1   10      0.08      0.00
   30    1   10      1.27      0.00
   26    2   10     -1.74      0.00
   27    2   10      0.92      0.00
   28    2   10      1.29      0.00
   29    2   10     -0.59      0.00
   24    3   10      0.62      0.00
   25    3   10     -1.26      0.00
   26    3   10      0.80      0.00
   27    3   10     -0.25      0.00
   28    3   10     -0.47      0.00
   22    4   10      2.57      0.00
   23    4   10     -3.73      0.00
   24    4   10     -1.18      0.00
   25    4   10      2.38      0.00
   26    4   10     -0.04      0.00
   18    5   10      0.37      0.00
   19    5   10     -0.96      0.00
   20    5   10      1.19      0.00
   21    5   10     -1.38      0.00
   22    5   10     -1.64      0.00
   23    5   10      2.15      0.00
   14    6   10      0.20      0.00
   15    6   10      0.77      0.00
   16    6   10      0.48      0.00
   17    6   10     -2.03      0.00
   18    6   10     -0.24      0.00
   19    6   10      0.89      0.00
   20    6   10     -0.76      0.00
    0    7   10     -0.61      0.00
    1    7   10      1.75      0.00
    2    7   10      1.35      0.00
    3    7   10      0.94      0.00
    4    7   10     -1.23      0.00
    5    7   10     -2.02      0.00
    6    7   10     -1.18      0.00
    7    7   10     -0.20      0.00
    8    7   10      2.67      0.00
    9    7   10      1.46      0.00
   10    7   10     -1.87      0.00
   11    7   10      0.42      0.00
   12    7   10      0.83      0.00
   13    7   10     -1.53      0.00
   14    7   10     -0.11      0.00
    0    8   10      1.69      0.00
    1    8   10     -0.49      0.00
    2    8   10     -1.20      0.00
   24    0   11      2.47      0.00
   25    0   11     -0.55      0.00
   26    0   11     -2.01      0.00
   27    0   11     -0.75      0.00
   28    0   11      0.61      0.00
   29    0   11      1.28      0.00
   25    1   11      0.25      0.00
   26    1   11      1.98      0.00
   27    1   11      0.65      0.00
   28    1   11     -0.71      0.00
   24    2   11      0.99      0.00
   25    2   11      0.26      0.00
   26    2   11     -1.53      0.00
   27    2   11     -0.45      0.00
   28    2   11      0.79      0.00
   23    3   11     -0.55      0.00
   24    3   11      1.42      0.00
   25    3   11     -0.45      0.00
   26    3   11      0.42      0.00
   20    4   11     -1.24      0.00
   21    4   11     -0.65      0.00
   22    4   11      3.80      0.00
   23    4   11      0.37      0.00
   24    4   11     -2.64      0.00
   16    5   11     -3.36      0.00
   17    5   11      1.05      0.00
   18    5   11      2.63      0.00
   19    5   11     -0.12      0.00
   20    5   11      0.82      0.00
   21    5   11      0.40      0.00
   22    5   11     -2.33      0.00
   11    6   11      0.53      0.00
   12    6   11     -1.65      0.00
   13    6   11     -0.26      0.00
   14    6   11      0.58      0.00
   15    6   11      1.13      0.00
   16    6   11      2.08      0.00
   17    6   11     -0.56      0.00
   18    6   11     -1.64      0.00
    0    7   11     -2.46      0.00
    1    7   11     -2.94      0.00
    2    7   11      0.88      0.00
    3    7   11      3.82      0.00
    4    7   11      1.60      0.00
    5    7   11     -2.12      0.00
    6    7   11     -1.35      0.00
    7    7   11     -1.37      0.00
    8    7   11     -0.59      0.00
    9    7   11      2.34      0.00
   10    7   11      0.18      0.00
   11    7   11     -0.91      0.00
   23    0   12     -1.22      0.00
   24    0   12      2.05      0.00
   25    0   12      0.81      0.00
   26    0   12     -1.43      0.00
   27    0   12     -0.18      0.00
   23    1   12      1.25      0.00
   24    1   12     -1.58      0.00
   25    1   12     -1.07      0.00
   26    1   12      1.03      0.00
   27    1   12      0.36      0.00
   22    2   12     -1.17      0.00
   23    2   12     -0.58      0.00
   24    2   12      0.53      0.00
   25    2   12      1.13      0.00
   26    2   12     -0.33      0.00
   21    3   12      0.89      0.00
   22    3   12     -0.09      0.00
   23    3   12     -1.10      0.00
   24    3   12      0.30      0.00
   25    3   12     -0.40      0.00
   17    4   12      2.06      0.00
   18    4   12     -0.78      0.00
   19    4   12     -0.91      0.00
   20    4   12     -0.34      0.00
   21    4   12     -1.84      0.00
   22    4   12      0.78      0.00
   23    4   12      2.06      0.00
    1    5   12     -6.11      0.00
   13    5   12     -0.33      0.00
   14    5   12      2.34      0.00
   15    5   12      1.13      0.00
   16    5   12     -2.71      0.00
   17    5   12     -2.34      0.00
   18    5   12      1.01      0.00
   19    5   12      0.92      0.00
   20    5   12      0.64      0.00
    0    6   12     -4.54      0.00
    1    6   12      6.62      0.00
    2    6   12      5.78      0.00
    3    6   12     -5.15      0.00
    4    6   12     -6.67      0.00
    5    6   12      1.68      0.00
    6    6   12      3.64      0.00
    7    6   12      0.73      0.00
    8    6   12      0.47      0.00
    9    6   12     -0.54      0.00
   10    6   12     -0.79      0.00
   11    6   12      0.62      0.00
   12    6   12     -0.38      0.00
   13    6   12     -1.10      0.00
   14    6   12     -0.86      0.00
   15    6   12     -0.24      0.00
    0    7   12      2.11      0.00
    1    7   12     -4.09      0.00
    2    7   12     -3.20      0.00
    3    7   12      1.84      0.00
    4    7   12      3.87      0.00
    5    7   12      0.11      0.00
    6    7   12     -1.34      0.00
    7    7   12      0.02      0.00
   21    0   13      1.60      0.00
   22    0   13     -0.09      0.00
   23    0   13     -1.23      0.00
   24    0   13      0.34      0.00
   25    0   13      1.12      0.00
   21    1   13     -1.54      0.00
   22    1   13     -0.21      0.00
   23    1   13      1.07      0.00
   24    1   13      0.11      0.00
   25    1   13     -0.87      0.00
   20    2   13     -1.04      0.00
   21    2   13      1.17      0.00
   22    2   13      0.49      0.00
   23    2   13     -0.51      0.00
   24    2   13     -0.67      0.00
   18    3   13     -1.25      0.00
   19    3   13      0.77      0.00
   20    3   13      0.76      0.00
   21    3   13     -0.21      0.00
   22    3   13      0.00      0.00
   23    3   13     -0.22      0.00
   14    4   13     -0.09      0.00
   15    4   13     -1.48      0.00
   16    4   13     -0.54      0.00
   17    4   13      1.04      0.00
   18    4   13      1.10      0.00
   19    4   13     -0.45      0.00
   20    4   13     -0.29      0.00
   21    4   13     -0.79      0.00
    4    5   13      6.53      0.00
    5    5   13      2.58      0.00
    8    5   13      0.06      0.00
    9    5   13      1.49      0.00
   10    5   13      0.49      0.00
   11    5   13      1.63      0.00
   12    5   13     -0.04      0.00
   13    5   13     -1.95      0.00
   14    5   13      0.19      0.00
   15    5   13      1.86      0.00
   16    5   13      0.22      0.00
   17    5   13     -1.56      0.00
    0    6   13     -9.49      0.00
    1    6   13     -1.73      0.00
    2    6   13      9.12      0.00
    3    6   13      2.39      0.00
    4    6   13     -6.77      0.00
    5    6   13     -3.00      0.00
    6    6   13      2.50      0.00
    7    6   13      1.80      0.00
    8    6   13      0.17      0.00
    9    6   13     -0.03      0.00
   10    6   13      0.01      0.00
   11    6   13      0.03      0.00
   12    6   13     -0.17      0.00
   19    0   14      0.29      0.00
   20    0   14     -0.34      0.00
   21    0   14      0.33      0.00
   22    0   14      0.02      0.00
   23    0   14     -0.26      0.00
   19    1   14     -0.58      0.00
   20    1   14      0.79      0.00
   21    1   14     -0.07      0.00
   22    1   14     -0.25      0.00
   23    1   14      0.05      0.00
   17    2   14     -0.56      0.00
   18    2   14      1.05      0.00
   19    2   14      0.87      0.00
   20    2   14     -1.48      0.00
   21    2   14     -0.35      0.00
   22    2   14      0.54      0.00
   15    3   14      0.43      0.00
   16    3   14      0.06      0.00
   17    3   14      0.52      0.00
   18    3   14     -1.09      0.00
   19    3   14     -0.64      0.00
   20    3   14      1.27      0.00
   21    3   14      0.46      0.00
   10    4   14      0.11      0.00
   11    4   14     -1.42      0.00
   12    4   14     -2.47      0.00
   13    4   14      1.17      0.00
   14    4   14      1.21      0.00
   15    4   14     -0.03      0.00
   16    4   14     -0.07      0.00
   17    4   14     -0.30      0.00
   18    4   14      0.64      0.00
    0    5   14      0.41      0.00
    1    5   14      9.64      0.00
    2    5   14     -1.80      0.00
    3    5   14     -6.22      0.00
    4    5   14      2.07      0.00
    5    5   14      4.21      0.00
    6    5   14      1.22      0.00
    7    5   14     -3.13      0.00
    8    5   14     -2.59      0.00
    9    5   14      0.96      0.00
   10    5   14     -0.21      0.00
   11    5   14      0.21      0.00
   12    5   14      1.97      0.00
   13    5   14     -0.07      0.00
   14    5   14     -0.90      0.00
    0    6   14     -1.45      0.00
    1    6   14     -6.73      0.00
    2    6   14      1.99      0.00
    3    6   14      5.75      0.00
    4    6   14     -1.66      0.00
    5    6   14     -3.63      0.00
    6    6   14     -0.24      0.00
    7    6   14      1.05      0.00
   15    0   15      1.53      0.00
   16    0   15      0.61      0.00
   17    0   15     -1.07      0.00
   18    0   15     -0.63      0.00
   19    0   15      0.34      0.00
   20    0   15      0.09      0.00
   21    0   15      0.28      0.00
   15    1   15     -1.08      0.00
   16    1   15      0.02      0.00
   17    1   15      0.99      0.00
   18    1   15      0.39      0.00
   19    1   15     -0.78      0.00
   20    1   15      0.00      0.00
   21    1   15      0.01      0.00
   14    2   15      1.40      0.00
   15    2   15      0.43      0.00
   16    2   15     -0.73      0.00
   17    2   15     -0.85      0.00
   18    2   15      0.09      0.00
   19    2   15      1.42      0.00
   20    2   15     -0.22      0.00
   11    3   15      0.62      0.00
   12    3   15      1.47      0.00
   13    3   15      0.65      0.00
   14    3   15     -1.32      0.00
   15    3   15     -0.22      0.00
   16    3   15      0.31      0.00
   17    3   15      0.53      0.00
   18    3   15     -0.32      0.00
    0    4   15      4.76      0.00
    1    4   15     -3.03      0.00
    2    4   15     -2.44      0.00
    3    4   15      1.13      0.00
    4    4   15      0.34      0.00
    5    4   15     -0.31      0.00
    6    4   15     -2.42      0.00
    7    4   15     -0.04      0.00
    8    4   15      3.40      0.00
    9    4   15      0.28      0.00
   10    4   15     -0.38      0.00
   11    4   15      0.81      0.00
   12    4   15     -1.53      0.00
   13    4   15     -1.18      0.00
   14    4   15      0.34      0.00
   15    4   15     -0.02      0.00
    0    5   15     -5.87      0.00
    1    5   15      2.22      0.00
    2    5   15      3.35      0.00
    3    5   15     -2.81      0.00
    4    5   15     -0.83      0.00
    5    5   15      1.84      0.00
    6    5   15      2.14      0.00
    7    5   15      0.33      0.00
    8    5   15     -2.51      0.00
    9    5   15     -0.43      0.00
   10    5   15      0.32      0.00
    9    0   16      2.94      0.00
   10    0   16      0.45      0.00
   11    0   16     -2.31      0.00
   12    0   16      2.18      0.00
   13    0   16      0.86      0.00
   14    0   16     -2.07      0.00
   15    0   16     -0.28      0.00
   16    0   16      1.53      0.00
   17    0   16      0.07      0.00
   18    0   16     -0.93      0.00
   10    1   16     -1.39      0.00
   11    1   16      1.88      0.00
   12    1   16     -1.51      0.00
   13    1   16     -0.33      0.00
   14    1   16      1.33      0.00
   15    1   16     -0.27      0.00
   16    1   16     -0.91      0.00
   17    1   16      0.24      0.00
   18    1   16      0.87      0.00
    9    2   16      0.53      0.00
   10    2   16      2.34      0.00
   11    2   16     -0.83      0.00
   12    2   16      0.24      0.00
   13    2   16     -0.76      0.00
   14    2   16     -0.24      0.00
   15    2   16      1.04      0.00
   16    2   16      0.08      0.00
   17    2   16     -0.65      0.00
    0    3   16     -2.08      0.00
    1    3   16      1.20      0.00
    2    3   16      1.53      0.00
    3    3   16      0.94      0.00
    4    3   16     -0.78      0.00
    5    3   16     -0.69      0.00
    6    3   16      0.08      0.00
    7    3   16     -0.09      0.00
    8    3   16      1.06      0.00
    9    3   16     -0.51      0.00
   10    3   16     -1.26      0.00
   11    3   16     -0.22      0.00
   12    3   16      0.28      0.00
   13    3   16      1.34      0.00
   14    3   16      0.08      0.00
   15    3   16     -0.78      0.00
    0    4   16      3.68      0.00
    1    4   16      0.59      0.00
    2    4   16     -1.70      0.00
    3    4   16      0.47      0.00
    4    4   16     -0.20      0.00
    5    4   16     -0.29      0.00
    6    4   16     -0.82      0.00
    7    4   16     -1.33      0.00
    8    4   16      1.20      0.00
    9    4   16      1.28      0.00
   10    4   16     -0.28      0.00
   11    4   16      0.70      0.00
    0    0   17      0.01      0.00
    1    0   17     -2.82      0.00
    2    0   17     -0.27      0.00
    3    0   17     -1.44      0.00
    4    0   17     -0.26      0.00
    5    0   17      1.96      0.00
    6    0   17      2.24      0.00
    7    0   17      0.61      0.00
    8    0   17     -3.21      0.00
    9    0   17     -0.35      0.00
   10    0   17      1.89      0.00
   11    0   17     -1.74      0.00
   12    0   17     -0.53      0.00
   13    0   17      2.19      0.00
   14    0   17      0.10      0.00
   15    0   17     -1.37      0.00
    0    1   17     -0.34      0.00
    1    1   17      2.71      0.00
    2    1   17      0.17      0.00
    3    1   17      2.20      0.00
    4    1   17      0.40      0.00
    5    1   17     -2.17      0.00
    6    1   17     -1.56      0.00
    7    1   17     -1.71      0.00
    8    1   17      2.40      0.00
    9    1   17      1.58      0.00
   10    1   17     -1.58      0.00
   11    1   17      1.15      0.00
   12    1   17      0.28      0.00
   13    1   17     -1.65      0.00
   14    1   17      0.06      0.00
    0    2   17      1.39      0.00
    1    2   17     -1.33      0.00
    2    2   17     -0.26      0.00
    3    2   17     -2.87      0.00
    4    2   17     -0.59      0.00
    5    2   17      1.91      0.00
    6    2   17      0.15      0.00
    7    2   17      2.62      0.00
    8    2   17     -0.67      0.00
    9    2   17     -2.70      0.00
   10    2   17      0.94      0.00
   11    2   17     -0.04      0.00
   12    2   17      0.14      0.00
   13    2   17      0.54      0.00
    0    3   17     -2.30      0.00
    1    3   17     -1.01      0.00
    2    3   17      0.68      0.00
    3    3   17      1.52      0.00
    4    3   17      0.44      0.00
    5    3   17     -0.52      0.00
    6    3   17      0.70      0.00
    7    3   17     -1.06      0.00
    8    3   17     -0.37      0.00
    9    3   17      1.17      0.00
   10    3   17     -0.49      0.00
    0    4   17      1.38      0.00
    1    4   17      1.24      0.00
    2    4   17     -0.66      0.00
    0    0    0      0.00      0.00
# SQUEEZE RESULTS (Version = 290617)
# Note: Data are Listed for all Voids in the P1 Unit Cell
# i.e. Centre of Gravity, Solvent Accessible Volume,
# Recovered number of Electrons in the Void and
# Details about the Squeezed Material
loop_
  _platon_squeeze_void_nr
  _platon_squeeze_void_average_x
  _platon_squeeze_void_average_y
  _platon_squeeze_void_average_z
  _platon_squeeze_void_volume
  _platon_squeeze_void_count_electrons
  _platon_squeeze_void_content
   1  0.250  0.500  0.811       166        49 ' '
   2  0.750  0.500  0.189       167        49 ' '
# Missing Reflections Below sin(th)/lambda = 0.25
loop_
  _platon_missing_refln_index_h
  _platon_missing_refln_index_k
  _platon_missing_refln_index_l
  _platon_missing_refln_theta
    2    0    0     3.215
    0    1    0     6.110
    0    3    0    18.620
    0    0    1     3.071
    1    1    1     7.031
    6    0    2    11.506
    6    0    3    13.455
_platon_squeeze_void_probe_radius                  1.20
_platon_squeeze_details
)
TITL exp_4312_a.res in Pmma
CELL   27.4940    7.2434   14.3883     90.00     90.00     90.00
SPGR Pmma
# Solvent Accessible Volume =       336
# Electrons Found in S.A.V. =        97
# Note: Atoms in Void are Labelled as Cxxx and Qxxx for all Others
C101 0.758 0.480 0.203 !       4.18 eA-3
C102 0.682 0.509 0.281 !       4.01 eA-3
C103 0.258 0.503 0.891 !       3.47 eA-3
Q104 0.414 0.509 0.406 !       3.09 eA-3
Q105 0.683 0.153 0.356 !       2.95 eA-3
C106 0.647 0.480 0.281 !       2.71 eA-3
Q107 1.001 1.009 0.297 !       2.67 eA-3
Q108 0.126 0.491 0.125 !       2.67 eA-3
Q109 0.069 0.868 0.478 !       2.65 eA-3
Q110 0.374 0.498 0.016 !       2.44 eA-3
Q111 0.892 0.519 0.156 !       2.11 eA-3
Q112 0.948 0.489 0.203 !       2.08 eA-3
Q113 0.626 0.610 0.935 !       2.02 eA-3
C114 0.355 0.440 0.771 !       1.93 eA-3
Q115 0.250 0.998 0.062 !       1.83 eA-3
Q116 0.250 1.003 0.172 !       1.74 eA-3
Q117 0.054 0.797 0.956 !       1.61 eA-3
Q118 0.250 0.991 0.297 !       1.46 eA-3
Q119 0.837 0.402 0.947 !       1.42 eA-3
Q120 0.814 0.994 0.047 !       1.41 eA-3
Q121 0.350 0.661 0.119 !       1.35 eA-3
Q122 0.650 0.339 0.881 !       1.35 eA-3
Q123 0.435 0.494 0.312 !       1.31 eA-3
Q124 0.780 0.516 0.641 !       1.30 eA-3
Q125 0.897 0.636 0.860 !       1.30 eA-3
Q126 0.204 0.203 0.080 !       1.25 eA-3
C127 0.821 0.497 0.187 !       1.25 eA-3
Q128 0.547 0.184 0.953 !       1.20 eA-3
Q129 0.250 1.011 0.375 !       1.20 eA-3
Q130 0.965 0.502 0.641 !       1.18 eA-3
C131 0.774 0.498 0.281 !       1.17 eA-3
C132 0.750 0.500 0.266 !       1.15 eA-3
Q133 0.592 0.991 0.875 !       1.14 eA-3
Q134 0.642 0.353 0.985 !       1.13 eA-3
Q135 0.312 0.206 0.160 !       1.12 eA-3
Q136 0.890 0.375 0.096 !       1.12 eA-3
Q137 0.189 0.499 0.391 !       1.08 eA-3
Q138 0.141 1.003 0.219 !       1.07 eA-3
Q139 0.649 0.912 0.419 !       1.07 eA-3
Q140 0.030 0.496 0.281 !       1.05 eA-3
Q141 0.883 0.746 0.046 !       1.03 eA-3
Q142 0.328 0.306 0.138 !       1.02 eA-3
Q143 0.154 0.516 0.453 !       1.01 eA-3
Q144 0.227 1.005 0.984 !       0.98 eA-3
Q145 0.750 1.007 0.344 !       0.98 eA-3
Q146 0.250 0.237 0.006 !       0.97 eA-3
Q147 0.710 0.365 0.175 !       0.95 eA-3
Q148 0.391 0.641 0.979 !       0.94 eA-3
Q149 0.618 0.753 0.129 !       0.94 eA-3
Q150 0.644 0.094 0.336 !       0.94 eA-3
Q151 0.229 0.333 0.969 !       0.94 eA-3
Q152 0.233 0.323 0.026 !       0.93 eA-3
Q153 0.101 0.327 0.016 !       0.92 eA-3
Q154 0.391 0.254 0.169 !       0.92 eA-3
Q155 0.923 1.000 0.141 !       0.91 eA-3
Q156 0.641 0.746 0.835 !       0.90 eA-3
Q157 0.996 0.500 0.344 !       0.90 eA-3
Q158 0.296 0.947 0.129 !       0.89 eA-3
Q159 0.860 0.511 0.609 !       0.89 eA-3
Q160 1.000 0.500 0.500 !       0.87 eA-3
Q161 0.381 0.504 0.469 !       0.86 eA-3
Q162 0.999 0.998 0.094 !       0.86 eA-3
Q163 0.485 0.480 0.844 !       0.84 eA-3
Q164 0.450 0.506 0.875 !       0.84 eA-3
Q165 0.181 0.411 0.940 !       0.83 eA-3
Q166 0.688 0.684 0.349 !       0.83 eA-3
Q167 0.586 1.010 0.094 !       0.82 eA-3
Q168 0.999 0.488 0.250 !       0.81 eA-3
Q169 0.118 1.013 0.734 !       0.80 eA-3
Q170 0.750 0.489 0.484 !       0.80 eA-3
Q171 0.750 0.592 0.311 !       0.77 eA-3
Q172 0.920 0.680 0.003 !       0.77 eA-3
Q173 0.227 0.499 0.281 !       0.75 eA-3
Q174 0.078 0.500 0.016 !       0.75 eA-3
Q175 0.110 0.995 0.219 !       0.74 eA-3
Q176 0.585 0.511 0.266 !       0.74 eA-3
Q177 0.132 1.008 0.391 !       0.73 eA-3
Q178 0.205 0.415-0.005 !       0.73 eA-3
Q179 0.197 0.524 0.954 !       0.73 eA-3
Q180 0.188 1.005 0.313 !       0.73 eA-3
Q181 0.773 0.977 0.219 !       0.73 eA-3
Q182 0.297 1.000 0.438 !       0.73 eA-3
Q183 0.242 0.710 0.801 !       0.73 eA-3
Q184 0.620 0.065 0.441 !       0.73 eA-3
Q185 0.750 0.507 0.406 !       0.70 eA-3
C186 0.819 0.487 0.109 !       0.70 eA-3
Q187 0.750 0.502 0.359 !       0.70 eA-3
Q188 0.273 1.014 0.438 !       0.69 eA-3
Q189 0.881 0.125 0.936 !       0.69 eA-3
Q190 0.282 0.493 0.438 !       0.68 eA-3
Q191 0.750 0.998 0.406 !       0.67 eA-3
Q192 0.149 0.184 0.826 !       0.67 eA-3
Q193 0.895 0.112 0.061 !       0.66 eA-3
Q194 0.047 0.482 0.156 !       0.66 eA-3
Q195 0.704 0.369 0.895 !       0.66 eA-3
Q196 0.375 0.801 0.115 !       0.65 eA-3
Q197 0.764 0.323 0.268 !       0.65 eA-3
Q198 0.881 0.067 0.727 !       0.65 eA-3
Q199 0.881 0.942 0.711 !       0.65 eA-3
)
;
_shelx_fab_checksum              30157
loop_
_space_group_symop_operation_xyz
'x, y, z'
'-x+1/2, -y, z'
'-x, y, -z'
'x+1/2, -y, -z'
'-x, -y, -z'
'x-1/2, y, -z'
'x, -y, z'
'-x-1/2, y, z'
loop_
_atom_site_label
_atom_site_type_symbol
_atom_site_fract_x
_atom_site_fract_y
_atom_site_fract_z
_atom_site_U_iso_or_equiv
_atom_site_adp_type
_atom_site_occupancy
_atom_site_site_symmetry_order
_atom_site_calc_flag
_atom_site_refinement_flags_posn
_atom_site_refinement_flags_adp
_atom_site_refinement_flags_occupancy
Pt1 Pt 0.37504(2) 0.5000 0.06645(3) 0.0165(3) Uani 1 2 d S T P
Fe2 Fe 0.5000 1.0000 0.0000 0.0112(6) Uani 1 4 d S T P
Fe1 Fe 0.2500 0.0000 0.12641(18) 0.0134(6) Uani 1 4 d S T P
N11 N 0.2998(3) 0.1966(14) 0.1229(8) 0.047(2) Uani 1 1 d . U .
C24 C 0.3280(4) 0.3052(17) 0.1033(11) 0.046(2) Uani 1 1 d . U .
N12 N 0.4490(4) 0.8006(14) 0.0046(9) 0.052(2) Uani 1 1 d . U .
C9 C 0.2500 0.0000 0.8284(18) 0.043(3) Uani 1 4 d S TU P
C25 C 0.4211(4) 0.6923(17) 0.0269(11) 0.047(2) Uani 1 1 d . U .
C4 C 0.2500 0.0000 0.4261(16) 0.037(3) Uani 1 4 d S TU P
C16 C 0.4995(10) 1.0000 -0.3014(19) 0.026(2) Uani 0.5 2 d S TU P
N1 N 0.2647(8) 0.0000 0.2613(19) 0.034(3) Uani 0.5 2 d S TU P
N7 N 0.5200(8) 1.0000 -0.155(2) 0.027(2) Uani 0.5 2 d S TU P
N6 N 0.4805(8) 1.0000 -0.1314(17) 0.027(2) Uani 0.5 2 d S TU P
C12 C 0.3294(12) 0.0000 0.863(3) 0.042(3) Uani 0.5 2 d S TU P
C11 C 0.3156(12) 0.0000 0.959(3) 0.042(3) Uani 0.5 2 d S TU P
C13 C 0.4325(10) 1.0000 -0.159(2) 0.027(2) Uani 0.5 2 d S TU P
N4 N 0.2788(9) 0.0000 0.6253(19) 0.040(3) Uani 0.5 2 d S TU P
C8 C 0.2947(11) 0.0000 0.793(2) 0.042(3) Uani 0.5 2 d S TU P
C1 C 0.3110(11) 0.0000 0.290(2) 0.034(3) Uani 0.5 2 d S TU P
C22 C 0.5649(10) 1.0000 -0.177(2) 0.027(2) Uani 0.5 2 d S TU P
N10 N 0.4712(9) 1.0000 -0.4927(18) 0.035(3) Uani 0.5 2 d S TU P
C20 C 0.5423(10) 1.0000 -0.339(2) 0.026(3) Uani 0.5 2 d S TU P
C21 C 0.5800(10) 1.0000 -0.272(2) 0.027(3) Uani 0.5 2 d S TU P
C14 C 0.4195(10) 1.0000 -0.251(2) 0.027(2) Uani 0.5 2 d S TU P
C3 C 0.2932(11) 0.0000 0.454(2) 0.037(3) Uani 0.5 2 d S TU P
C7 C 0.3083(12) 0.0000 0.696(2) 0.042(3) Uani 0.5 2 d S TU P
C23 C 0.4842(10) 1.0000 -0.216(2) 0.027(2) Uani 0.5 2 d S TU P
C2 C 0.3257(11) 0.0000 0.381(2) 0.036(3) Uani 0.5 2 d S TU P
N3 N 0.3541(10) 0.0000 0.671(2) 0.044(3) Uani 0.5 2 d S TU P
C18 C 0.4403(11) 1.0000 -0.418(2) 0.033(2) Uani 0.5 2 d S TU P
C6 C 0.3065(12) 0.0000 0.553(2) 0.040(3) Uani 0.5 2 d S TU P
C5 C 0.2692(11) 0.0000 0.326(2) 0.035(3) Uani 0.5 2 d S TU P
C19 C 0.4383(12) 1.0000 -0.562(2) 0.036(3) Uani 0.5 2 d S TU P
C10 C 0.2658(6) 0.0000 0.9278(14) 0.044(3) Uani 1 2 d S TU P
C15 C 0.4555(10) 1.0000 -0.319(2) 0.028(2) Uani 0.5 2 d S TU P
C17 C 0.5137(11) 1.0000 -0.202(2) 0.027(2) Uani 0.5 2 d S TU P
N5 N 0.2718(10) 0.0000 0.986(2) 0.041(3) Uani 0.5 2 d S TU P
C31 C 0.4156(18) -0.5000 0.407(3) 0.064(3) Uani 0.5 2 d S TU P
C33 C 0.2500 -0.5000 0.512(2) 0.066(3) Uani 1 4 d S TU P
C35 C 0.2500 -0.5000 0.345(2) 0.067(3) Uani 1 4 d S TU P
N17 N 0.3237(9) -0.5000 0.4273(14) 0.0662(18) Uani 0.5 2 d S TU P
C37 C 0.3237(9) -0.5000 0.4273(14) 0.0662(18) Uani 0.5 2 d S TU P
C36 C 0.2861(18) -0.5000 0.341(3) 0.066(2) Uani 0.5 2 d S TU P
C30 C 0.5052(18) -0.5000 0.232(3) 0.067(4) Uani 0.5 2 d S TU P
C34 C 0.281(2) -0.5000 0.435(3) 0.066(2) Uani 0.5 2 d S TU P
N16 N 0.3692(14) -0.5000 0.377(3) 0.065(2) Uani 0.5 2 d S TU P
C32 C 0.2978(18) -0.5000 0.498(4) 0.066(2) Uani 0.5 2 d S TU P
N15 N 0.3565(15) -0.5000 0.525(3) 0.066(2) Uani 0.5 2 d S TU P
N14 N 0.4083(14) -0.5000 0.515(3) 0.066(3) Uani 0.5 2 d S TU P
C27 C 0.499(2) -0.5000 0.419(3) 0.067(3) Uani 0.5 2 d S TU P
N13 N 0.5440(15) -0.5000 0.278(3) 0.068(4) Uani 0.5 2 d S TU P
C26 C 0.5406(18) -0.5000 0.373(3) 0.068(4) Uani 0.5 2 d S TU P
C29 C 0.4574(18) -0.5000 0.276(3) 0.066(3) Uani 0.5 2 d S TU P
C28 C 0.4535(19) -0.5000 0.377(3) 0.066(3) Uani 0.5 2 d S TU P
N9 N 0.3948(9) 1.0000 -0.5449(19) 0.036(3) Uani 0.5 2 d S TU P
N8 N 0.3959(10) 1.0000 -0.4510(18) 0.035(3) Uani 0.5 2 d S TU P
N2 N 0.3512(11) 0.0000 0.579(2) 0.043(3) Uani 0.5 2 d S TU P
loop_
_atom_site_aniso_label
_atom_site_aniso_U_11
_atom_site_aniso_U_22
_atom_site_aniso_U_33
_atom_site_aniso_U_23
_atom_site_aniso_U_13
_atom_site_aniso_U_12
Pt1 0.0107(4) 0.0150(4) 0.0237(4) 0.000 -0.00019(18) 0.000
Fe2 0.0077(12) 0.0173(14) 0.0086(12) 0.000 0.0024(9) 0.000
Fe1 0.0185(14) 0.0139(14) 0.0078(13) 0.000 0.000 0.000
N11 0.030(4) 0.027(4) 0.086(5) 0.003(4) 0.025(4) 0.003(3)
C24 0.028(4) 0.028(4) 0.083(5) 0.003(4) 0.022(4) 0.007(4)
N12 0.033(4) 0.032(4) 0.090(5) 0.013(4) 0.026(4) 0.006(3)
C9 0.025(5) 0.062(6) 0.043(6) 0.000 0.000 0.000
C25 0.028(4) 0.030(4) 0.081(5) 0.011(4) 0.025(4) 0.008(4)
C4 0.023(5) 0.053(6) 0.035(6) 0.000 0.000 0.000
C16 0.013(4) 0.039(5) 0.024(4) 0.000 0.002(4) 0.000
N1 0.020(5) 0.050(6) 0.032(6) 0.000 -0.001(4) 0.000
N7 0.015(4) 0.040(5) 0.026(5) 0.000 0.002(4) 0.000
N6 0.015(4) 0.039(5) 0.027(4) 0.000 0.003(4) 0.000
C12 0.024(5) 0.061(6) 0.041(6) 0.000 0.000(4) 0.000
C11 0.023(5) 0.060(6) 0.042(6) 0.000 0.001(4) 0.000
C13 0.015(4) 0.039(5) 0.026(5) 0.000 0.002(4) 0.000
N4 0.023(5) 0.062(6) 0.036(5) 0.000 0.001(4) 0.000
C8 0.024(5) 0.062(6) 0.041(5) 0.000 0.000(3) 0.000
C1 0.020(5) 0.051(6) 0.032(6) 0.000 0.000(4) 0.000
C22 0.015(4) 0.040(5) 0.025(5) 0.000 0.002(4) 0.000
N10 0.020(5) 0.054(6) 0.030(5) 0.000 0.000(5) 0.000
C20 0.014(5) 0.040(5) 0.024(5) 0.000 0.002(5) 0.000
C21 0.015(5) 0.041(6) 0.025(5) 0.000 0.001(5) 0.000
C14 0.015(4) 0.040(5) 0.025(5) 0.000 0.001(4) 0.000
C3 0.022(5) 0.055(6) 0.035(5) 0.000 0.000(3) 0.000
C7 0.023(4) 0.064(6) 0.038(5) 0.000 0.001(4) 0.000
C23 0.015(4) 0.040(5) 0.026(4) 0.000 0.002(4) 0.000
C2 0.021(5) 0.053(6) 0.033(6) 0.000 0.000(4) 0.000
N3 0.025(5) 0.067(6) 0.038(5) 0.000 0.001(4) 0.000
C18 0.019(4) 0.051(5) 0.029(5) 0.000 0.000(4) 0.000
C6 0.022(5) 0.061(6) 0.036(5) 0.000 0.001(4) 0.000
C5 0.020(5) 0.051(6) 0.033(6) 0.000 0.000(3) 0.000
C19 0.021(5) 0.056(6) 0.031(6) 0.000 -0.002(5) 0.000
C10 0.025(5) 0.061(6) 0.045(6) 0.000 0.001(3) 0.000
C15 0.016(4) 0.042(5) 0.026(4) 0.000 0.001(4) 0.000
C17 0.015(4) 0.040(5) 0.026(4) 0.000 0.002(4) 0.000
N5 0.022(5) 0.059(6) 0.042(6) 0.000 0.001(4) 0.000
C31 0.067(5) 0.062(5) 0.063(5) 0.000 -0.002(4) 0.000
C33 0.070(5) 0.063(5) 0.064(5) 0.000 0.000 0.000
C35 0.072(5) 0.064(5) 0.064(5) 0.000 0.000 0.000
N17 0.070(4) 0.064(3) 0.065(3) 0.000 0.002(2) 0.000
C37 0.070(4) 0.064(3) 0.065(3) 0.000 0.002(2) 0.000
C36 0.070(4) 0.063(4) 0.064(4) 0.000 0.001(3) 0.000
C30 0.068(7) 0.064(7) 0.068(7) 0.000 -0.006(6) 0.000
C34 0.070(4) 0.063(4) 0.064(4) 0.000 0.001(2) 0.000
N16 0.069(4) 0.063(4) 0.064(4) 0.000 0.001(3) 0.000
C32 0.070(4) 0.063(4) 0.064(4) 0.000 0.001(2) 0.000
N15 0.070(4) 0.064(4) 0.065(4) 0.000 0.001(3) 0.000
N14 0.069(5) 0.064(5) 0.064(5) 0.000 -0.001(4) 0.000
C27 0.068(7) 0.064(7) 0.067(7) 0.000 -0.005(6) 0.000
N13 0.069(7) 0.065(7) 0.069(7) 0.000 -0.005(7) 0.000
C26 0.069(7) 0.065(7) 0.069(7) 0.000 -0.005(6) 0.000
C29 0.069(7) 0.063(7) 0.067(7) 0.000 -0.006(6) 0.000
C28 0.068(6) 0.063(6) 0.066(6) 0.000 -0.005(5) 0.000
N9 0.021(5) 0.057(6) 0.031(6) 0.000 -0.003(5) 0.000
N8 0.020(5) 0.055(6) 0.030(5) 0.000 -0.001(5) 0.000
N2 0.024(5) 0.066(6) 0.037(5) 0.000 0.001(4) 0.000
loop_
_atom_type_symbol
_atom_type_description
_atom_type_scat_dispersion_real
_atom_type_scat_dispersion_imag
_atom_type_scat_source
C C 0.0181 0.0091 'International Tables Vol C Tables 4.2.6.8 and 6.1.1.4'
Fe Fe -1.1336 3.1974 'International Tables Vol C Tables 4.2.6.8 and 6.1.1.4'
N N 0.0311 0.0180 'International Tables Vol C Tables 4.2.6.8 and 6.1.1.4'
Pt Pt -4.5932 6.9264 'International Tables Vol C Tables 4.2.6.8 and 6.1.1.4'
loop_
_geom_angle_atom_site_label_1
_geom_angle_atom_site_label_2
_geom_angle_atom_site_label_3
_geom_angle
_geom_angle_site_symmetry_1
_geom_angle_site_symmetry_3
C25 Pt1 C25 90.3(7) . 7_565
C25 Pt1 C24 178.6(6) . .
C25 Pt1 C24 89.6(5) 7_565 .
C25 Pt1 C24 89.6(5) . 7_565
C25 Pt1 C24 178.6(6) 7_565 7_565
C24 Pt1 C24 90.6(6) . 7_565
N6 Fe2 N6 180.0 . 5_675
N6 Fe2 N12 80.9(6) . .
N6 Fe2 N12 99.1(6) 5_675 .
N6 Fe2 N12 99.1(6) . 5_675
N6 Fe2 N12 80.9(6) 5_675 5_675
N12 Fe2 N12 180.0 . 5_675
N6 Fe2 N12 80.9(6) . 7_575
N6 Fe2 N12 99.1(6) 5_675 7_575
N12 Fe2 N12 91.6(5) . 7_575
N12 Fe2 N12 88.4(5) 5_675 7_575
N6 Fe2 N12 99.1(6) . 3_655
N6 Fe2 N12 80.9(6) 5_675 3_655
N12 Fe2 N12 88.4(5) . 3_655
N12 Fe2 N12 91.6(5) 5_675 3_655
N12 Fe2 N12 180.0(4) 7_575 3_655
N6 Fe2 N7 29.7(9) . .
N6 Fe2 N7 150.3(9) 5_675 .
N12 Fe2 N7 101.5(6) . .
N12 Fe2 N7 78.5(6) 5_675 .
N12 Fe2 N7 101.5(6) 7_575 .
N12 Fe2 N7 78.5(6) 3_655 .
N6 Fe2 N7 150.3(9) . 5_675
N6 Fe2 N7 29.7(9) 5_675 5_675
N12 Fe2 N7 78.5(6) . 5_675
N12 Fe2 N7 101.5(6) 5_675 5_675
N12 Fe2 N7 78.5(6) 7_575 5_675
N12 Fe2 N7 101.5(6) 3_655 5_675
N7 Fe2 N7 180.0 . 5_675
N11 Fe1 N11 177.0(7) 2 .
N11 Fe1 N11 92.2(6) 2 8_655
N11 Fe1 N11 87.7(6) . 8_655
N11 Fe1 N11 87.7(6) 2 7
N11 Fe1 N11 92.2(6) . 7
N11 Fe1 N11 177.0(7) 8_655 7
N11 Fe1 N1 99.6(5) 2 .
N11 Fe1 N1 83.3(6) . .
N11 Fe1 N1 99.6(5) 8_655 .
N11 Fe1 N1 83.3(6) 7 .
N11 Fe1 N1 83.3(6) 2 2
N11 Fe1 N1 99.6(5) . 2
N11 Fe1 N1 83.3(6) 8_655 2
N11 Fe1 N1 99.6(5) 7 2
N1 Fe1 N1 23.6(12) . 2
N11 Fe1 N5 77.1(6) 2 2_554
N11 Fe1 N5 99.9(6) . 2_554
N11 Fe1 N5 77.1(6) 8_655 2_554
N11 Fe1 N5 99.9(6) 7 2_554
N1 Fe1 N5 175.2(10) . 2_554
N1 Fe1 N5 151.7(10) 2 2_554
N11 Fe1 N5 99.9(6) 2 1_554
N11 Fe1 N5 77.1(6) . 1_554
N11 Fe1 N5 99.9(6) 8_655 1_554
N11 Fe1 N5 77.1(6) 7 1_554
N1 Fe1 N5 151.7(10) . 1_554
N1 Fe1 N5 175.2(10) 2 1_554
N5 Fe1 N5 33.1(15) 2_554 1_554
C24 N11 Fe1 167.2(13) . .
N11 C24 Pt1 177.7(13) . .
C25 N12 Fe2 165.5(13) . .
C8 C9 C8 135(4) . 2
C8 C9 C10 95.3(18) . .
C8 C9 C10 129(2) 2 .
C8 C9 C10 129(2) . 2
C8 C9 C10 95.3(18) 2 2
C10 C9 C10 33.9(14) . 2
N12 C25 Pt1 177.9(11) . .
C3 C4 C3 142(4) . 2
C3 C4 C5 129(2) . 2
C3 C4 C5 89(2) 2 2
C3 C4 C5 89(2) . .
C3 C4 C5 129(2) 2 .
C5 C4 C5 40(2) 2 .
C15 C16 C20 143(3) . .
C15 C16 C23 83(2) . .
C20 C16 C23 133(3) . .
C15 C16 C17 117(3) . .
C20 C16 C17 99(2) . .
C23 C16 C17 34.2(16) . .
N1 N1 C5 98(2) 2 .
N1 N1 C5 45.0(16) 2 2
C5 N1 C5 52(3) . 2
N1 N1 C1 162.3(18) 2 .
C5 N1 C1 65(3) . .
C5 N1 C1 117(3) 2 .
N1 N1 Fe1 78.2(6) 2 .
C5 N1 Fe1 176(3) . .
C5 N1 Fe1 123.2(18) 2 .
C1 N1 Fe1 119(2) . .
C17 N7 N6 93(4) . .
C17 N7 C22 90(4) . .
N6 N7 C22 177(3) . .
C17 N7 C23 34(3) . .
N6 N7 C23 59(2) . .
C22 N7 C23 124(3) . .
C17 N7 Fe2 152(4) . .
N6 N7 Fe2 58.7(18) . .
C22 N7 Fe2 118(2) . .
C23 N7 Fe2 117.6(19) . .
N7 N6 C23 68(2) . .
N7 N6 C17 30.7(17) . .
C23 N6 C17 36.9(18) . .
N7 N6 C13 146(3) . .
C23 N6 C13 78(2) . .
C17 N6 C13 115(3) . .
N7 N6 Fe2 92(2) . .
C23 N6 Fe2 159(2) . .
C17 N6 Fe2 122(2) . .
C13 N6 Fe2 122.4(19) . .
C8 C12 C11 121(3) . .
C8 C12 C10 74(2) . .
C11 C12 C10 46.6(18) . .
N5 C11 C12 124(3) . .
N5 C11 C10 36.4(16) . .
C12 C11 C10 87(3) . .
C14 C13 N6 122(2) . .
C14 C13 C23 75(2) . .
N6 C13 C23 46.5(17) . .
C6 N4 C7 105(3) . .
C6 N4 N4 126.1(19) . 2
C7 N4 N4 128.7(19) . 2
C9 C8 C12 111(3) . .
C9 C8 C7 127(3) . .
C12 C8 C7 122(3) . .
C5 C1 N1 42.3(18) . .
C5 C1 C2 82(3) . .
N1 C1 C2 125(3) . .
N7 C22 C21 121(3) . .
N7 C22 C17 28.9(15) . .
C21 C22 C17 93(2) . .
C19 N10 C18 99(2) . .
C19 N10 N10 125(3) . 5_674
C18 N10 N10 136(3) . 5_674
C16 C20 C21 112(3) . .
C16 C20 C19 135(3) . 5_674
C21 C20 C19 113(2) . 5_674
C20 C21 C22 116(2) . .
C13 C14 C15 120(3) . .
C13 C14 C23 59.2(17) . .
C15 C14 C23 60.9(18) . .
C4 C3 C2 111(3) . .
C4 C3 C6 123(3) . .
C2 C3 C6 125(3) . .
C4 C3 C5 51.4(18) . .
C2 C3 C5 60(2) . .
C6 C3 C5 175(3) . .
N4 C7 N3 113(3) . .
N4 C7 C8 126(3) . .
N3 C7 C8 121(3) . .
C17 C23 N6 82(4) . .
C17 C23 C16 84(4) . .
N6 C23 C16 166(3) . .
C17 C23 N7 28(3) . .
N6 C23 N7 53.4(19) . .
C16 C23 N7 113(3) . .
C17 C23 C13 137(4) . .
N6 C23 C13 55.2(19) . .
C16 C23 C13 139(3) . .
N7 C23 C13 109(2) . .
C17 C23 C15 131(4) . .
N6 C23 C15 147(3) . .
C16 C23 C15 46.7(18) . .
N7 C23 C15 159(3) . .
C13 C23 C15 92.0(19) . .
C17 C23 C14 177(4) . .
N6 C23 C14 101(2) . .
C16 C23 C14 93(2) . .
N7 C23 C14 154(3) . .
C13 C23 C14 45.7(15) . .
C15 C23 C14 46.3(15) . .
C1 C2 C3 123(3) . .
C1 C2 C5 46.0(19) . .
C3 C2 C5 77(2) . .
C7 N3 N2 102(3) . .
N8 C18 N10 107(3) . .
N8 C18 C15 127(3) . .
N10 C18 C15 125(3) . .
N2 C6 N4 109(3) . .
N2 C6 C3 122(3) . .
N4 C6 C3 129(3) . .
N1 C5 C5 82(2) . 2
N1 C5 C1 73(3) . .
C5 C5 C1 155(2) 2 .
N1 C5 N1 37(2) . 2
C5 C5 N1 45.0(16) 2 2
C1 C5 N1 110(3) . 2
N1 C5 C4 152(3) . .
C5 C5 C4 69.8(12) 2 .
C1 C5 C4 135(3) . .
N1 C5 C4 115(2) 2 .
N1 C5 C2 124(3) . .
C5 C5 C2 153.1(15) 2 .
C1 C5 C2 52(2) . .
N1 C5 C2 162(3) 2 .
C4 C5 C2 83.2(19) . .
N1 C5 C3 168(3) . .
C5 C5 C3 109.6(13) 2 .
C1 C5 C3 95(2) . .
N1 C5 C3 155(2) 2 .
C4 C5 C3 39.8(13) . .
C2 C5 C3 43.4(16) . .
N9 C19 N10 121(3) . .
N9 C19 C20 122(3) . 5_674
N10 C19 C20 117(3) . 5_674
N5 C10 C10 101(2) . 2
N5 C10 N5 62(3) . 2
C10 C10 N5 39.2(13) 2 2
N5 C10 C11 61(3) . .
C10 C10 C11 162.0(17) 2 .
N5 C10 C11 123(2) 2 .
N5 C10 C9 174(3) . .
C10 C10 C9 73.1(7) 2 .
N5 C10 C9 112.3(15) 2 .
C11 C10 C9 125.0(19) . .
N5 C10 C12 107(3) . .
C10 C10 C12 152.1(11) 2 .
N5 C10 C12 168.7(18) 2 .
C11 C10 C12 46.0(18) . .
C9 C10 C12 79.0(13) . .
C16 C15 C14 123(3) . .
C16 C15 C18 118(3) . .
C14 C15 C18 119(3) . .
C16 C15 C23 50.0(19) . .
C14 C15 C23 73(2) . .
C18 C15 C23 168(3) . .
N7 C17 C23 118(5) . .
N7 C17 N6 56(3) . .
C23 C17 N6 61(3) . .
N7 C17 C22 61(4) . .
C23 C17 C22 179(5) . .
N6 C17 C22 117(3) . .
N7 C17 C16 179(5) . .
C23 C17 C16 61(3) . .
N6 C17 C16 123(3) . .
C22 C17 C16 120(3) . .
C10 N5 N5 79(2) . 2
C10 N5 C11 83(3) . .
N5 N5 C11 162(2) 2 .
C10 N5 C10 40(2) . 2
N5 N5 C10 39.2(13) 2 2
C11 N5 C10 122(3) . 2
C10 N5 Fe1 152(3) . 1_556
N5 N5 Fe1 73.4(8) 2 1_556
C11 N5 Fe1 125(3) . 1_556
C10 N5 Fe1 112.7(17) 2 1_556
C28 C31 N16 139(5) . .
C28 C31 N14 120(5) . .
N16 C31 N14 101(4) . .
C32 C33 C32 162(6) 2_545 .
C32 C33 C34 119(4) 2_545 .
C32 C33 C34 43(3) . .
C32 C33 C34 43(3) 2_545 2_545
C32 C33 C34 119(4) . 2_545
C34 C33 C34 76(5) . 2_545
C36 C35 C36 172(8) 2_545 .
C36 C35 C34 60(4) 2_545 2_545
C36 C35 C34 128(5) . 2_545
C36 C35 C34 128(5) 2_545 .
C36 C35 C34 60(4) . .
C34 C35 C34 67(4) 2_545 .
C34 N17 C32 49(3) . .
C34 N17 N16 156(3) . .
C32 N17 N16 155(4) . .
C34 N17 C36 56(3) . .
C32 N17 C36 105(4) . .
N16 N17 C36 100(3) . .
C34 N17 N15 117(3) . .
C32 N17 N15 68(3) . .
N16 N17 N15 87(2) . .
C36 N17 N15 173(3) . .
C35 C36 C34 81(5) . .
C35 C36 N17 126(5) . .
C34 C36 N17 45(3) . .
C35 C36 C36 4(4) . 2_545
C34 C36 C36 85(3) . 2_545
N17 C36 C36 129.6(19) . 2_545
N13 C30 C29 123(4) . .
C32 C34 N17 69(5) . .
C32 C34 C36 148(7) . .
N17 C34 C36 79(4) . .
C32 C34 C33 65(4) . .
N17 C34 C33 134(4) . .
C36 C34 C33 147(5) . .
C32 C34 C35 173(6) . .
N17 C34 C35 118(4) . .
C36 C34 C35 39(3) . .
C33 C34 C35 108(4) . .
C32 C34 C34 117(4) . 2_545
N17 C34 C34 174(3) . 2_545
C36 C34 C34 95(3) . 2_545
C33 C34 C34 52(2) . 2_545
C35 C34 C34 56(2) . 2_545
C31 N16 N17 131(4) . .
C34 C32 N17 62(4) . .
C34 C32 C33 72(5) . .
N17 C32 C33 134(5) . .
C34 C32 N15 130(5) . .
N17 C32 N15 68(3) . .
C33 C32 N15 158(4) . .
N14 N15 N17 117(3) . .
N14 N15 C32 161(4) . .
N17 N15 C32 44(2) . .
N15 N14 C31 103(3) . .
C26 C27 C28 124(5) . .
C30 N13 C26 118(5) . .
C27 C26 N13 124(5) . .
C30 C29 C28 120(4) . .
C31 C28 C27 132(5) . .
C31 C28 C29 117(5) . .
C27 C28 C29 112(5) . .
C19 N9 N8 100(3) . .
N2 N8 C18 139(3) 1_564 .
N2 N8 N9 108(3) 1_564 .
C18 N8 N9 112(3) . .
C6 N2 N8 143(3) . 1_546
C6 N2 N3 111(3) . .
N8 N2 N3 106(3) 1_546 .
loop_
_geom_bond_atom_site_label_1
_geom_bond_atom_site_label_2
_geom_bond_distance
_geom_bond_site_symmetry_2
Pt1 C25 1.966(12) .
Pt1 C25 1.966(12) 7_565
Pt1 C24 1.986(12) .
Pt1 C24 1.986(12) 7_565
Fe2 N6 1.97(2) .
Fe2 N6 1.97(2) 5_675
Fe2 N12 2.015(10) .
Fe2 N12 2.015(10) 5_675
Fe2 N12 2.015(10) 7_575
Fe2 N12 2.015(10) 3_655
Fe2 N7 2.30(3) .
Fe2 N7 2.30(3) 5_675
Fe1 N11 1.977(10) 2
Fe1 N11 1.977(10) .
Fe1 N11 1.977(10) 8_655
Fe1 N11 1.977(10) 7
Fe1 N1 1.98(3) .
Fe1 N1 1.98(3) 2
Fe1 N5 2.10(3) 2_554
Fe1 N5 2.10(3) 1_554
N11 C24 1.140(16) .
N12 C25 1.143(15) .
C9 C8 1.33(3) .
C9 C8 1.33(3) 2
C9 C10 1.49(3) .
C9 C10 1.49(3) 2
C4 C3 1.25(3) .
C4 C3 1.25(3) 2
C4 C5 1.53(4) 2
C4 C5 1.53(4) .
C16 C15 1.24(4) .
C16 C20 1.29(4) .
C16 C23 1.30(4) .
C16 C17 1.48(4) .
N1 N1 0.81(4) 2
N1 C5 0.94(4) .
N1 C5 1.32(4) 2
N1 C1 1.34(4) .
N7 C17 0.70(3) .
N7 N6 1.14(3) .
N7 C22 1.27(4) .
N7 C23 1.31(4) .
N6 C23 1.22(4) .
N6 C17 1.37(4) .
N6 C13 1.38(4) .
C12 C8 1.39(5) .
C12 C11 1.42(5) .
C12 C10 1.98(4) .
C11 N5 1.27(4) .
C11 C10 1.44(4) .
C13 C14 1.37(4) .
C13 C23 1.64(4) .
N4 C6 1.29(4) .
N4 C7 1.30(4) .
N4 N4 1.58(5) 2
C8 C7 1.45(5) .
C1 C5 1.27(4) .
C1 C2 1.38(5) .
C22 C21 1.42(4) .
C22 C17 1.45(4) .
N10 C19 1.35(4) .
N10 C18 1.37(4) .
N10 N10 1.60(5) 5_674
C20 C21 1.42(4) .
C20 C19 1.52(4) 5_674
C14 C15 1.40(4) .
C14 C23 1.85(4) .
C3 C2 1.38(5) .
C3 C6 1.46(5) .
C3 C5 1.96(5) .
C7 N3 1.31(4) .
C23 C17 0.83(3) .
C23 C15 1.69(4) .
C2 C5 1.74(4) .
N3 N2 1.32(4) .
C18 N8 1.31(4) .
C18 C15 1.48(4) .
C6 N2 1.29(5) .
C5 C5 1.06(6) 2
C5 N1 1.32(4) 2
C19 N9 1.22(4) .
C19 C20 1.52(4) 5_674
C10 N5 0.86(3) .
C10 C10 0.87(3) 2
C10 N5 1.34(3) 2
N5 N5 1.20(5) 2
N5 C10 1.34(3) 2
N5 Fe1 2.10(3) 1_556
C31 C28 1.13(6) .
C31 N16 1.35(6) .
C31 N14 1.56(6) .
C33 C32 1.33(5) 2_545
C33 C32 1.33(5) .
C33 C34 1.40(6) .
C33 C34 1.40(6) 2_545
C35 C36 1.00(5) 2_545
C35 C36 1.00(5) .
C35 C34 1.56(6) 2_545
C35 C34 1.56(6) .
N17 C34 1.17(6) .
N17 C32 1.24(5) .
N17 N16 1.45(4) .
N17 C36 1.62(5) .
N17 N15 1.67(5) .
C36 C34 1.37(7) .
C36 C36 1.99(10) 2_545
C30 N13 1.25(6) .
C30 C29 1.45(7) .
C34 C32 1.00(6) .
C34 C34 1.73(11) 2_545
C32 N15 1.66(6) .
N15 N14 1.43(6) .
C27 C26 1.32(7) .
C27 C28 1.40(7) .
N13 C26 1.36(6) .
C29 C28 1.46(7) .
N9 N8 1.35(4) .
N8 N2 1.30(4) 1_564
N2 N8 1.30(4) 1_546
