#------------------------------------------------------------------------------
#$Date: 2019-11-17 10:23:12 +0200 (Sun, 17 Nov 2019) $
#$Revision: 229330 $
#$URL: file:///home/coder/svn-repositories/cod/cif/7/04/66/7046617.cif $
#------------------------------------------------------------------------------
#
# This file is available in the Crystallography Open Database (COD),
# http://www.crystallography.net/
#
# All data on this site have been placed in the public domain by the
# contributors.
#
data_7046617
loop_
_publ_author_name
'Zheng, Tian-Rui'
'Qian, Lin-Lu'
'Li, Min'
'Wang, Zhi-Xiang'
'Li, Ke'
'Zhang, Ya-Qian'
'Li, Bao-Long'
'Wu, Bing'
_publ_section_title
;
 A bifunctional cationic metal-organic framework based on unprecedented
 nonanuclear copper(ii) cluster for high dichromate and chromate trapping
 and highly efficient photocatalytic degradation of organic dyes under
 visible light irradiation.
;
_journal_issue                   27
_journal_name_full
'Dalton transactions (Cambridge, England : 2003)'
_journal_page_first              9103
_journal_page_last               9113
_journal_paper_doi               10.1039/c8dt01685b
_journal_volume                  47
_journal_year                    2018
_chemical_formula_moiety         'C72 H84 Cl2 Cu9 N30 O18, 2(N1 O3)'
_chemical_formula_sum            'C72 H84 Cl2 Cu9 N32 O24'
_chemical_formula_weight         2424.47
_space_group_crystal_system      hexagonal
_space_group_IT_number           176
_space_group_name_Hall           '-P 6c'
_space_group_name_H-M_alt        'P 63/m'
_symmetry_space_group_name_Hall  '-P 6c'
_symmetry_space_group_name_H-M   'P 63/m'
_atom_sites_solution_hydrogens   mixed
_atom_sites_solution_primary     direct
_audit_creation_date             2016-12-14
_audit_creation_method
;
Olex2 1.2-alpha
(compiled 2016.11.07 svn.r3352 for OlexSys, GUI svn.r5261)
;
_audit_update_record
;
2018-03-24 deposited with the CCDC.
2018-06-11 downloaded from the CCDC.
;
_cell_angle_alpha                90
_cell_angle_beta                 90
_cell_angle_gamma                120
_cell_formula_units_Z            2
_cell_length_a                   18.438(4)
_cell_length_b                   18.438(4)
_cell_length_c                   18.792(4)
_cell_measurement_reflns_used    12525
_cell_measurement_temperature    293.1500
_cell_measurement_theta_max      27.4855
_cell_measurement_theta_min      3.0958
_cell_volume                     5533(2)
_computing_cell_refinement       'CrystalClear (Rigaku Inc., 2007)'
_computing_data_collection       'CrystalClear (Rigaku Inc., 2007)'
_computing_data_reduction        'CrystalClear (Rigaku Inc., 2007)'
_computing_molecular_graphics    'Olex2 (Dolomanov et al., 2009)'
_computing_publication_material  'Olex2 (Dolomanov et al., 2009)'
_computing_structure_refinement  'ShelXL (Sheldrick, 2015)'
_computing_structure_solution
;
????
;
_diffrn_ambient_temperature      293.1500
_diffrn_detector_area_resol_mean 28.5714
_diffrn_measured_fraction_theta_full 0.996
_diffrn_measured_fraction_theta_max 0.996
_diffrn_measurement_details
;
scan:
    Number of images: 210
               Slice: -90.0000 - 15.0000
         Image width: 0.5000
            Exp time: 10.0000
       Rotation axis: Omega
               Omega: 0.0000
                 Chi: 45.0000
                 Phi: 0.0000
                 XTD: 35.0703
              2theta: -20.0821
;
_diffrn_measurement_device
;
Saturn724+ (2x2 bin mode)
;
_diffrn_measurement_device_details
;
AFC10: Fixed Chi 2 circle
;
_diffrn_measurement_device_type  'Rigaku Saturn 724'
_diffrn_measurement_method       dtprofit.ref
_diffrn_orient_matrix_type       d*Trek
_diffrn_orient_matrix_UB_11      0.0258
_diffrn_orient_matrix_UB_12      -0.0491
_diffrn_orient_matrix_UB_13      -0.0291
_diffrn_orient_matrix_UB_21      -0.0059
_diffrn_orient_matrix_UB_22      -0.0062
_diffrn_orient_matrix_UB_23      -0.0620
_diffrn_orient_matrix_UB_31      0.0449
_diffrn_orient_matrix_UB_32      0.0277
_diffrn_orient_matrix_UB_33      -0.0070
_diffrn_radiation_detector       CCD
_diffrn_radiation_monochromator  'Graphite Monochromator'
_diffrn_radiation_type           MoK\a
_diffrn_radiation_wavelength     0.71075
_diffrn_reflns_av_R_equivalents  0.0468
_diffrn_reflns_av_unetI/netI     0.0401
_diffrn_reflns_Laue_measured_fraction_full 0.996
_diffrn_reflns_Laue_measured_fraction_max 0.996
_diffrn_reflns_limit_h_max       21
_diffrn_reflns_limit_h_min       -12
_diffrn_reflns_limit_k_max       15
_diffrn_reflns_limit_k_min       -19
_diffrn_reflns_limit_l_max       18
_diffrn_reflns_limit_l_min       -22
_diffrn_reflns_number            12809
_diffrn_reflns_point_group_measured_fraction_full 0.996
_diffrn_reflns_point_group_measured_fraction_max 0.996
_diffrn_reflns_theta_full        24.999
_diffrn_reflns_theta_max         24.999
_diffrn_reflns_theta_min         3.096
_diffrn_source                   'Sealed Tube'
_diffrn_source_current           40.0000
_diffrn_source_power             2.0000
_diffrn_source_voltage           50.0000
_exptl_absorpt_coefficient_mu    1.817
_exptl_absorpt_correction_T_max  1.0000
_exptl_absorpt_correction_T_min  0.6724
_exptl_absorpt_correction_type   multi-scan
_exptl_absorpt_process_details   'Jacobson, R. (1998) Private communication'
_exptl_crystal_colour            'clear dark blue'
_exptl_crystal_colour_lustre     clear
_exptl_crystal_colour_modifier   dark
_exptl_crystal_colour_primary    blue
_exptl_crystal_density_diffrn    1.455
_exptl_crystal_description       block
_exptl_crystal_F_000             2454
_exptl_crystal_size_max          0.2
_exptl_crystal_size_mid          0.2
_exptl_crystal_size_min          0.2
_refine_diff_density_max         1.529
_refine_diff_density_min         -0.497
_refine_diff_density_rms         0.081
_refine_ls_extinction_method     none
_refine_ls_goodness_of_fit_ref   1.072
_refine_ls_hydrogen_treatment    mixed
_refine_ls_matrix_type           full
_refine_ls_number_parameters     253
_refine_ls_number_reflns         3346
_refine_ls_number_restraints     8
_refine_ls_restrained_S_all      1.071
_refine_ls_R_factor_all          0.0543
_refine_ls_R_factor_gt           0.0475
_refine_ls_shift/su_max          0.000
_refine_ls_shift/su_mean         0.000
_refine_ls_structure_factor_coef Fsqd
_refine_ls_weighting_details
'w=1/[\s^2^(Fo^2^)+(0.0587P)^2^+5.2273P] where P=(Fo^2^+2Fc^2^)/3'
_refine_ls_weighting_scheme      calc
_refine_ls_wR_factor_gt          0.1162
_refine_ls_wR_factor_ref         0.1205
_reflns_Friedel_coverage         0.000
_reflns_number_gt                2966
_reflns_number_total             3346
_reflns_threshold_expression     'I > 2\s(I)'
_cod_data_source_file            c8dt01685b2.cif
_cod_data_source_block           shelxl_CuitpClbdcNO3
_cod_depositor_comments          'Adding full bibliography for 7046617.cif.'
_cod_original_cell_volume        5532(2)
_cod_database_code               7046617
_shelx_space_group_comment
;
The symmetry employed for this shelxl refinement is uniquely defined
by the following loop, which should always be used as a source of
symmetry information in preference to the above space-group names.
They are only intended as comments.
;
_shelx_estimated_absorpt_t_max   0.713
_shelx_estimated_absorpt_t_min   0.713
_diffrn_number_total             8320
_olex2_refinement_description
;
1. Fixed Uiso
 At 1.2 times of:
  All C(H) groups, All C(H,H) groups
2. Restrained distances
 H1-O1
 0.85 with sigma of 0.02
 H2A-O2
 0.85 with sigma of 0.02
3. Uiso/Uaniso restraints and constraints
Uanis(O4) \\sim Ueq: with sigma of 0.005 and sigma for terminal atoms of 0.01
4. Others
 Fixed Sof: O4(0.25) O6(0.5) C16(0.5) O4A(0.25)
5.a Secondary CH2 refined with riding coordinates:
 C3(H3A,H3B), C4(H4A,H4B), C5(H5A,H5B)
5.b Aromatic/amide H refined with riding coordinates:
 C1(H1A), C2(H2), C6(H6), C7(H7), C8(H8), C11(H11), C12(H12), C13(H13), C14(H14)
;
_shelx_res_file
;
    shelxl_sq.res created by SHELXL-2014/7

TITL shelxl in P63/m #176
REM reset to P63/m #176
CELL 0.71075 18.4375 18.4375 18.792 90 90 120
ZERR 2 0.0037 0.0037 0.0036 0 0 0
LATT 1
SYMM -Y+X,+X,0.5+Z
SYMM -Y,+X-Y,+Z
SYMM -X,-Y,0.5+Z
SYMM +Y-X,-X,+Z
SYMM +Y,-X+Y,0.5+Z
SFAC C H Cl Cu N O
UNIT 144 168 4 18 64 48
DFIX 0.85 H1 O1
DFIX 0.85 H2a O2
ISOR 0.005 0.01 O4

L.S. 25 0 40
PLAN  20
SIZE 0.2 0.2 0.2
BOND
HTAB
MORE -1
BOND $H
CONF
ABIN
fmap 2
acta 52
OMIT 0 50
OMIT -3 4 0
REM <olex2.extras>
REM <HklSrc "%.\\shelxl.hkl">
REM </olex2.extras>

WGHT    0.058700    5.227300
FVAR       0.74436
CU1   4    0.543157    0.358059    0.327055    11.00000    0.03035    0.02083 =
         0.03323    0.00028    0.00543    0.01246
CU2   4    0.603083    0.541232    0.250000    10.50000    0.03095    0.02043 =
         0.03885    0.00000    0.00000    0.01664
CL1   3    0.666667    0.333333    0.377063    10.33333    0.02302    0.02302 =
         0.04482    0.00000    0.00000    0.01151
O1    6    0.605898    0.436128    0.250000    10.50000    0.01637    0.01931 =
         0.03628    0.00000    0.00000    0.01129
H1    2    0.656424    0.451805    0.250000    10.50000    0.03255
O3    6    0.467061    0.496647    0.250000    10.50000    0.02602    0.05005 =
         0.13615    0.00000    0.00000    0.02214
O5    6    0.043673    0.395410    0.250000    10.50000    0.02803    0.06328 =
         0.07944    0.00000    0.00000    0.03361
N1    5    0.579044    0.460988    0.389151    11.00000    0.02795    0.02585 =
         0.03847   -0.00010    0.00201    0.01550
N2    5    0.613060    0.538119    0.357350    11.00000    0.03299    0.02189 =
         0.04155   -0.00105   -0.00259    0.01468
N3    5    0.621744    0.556357    0.471780    11.00000    0.04005    0.02994 =
         0.03987   -0.01036   -0.00059    0.01524
N4    5    0.819776    0.539962    0.396005    11.00000    0.02989    0.03023 =
         0.03845   -0.00352   -0.00418    0.01593
N17   5    0.807924    0.601710    0.490906    11.00000    0.05121    0.04406 =
         0.04351   -0.01254   -0.00797    0.02959
C1    1    0.584789    0.473929    0.457867    11.00000    0.04621    0.03145 =
         0.03464   -0.00010    0.00245    0.01678
AFIX  43
H1A   2    0.565984    0.432067    0.492212    11.00000   -1.20000
AFIX   0
C2    1    0.638343    0.593722    0.407586    11.00000    0.04451    0.02776 =
         0.04948   -0.00685   -0.00376    0.01875
AFIX  43
H2    2    0.664259    0.651238    0.400306    11.00000   -1.20000
AFIX   0
C3    1    0.636623    0.595816    0.542869    11.00000    0.05616    0.04660 =
         0.04291   -0.01598    0.00422    0.01905
AFIX  23
H3A   2    0.614063    0.552225    0.578813    11.00000   -1.20000
H3B   2    0.606598    0.626415    0.546155    11.00000   -1.20000
AFIX   0
C4    1    0.728272    0.655046    0.558533    11.00000    0.06728    0.05428 =
         0.04179   -0.01991   -0.00812    0.03899
AFIX  23
H4A   2    0.732511    0.682792    0.603469    11.00000   -1.20000
H4B   2    0.750672    0.697796    0.521874    11.00000   -1.20000
AFIX   0
C5    1    0.782662    0.614561    0.562544    11.00000    0.08142    0.07658 =
         0.04548   -0.02376   -0.01328    0.05312
AFIX  23
H5A   2    0.832379    0.649915    0.590360    11.00000   -1.20000
H5B   2    0.751942    0.560981    0.586562    11.00000   -1.20000
AFIX   0
C6    1    0.787245    0.528835    0.460140    11.00000    0.04615    0.03220 =
         0.04487   -0.00105   -0.00221    0.02302
AFIX  43
H6    2    0.754099    0.476802    0.481248    11.00000   -1.20000
AFIX   0
C7    1    0.855075    0.662814    0.444017    11.00000    0.04869    0.03068 =
         0.08088   -0.01384   -0.00260    0.01998
AFIX  43
H7    2    0.878016    0.720110    0.450920    11.00000   -1.20000
AFIX   0
C8    1    0.862659    0.625004    0.385129    11.00000    0.04012    0.03353 =
         0.05968    0.00240    0.00711    0.01405
AFIX  43
H8    2    0.891992    0.652048    0.344136    11.00000   -1.20000
AFIX   0
C9    1    0.411398    0.422237    0.250000    10.50000    0.02896    0.02868 =
         0.03893    0.00000    0.00000    0.01418
C10   1    0.320321    0.404762    0.250000    10.50000    0.02907    0.04104 =
         0.03692    0.00000    0.00000    0.02276
C11   1    0.300912    0.467671    0.250000    10.50000    0.02573    0.03990 =
         0.05198    0.00000    0.00000    0.01812
AFIX  43
H11   2    0.343575    0.523341    0.250000    10.50000   -1.20000
AFIX   0
C12   1    0.255711    0.321660    0.250000    10.50000    0.03116    0.04667 =
         0.05335    0.00000    0.00000    0.02612
AFIX  43
H12   2    0.268409    0.278781    0.250000    10.50000   -1.20000
AFIX   0
C13   1    0.217547    0.448370    0.250000    10.50000    0.03549    0.04648 =
         0.05875    0.00000    0.00000    0.03067
AFIX  43
H13   2    0.205052    0.491390    0.250000    10.50000   -1.20000
AFIX   0
C14   1    0.172374    0.302127    0.250000    10.50000    0.02966    0.03774 =
         0.06233    0.00000    0.00000    0.01585
AFIX  43
H14   2    0.129593    0.246507    0.250000    10.50000   -1.20000
AFIX   0
C15   1    0.153479    0.366380    0.250000    10.50000    0.02817    0.04892 =
         0.05888    0.00000    0.00000    0.02704
PART 2
H2A   2    0.456823    0.249640    0.250000    10.50000    0.03920
PART 0
PART 1
O4    6    0.418366    0.360934    0.250000    10.25000    0.02684    0.04376 =
         0.04463    0.00000    0.00000    0.02106
O6    6    0.016336    0.279624    0.198016    10.50000    0.03946    0.06114 =
         0.13914   -0.02451   -0.03826    0.02815
C16   1    0.064322    0.345860    0.232604    10.50000    0.03422    0.05445 =
         0.05032   -0.00134   -0.00637    0.03011
PART 0
PART 2
O2    6    0.509989    0.275513    0.250000    10.50000    0.01956    0.02100 =
         0.03809    0.00000    0.00000    0.01129
O4A   6    0.424173    0.371352    0.216778    10.25000    0.02077    0.04441 =
         0.05169    0.01281    0.02289    0.01613

PART 0
O7    6    0.321817    0.597590    0.091178    11.00000    0.16297    0.08380 =
         0.18018   -0.01004   -0.05393    0.06936
N5    5    0.333333    0.666667    0.094054    10.33333    0.04296    0.04296 =
         0.06850    0.00000    0.00000    0.02148
HKLF 4

REM  shelxl in P63/m #176
REM R1 =  0.0475 for    2966 Fo > 4sig(Fo)  and  0.0543 for all    3346 data
REM    253 parameters refined using      8 restraints

END

WGHT      0.0587      5.2272

REM Instructions for potential hydrogen bonds
EQIV $1 -x+y+1, -x+1, -z+1/2
HTAB O1 O2_$1
EQIV $2 -y+1, x-y+1, -z+1/2
HTAB C2 O6_$2
EQIV $3 -x+1, -y+1, z+1/2
HTAB C5 O7_$3
HTAB C6 O7_$3
HTAB C8 O4_$1
HTAB C8 O4A_$1

REM Highest difference peak  1.529,  deepest hole -0.497,  1-sigma level  0.081
Q1    1   0.3924  0.2396  0.2500  10.50000  0.05    1.53
Q2    1   0.0113  0.2317  0.1462  11.00000  0.05    0.73
Q3    1  -0.0170  0.2548  0.2500  10.50000  0.05    0.50
Q4    1   0.5699  0.4052  0.3301  11.00000  0.05    0.50
Q5    1  -0.0534  0.2775  0.2500  10.50000  0.05    0.43
Q6    1   0.7133  0.5993  0.2500  10.50000  0.05    0.36
Q7    1  -0.0187  0.3558  0.2500  10.50000  0.05    0.36
Q8    1   0.4717  0.2988  0.2500  10.50000  0.05    0.29
Q9    1   0.4510  0.4112  0.2500  10.50000  0.05    0.29
Q10   1   0.4218  0.4535  0.2767  11.00000  0.05    0.29
Q11   1   0.5966  0.5486  0.3934  11.00000  0.05    0.29
Q12   1   0.7487  0.4633  0.3792  11.00000  0.05    0.29
Q13   1   0.3585  0.4024  0.2500  10.50000  0.05    0.28
Q14   1   0.4583  0.4681  0.2867  11.00000  0.05    0.28
Q15   1   0.8274  0.6485  0.4006  11.00000  0.05    0.27
Q16   1   0.5174  0.2427  0.3293  11.00000  0.05    0.27
Q17   1   0.5774  0.4817  0.3695  11.00000  0.05    0.27
Q18   1   0.6362  0.5692  0.4988  11.00000  0.05    0.26
Q19   1   0.3243  0.6258  0.1492  11.00000  0.05    0.26
Q20   1   0.8477  0.5789  0.3925  11.00000  0.05    0.25
;
_shelx_res_checksum              55116
_shelx_fab_checksum              23578
_shelx_fab_file
;
   -1    2    2     16.03      0.00
    0    2    2     20.23      0.00
   -1    3    0    -63.09      0.00
   -2    3    0     -0.04      0.00
    0    1    3     51.08      0.00
   -1    3    1    -39.86      0.00
   -2    3    1     51.23      0.00
    0    3    0    -82.19      0.00
   -1    2    3     37.73      0.00
    0    3    1     31.86      0.00
   -1    3    2    -25.52      0.00
   -2    3    2     -0.53      0.00
    0    2    3     43.39      0.00
    0    0    4   -112.13      0.00
    0    3    2     -5.13      0.00
   -2    4    0    -57.49      0.00
    0    1    4     10.00      0.00
   -2    4    1     45.66      0.00
   -1    4    0     45.22      0.00
   -2    3    3     31.21      0.00
   -1    3    3      3.68      0.00
   -1    4    1     -4.20      0.00
   -3    4    1      1.84      0.00
   -1    2    4     -6.97      0.00
   -2    4    2    -43.32      0.00
    0    3    3     75.35      0.00
    0    2    4    -36.28      0.00
   -1    4    2    -20.71      0.00
   -3    4    2      3.28      0.00
    0    4    0    -53.50      0.00
    0    4    1     -9.45      0.00
   -2    4    3     75.66      0.00
   -2    3    4     -0.71      0.00
   -1    3    4     74.85      0.00
    0    4    2     11.76      0.00
   -3    5    0    -40.84      0.00
    0    1    5    -28.42      0.00
   -3    4    3     19.85      0.00
   -1    4    3     43.28      0.00
   -3    5    1    -24.48      0.00
   -2    5    1    -27.34      0.00
    0    3    4     42.83      0.00
   -1    5    0    -47.16      0.00
   -4    5    0     65.50      0.00
   -1    2    5     -0.84      0.00
   -4    5    1    -12.77      0.00
   -1    5    1    -28.55      0.00
   -2    5    2    -23.63      0.00
   -3    5    2     -9.28      0.00
    0    2    5    -17.27      0.00
    0    4    3     -9.72      0.00
   -2    4    4     67.19      0.00
   -1    5    2      3.66      0.00
   -4    5    2     13.01      0.00
   -3    4    4     -7.38      0.00
   -1    4    4    -35.71      0.00
    0    5    0     11.97      0.00
   -1    3    5     31.50      0.00
   -2    3    5     -1.68      0.00
   -2    5    3    -13.51      0.00
   -3    5    3    -39.07      0.00
    0    5    1    -13.60      0.00
    0    1    6     -4.32      0.00
   -3    6    0     -9.07      0.00
    0    3    5    -18.22      0.00
   -1    5    3     22.16      0.00
   -4    5    3     -4.18      0.00
    0    4    4     -2.57      0.00
   -3    6    1    -21.07      0.00
    0    5    2      8.49      0.00
   -2    6    0    -55.83      0.00
   -4    6    0    -25.18      0.00
   -2    6    1    -18.25      0.00
   -4    6    1     37.78      0.00
   -1    2    6     17.57      0.00
   -3    6    2     -8.81      0.00
    0    2    6     17.40      0.00
   -2    4    5    -15.19      0.00
   -2    5    4     32.70      0.00
   -3    5    4     10.95      0.00
   -4    6    2     -8.82      0.00
   -2    6    2     -6.42      0.00
   -1    6    0     41.87      0.00
   -5    6    0     35.59      0.00
   -1    4    5      9.05      0.00
   -3    4    5    -19.15      0.00
    0    5    3     -1.16      0.00
   -5    6    1    -32.65      0.00
   -1    6    1    -21.19      0.00
   -1    5    4      2.09      0.00
   -4    5    4    -71.36      0.00
   -2    3    6      9.18      0.00
   -1    3    6     17.49      0.00
   -3    6    3    -54.96      0.00
   -5    6    2    -15.40      0.00
   -1    6    2     17.92      0.00
    0    4    5     32.35      0.00
   -4    6    3     13.58      0.00
   -2    6    3      8.58      0.00
    0    3    6     19.77      0.00
    0    6    0     37.81      0.00
    0    1    7    -23.36      0.00
    0    5    4    -22.86      0.00
    0    6    1     -4.90      0.00
   -3    7    0     15.04      0.00
   -4    7    0    -27.55      0.00
   -2    5    5     12.00      0.00
   -3    5    5     21.22      0.00
   -1    6    3      5.63      0.00
   -5    6    3    -36.98      0.00
   -3    7    1    -22.34      0.00
   -4    7    1    -33.24      0.00
   -2    4    6     -2.35      0.00
   -1    2    7    -38.11      0.00
   -3    6    4    -16.16      0.00
    0    6    2      3.36      0.00
   -5    7    0     53.19      0.00
   -1    4    6    -26.15      0.00
   -2    7    0    -38.62      0.00
   -3    4    6     -0.33      0.00
   -1    5    5     -5.38      0.00
   -4    5    5    -11.10      0.00
    0    2    7     15.91      0.00
   -2    6    4     21.21      0.00
   -4    6    4     14.76      0.00
   -2    7    1    -45.39      0.00
   -5    7    1     -4.32      0.00
   -3    7    2    -16.20      0.00
   -4    7    2     -6.48      0.00
   -5    7    2     -1.89      0.00
   -2    7    2     -9.04      0.00
    0    4    6     -3.16      0.00
   -1    3    7     11.88      0.00
   -2    3    7    -42.68      0.00
    0    6    3    -15.21      0.00
   -5    6    4      3.00      0.00
   -1    6    4    -60.72      0.00
   -6    7    0     35.06      0.00
   -1    7    0    -24.89      0.00
    0    5    5      7.79      0.00
   -3    7    3    -29.44      0.00
   -4    7    3    -37.89      0.00
   -1    7    1     45.31      0.00
   -6    7    1     14.68      0.00
    0    3    7    -42.93      0.00
   -2    5    6      2.99      0.00
   -3    5    6     -3.26      0.00
   -3    6    5     17.86      0.00
   -2    7    3    -48.81      0.00
   -5    7    3      7.19      0.00
   -1    7    2     12.11      0.00
   -6    7    2     -5.43      0.00
   -4    6    5    -13.74      0.00
   -2    6    5    -16.82      0.00
    0    0    8     88.99      0.00
   -4    5    6    -36.15      0.00
   -1    5    6      1.93      0.00
    0    1    8     -3.58      0.00
   -2    4    7    -57.21      0.00
    0    6    4    -18.35      0.00
   -4    8    0     -8.66      0.00
   -1    4    7    -25.15      0.00
   -3    4    7     -3.40      0.00
   -4    7    4     12.60      0.00
   -3    7    4      2.87      0.00
   -4    8    1     -5.20      0.00
    0    7    0      6.25      0.00
   -5    6    5     11.32      0.00
   -1    6    5     -6.26      0.00
   -3    8    0      8.80      0.00
   -1    2    8     -1.83      0.00
   -6    7    3     14.59      0.00
   -1    7    3     21.31      0.00
   -5    8    1    -15.32      0.00
    0    7    1      3.46      0.00
   -3    8    1      3.70      0.00
    0    2    8     10.69      0.00
   -5    7    4    -38.42      0.00
   -2    7    4     37.19      0.00
   -4    8    2     -7.40      0.00
    0    5    6    -20.51      0.00
    0    4    7     -4.62      0.00
    0    7    2      7.40      0.00
   -5    8    2      1.17      0.00
   -3    8    2    -11.27      0.00
   -6    8    0     -6.68      0.00
   -2    8    0     12.46      0.00
   -6    8    1     22.85      0.00
   -2    8    1     10.98      0.00
   -3    6    6      7.08      0.00
   -2    3    8      7.53      0.00
   -1    3    8    -16.07      0.00
   -2    6    6     15.45      0.00
   -4    6    6     -0.96      0.00
    0    6    5     14.44      0.00
   -2    5    7      2.35      0.00
   -3    5    7      8.96      0.00
   -4    8    3      4.05      0.00
   -1    7    4      6.38      0.00
   -6    7    4    -11.19      0.00
   -6    8    2      4.63      0.00
   -2    8    2     10.35      0.00
   -4    7    5      9.11      0.00
   -3    7    5     -5.03      0.00
    0    3    8    -23.02      0.00
   -5    8    3     12.56      0.00
    0    7    3    -11.88      0.00
   -3    8    3      6.35      0.00
   -1    5    7     -0.66      0.00
   -4    5    7      7.53      0.00
   -1    6    6     -9.22      0.00
   -1    8    0    -14.67      0.00
   -7    8    0    -14.73      0.00
   -5    6    6    -25.11      0.00
   -5    7    5     -3.93      0.00
   -2    7    5     10.82      0.00
   -1    8    1     25.24      0.00
   -7    8    1     -1.69      0.00
   -2    4    8     -2.39      0.00
   -6    8    3     24.30      0.00
   -2    8    3      6.50      0.00
   -1    4    8     44.53      0.00
   -3    4    8     -0.76      0.00
    0    1    9      0.17      0.00
   -4    8    4     15.85      0.00
   -7    8    2      4.93      0.00
   -1    8    2      6.54      0.00
    0    5    7      4.04      0.00
   -3    8    4     18.29      0.00
   -5    8    4      6.63      0.00
    0    7    4     -7.13      0.00
   -4    9    0     -1.82      0.00
   -5    9    0     41.38      0.00
   -1    7    5     -6.93      0.00
   -6    7    5     -3.02      0.00
   -1    2    9     -0.07      0.00
   -4    9    1     -9.85      0.00
   -5    9    1      4.18      0.00
    0    6    6    -16.64      0.00
    0    4    8    -14.49      0.00
   -3    6    7      6.64      0.00
    0    2    9    -16.06      0.00
   -4    7    6     13.62      0.00
   -3    9    0      8.03      0.00
   -6    9    0    -13.82      0.00
   -3    7    6     -6.41      0.00
   -2    6    7     -4.21      0.00
   -4    6    7    -38.88      0.00
   -1    8    3      7.77      0.00
   -7    8    3    -26.25      0.00
   -6    8    4     -1.38      0.00
   -2    8    4    -13.18      0.00
   -6    9    1     15.01      0.00
   -3    9    1     -2.79      0.00
   -4    9    2      9.92      0.00
   -5    9    2     10.74      0.00
    0    8    0     39.33      0.00
    0    8    1      3.14      0.00
   -5    7    6     -9.86      0.00
   -2    7    6     11.65      0.00
   -2    5    8     -7.60      0.00
   -3    5    8     -9.08      0.00
   -1    3    9    -20.39      0.00
   -2    3    9     -0.33      0.00
   -6    9    2     -7.02      0.00
   -3    9    2     14.62      0.00
   -4    8    5    -15.49      0.00
   -5    6    7     24.22      0.00
   -1    6    7      5.66      0.00
    0    8    2      2.25      0.00
   -2    9    0    -22.66      0.00
   -7    9    0     23.18      0.00
   -3    8    5    -14.88      0.00
    0    7    5     10.07      0.00
   -5    8    5    -10.50      0.00
   -4    5    8     25.17      0.00
   -1    5    8    -11.66      0.00
    0    3    9      3.85      0.00
   -5    9    3      4.61      0.00
   -4    9    3    -22.52      0.00
   -2    9    1     -8.96      0.00
   -7    9    1     14.49      0.00
   -1    8    4      9.03      0.00
   -7    8    4      7.34      0.00
   -1    7    6     15.16      0.00
   -6    7    6     -5.77      0.00
   -3    9    3     12.34      0.00
   -6    9    3     29.58      0.00
   -2    9    2      9.35      0.00
   -7    9    2      3.64      0.00
   -6    8    5     -3.71      0.00
   -2    8    5     -6.81      0.00
    0    8    3      7.33      0.00
   -2    4    9     -7.40      0.00
    0    5    8      1.65      0.00
    0    6    7      5.38      0.00
   -3    4    9    -12.47      0.00
   -1    4    9     -7.59      0.00
    0    0   10     26.73      0.00
   -3    7    7     11.80      0.00
   -4    7    7     20.40      0.00
   -4    9    4      3.10      0.00
   -5    9    4    -36.87      0.00
   -1    9    0     -3.93      0.00
   -8    9    0     -8.17      0.00
    0    1   10     -2.81      0.00
   -3    6    8      3.45      0.00
   -7    9    3      7.15      0.00
   -2    9    3      3.26      0.00
   -8    9    1     22.45      0.00
   -1    9    1     13.73      0.00
   -4    8    6      5.72      0.00
   -4    6    8    -18.51      0.00
   -2    6    8    -14.40      0.00
   -2    7    7     36.06      0.00
   -5    7    7     -5.95      0.00
    0    4    9      3.00      0.00
   -3    9    4     -9.38      0.00
   -6    9    4     19.94      0.00
    0    7    6      9.33      0.00
   -5    8    6     19.05      0.00
   -3    8    6     -4.32      0.00
   -7    8    5     21.15      0.00
   -5   10    0     -3.29      0.00
   -1    8    5      4.20      0.00
   -1    2   10      3.45      0.00
    0    8    4    -18.43      0.00
   -5   10    1     22.05      0.00
   -8    9    2      4.55      0.00
   -1    9    2     -9.94      0.00
   -4   10    0     17.50      0.00
   -6   10    0     -5.75      0.00
    0    2   10     11.33      0.00
   -6   10    1     -8.50      0.00
   -4   10    1     -4.72      0.00
   -1    6    8     22.32      0.00
   -5    6    8      2.70      0.00
   -2    5    9     -2.58      0.00
   -3    5    9     -3.77      0.00
   -5   10    2     12.12      0.00
   -6    8    6     14.18      0.00
   -2    8    6      0.71      0.00
   -1    7    7    -36.35      0.00
   -6    7    7    -19.27      0.00
   -7    9    4    -19.94      0.00
   -2    9    4     12.68      0.00
   -4   10    2     13.93      0.00
   -6   10    2     -7.14      0.00
   -3   10    0    -15.78      0.00
   -7   10    0      3.38      0.00
   -4    9    5      9.70      0.00
   -5    9    5     -0.71      0.00
   -1    3   10    -22.43      0.00
   -2    3   10      2.04      0.00
   -1    5    9     -5.20      0.00
   -1    9    3     10.00      0.00
   -8    9    3     20.48      0.00
   -4    5    9     -8.87      0.00
   -3   10    1      6.10      0.00
   -7   10    1      2.10      0.00
    0    9    0     18.29      0.00
   -3    9    5    -14.15      0.00
   -6    9    5     -4.91      0.00
    0    3   10     -8.56      0.00
   -5   10    3     14.81      0.00
    0    9    1      7.45      0.00
   -3   10    2      7.62      0.00
   -7   10    2     -9.82      0.00
    0    8    5     -1.03      0.00
    0    6    8      7.55      0.00
   -4   10    3     -5.52      0.00
   -6   10    3    -11.64      0.00
   -7    8    6     15.48      0.00
   -1    8    6     14.13      0.00
   -4    7    8    -15.50      0.00
   -3    7    8     11.81      0.00
   -4    8    7      0.91      0.00
    0    5    9      2.35      0.00
    0    9    2     -6.63      0.00
   -8   10    0      0.64      0.00
   -2   10    0     18.85      0.00
   -2    4   10    -20.95      0.00
    0    7    7      2.97      0.00
   -3    8    7     -5.97      0.00
   -5    8    7      5.99      0.00
   -1    9    4     23.81      0.00
   -8    9    4      5.58      0.00
   -2   10    1     -0.90      0.00
   -8   10    1    -11.22      0.00
   -2    9    5     -4.98      0.00
   -7    9    5      4.06      0.00
   -2    7    8    -11.16      0.00
   -5    7    8     15.28      0.00
   -3    4   10      6.07      0.00
   -1    4   10      9.76      0.00
   -3   10    3     24.45      0.00
   -3    6    9      9.70      0.00
   -7   10    3      4.69      0.00
   -2    6    9      0.98      0.00
   -4    6    9      8.13      0.00
   -5   10    4     -0.64      0.00
   -8   10    2      5.75      0.00
   -2   10    2      4.87      0.00
   -4    9    6     -1.46      0.00
   -5    9    6     -7.45      0.00
   -2    8    7     -7.17      0.00
   -6    8    7    -22.07      0.00
    0    9    3     11.84      0.00
   -6   10    4     19.92      0.00
   -4   10    4    -15.92      0.00
    0    4   10      5.50      0.00
    0    1   11     20.45      0.00
   -3    9    6     -3.15      0.00
   -6    9    6     11.84      0.00
   -1    7    8    -12.19      0.00
   -6    7    8      4.58      0.00
   -5    6    9     -6.43      0.00
   -1    6    9     -4.03      0.00
    0    8    6     -9.46      0.00
   -1    2   11     10.06      0.00
   -7   10    4     14.68      0.00
   -8   10    3      1.34      0.00
   -3   10    4      9.83      0.00
   -2   10    3     -5.99      0.00
   -1    9    5     -4.61      0.00
   -8    9    5     -8.13      0.00
   -9   10    0     11.69      0.00
   -6   11    0     -1.23      0.00
   -1   10    0     -0.68      0.00
   -5   11    0     12.66      0.00
   -2    5   10    -12.00      0.00
   -3    5   10     -1.23      0.00
    0    2   11      8.41      0.00
   -6   11    1     -7.91      0.00
   -1   10    1     -4.21      0.00
   -9   10    1     -6.10      0.00
   -5   11    1     -3.46      0.00
   -7    8    7      4.91      0.00
   -1    8    7    -14.66      0.00
    0    9    4      4.52      0.00
   -2    9    6     11.25      0.00
   -7    9    6      2.96      0.00
   -7   11    0      1.34      0.00
   -4   11    0     18.54      0.00
   -5   10    5     -2.09      0.00
   -4    5   10     26.33      0.00
   -1    5   10     -1.91      0.00
   -4   11    1     -7.04      0.00
   -7   11    1     -4.14      0.00
   -9   10    2      9.34      0.00
   -5   11    2      5.06      0.00
   -6   11    2      7.39      0.00
   -1   10    2     -7.05      0.00
   -6   10    5      9.90      0.00
   -4   10    5      2.57      0.00
   -4    8    8     -4.06      0.00
   -1    3   11    -14.23      0.00
   -2    3   11      9.00      0.00
    0    6    9     -0.54      0.00
   -3    8    8      7.31      0.00
   -5    8    8    -14.33      0.00
    0    7    8     -0.50      0.00
   -3    7    9      6.10      0.00
   -4    7    9     -2.99      0.00
   -2   10    4    -18.65      0.00
   -8   10    4     -5.13      0.00
   -4   11    2     -1.57      0.00
   -7   11    2     -2.09      0.00
    0    3   11     23.25      0.00
   -5    9    7     -3.37      0.00
   -4    9    7     12.34      0.00
   -3   11    0    -19.06      0.00
   -8   11    0    -18.50      0.00
   -3   10    5    -14.89      0.00
   -7   10    5      3.03      0.00
    0    5   10      5.97      0.00
   -2    7    9     -1.51      0.00
   -5   11    3      5.47      0.00
   -5    7    9     -6.46      0.00
   -6   11    3      7.91      0.00
   -1   10    3     -7.20      0.00
   -9   10    3      3.55      0.00
   -3   11    1    -10.84      0.00
   -8   11    1      8.65      0.00
   -2    8    8     13.13      0.00
   -6    8    8    -11.33      0.00
   -3    9    7      4.71      0.00
   -6    9    7    -15.83      0.00
   -1    9    6      1.50      0.00
   -8    9    6      5.34      0.00
    0    9    5     -2.15      0.00
   -3    6   10      1.66      0.00
   -2    4   11     21.90      0.00
    0    8    7     -3.75      0.00
   -7   11    3     -3.74      0.00
   -4   11    3     -0.29      0.00
   -3   11    2      0.25      0.00
   -8   11    2     -0.86      0.00
    0   10    0     20.32      0.00
   -2    6   10    -11.64      0.00
   -4    6   10     -5.45      0.00
   -1    4   11      4.68      0.00
   -3    4   11      6.46      0.00
    0   10    1     -6.64      0.00
   -5   10    6      1.03      0.00
   -1    7    9      7.25      0.00
   -6    7    9     -1.79      0.00
   -6   10    6      2.57      0.00
   -4   10    6     -7.72      0.00
   -2   10    5      1.74      0.00
   -8   10    5     -0.28      0.00
   -2    9    7     10.97      0.00
   -7    9    7     -7.13      0.00
   -1   10    4     10.84      0.00
   -5   11    4     -4.58      0.00
   -9   10    4    -17.66      0.00
   -6   11    4     -3.90      0.00
    0   10    2      3.79      0.00
   -9   11    0     -2.75      0.00
   -2   11    0    -10.40      0.00
   -5    6   10     -5.44      0.00
   -1    6   10     13.22      0.00
   -7    8    8    -12.91      0.00
   -1    8    8     -5.13      0.00
    0    4   11    -10.97      0.00
   -8   11    3      6.00      0.00
   -3   11    3    -21.35      0.00
   -9   11    1    -11.98      0.00
   -2   11    1      7.96      0.00
    0    0   12     -9.02      0.00
   -7   11    4      1.53      0.00
   -4   11    4     -0.55      0.00
    0    1   12      9.36      0.00
   -3   10    6      5.18      0.00
   -7   10    6     -1.20      0.00
   -2   11    2      0.02      0.00
   -9   11    2      1.99      0.00
   -3    5   11    -16.41      0.00
   -2    5   11     -8.49      0.00
   -4    8    9      1.96      0.00
    0   10    3      7.45      0.00
   -1    2   12     -3.15      0.00
    0    9    6     -5.79      0.00
   -5    9    8     20.60      0.00
   -4    9    8     -2.47      0.00
    0    7    9     -0.03      0.00
   -3    8    9      4.26      0.00
   -5    8    9     -6.19      0.00
    0    2   12    -10.21      0.00
   -6   12    0    -12.83      0.00
    0    6   10      1.43      0.00
   -8    9    7    -17.93      0.00
   -1    5   11      5.50      0.00
   -1    9    7     -6.80      0.00
   -4    5   11     -0.16      0.00
   -8   11    4     13.35      0.00
   -3   11    4     11.92      0.00
   -6   12    1    -14.53      0.00
   -7   12    0     -6.71      0.00
   -5   12    0     -6.37      0.00
   -6   11    5     -1.11      0.00
   -9   10    5     -3.98      0.00
   -1   10    5      5.61      0.00
   -5   11    5      2.20      0.00
   -3    9    8      2.88      0.00
   -4    7   10     -5.03      0.00
   -3    7   10     -1.41      0.00
   -6    9    8     -5.49      0.00
   -2   11    3     -8.36      0.00
   -9   11    3     -3.78      0.00
   -5   12    1     12.80      0.00
   -7   12    1     -4.42      0.00
   -2   10    6     -1.19      0.00
   -8   10    6      1.14      0.00
    0    8    8     18.17      0.00
   -5   10    7    -19.18      0.00
   -2    8    9     -0.29      0.00
   -6    8    9     -2.13      0.00
   -6   12    2      2.04      0.00
   -1    3   12     10.53      0.00
   -2    3   12     -4.40      0.00
  -10   11    0      0.13      0.00
   -1   11    0     -5.88      0.00
   -4   11    5      3.11      0.00
   -7   11    5      3.62      0.00
   -5    7   10     10.07      0.00
   -2    7   10    -17.09      0.00
   -4   10    7      5.51      0.00
   -6   10    7     13.15      0.00
    0   10    4    -19.96      0.00
  -10   11    1      8.40      0.00
   -1   11    1    -13.30      0.00
   -7   12    2      2.91      0.00
   -5   12    2     -3.37      0.00
   -8   12    0    -24.52      0.00
   -4   12    0      3.95      0.00
    0    5   11     -2.51      0.00
   -8   12    1    -10.44      0.00
   -4   12    1     -1.33      0.00
    0    3   12      6.01      0.00
   -7    9    8     10.94      0.00
   -2    9    8     -9.34      0.00
  -10   11    2      2.38      0.00
   -1   11    2     -3.61      0.00
   -3    6   11    -14.11      0.00
   -7   10    7      4.07      0.00
   -3   10    7     -7.15      0.00
   -6   12    3      1.45      0.00
   -2   11    4      2.52      0.00
   -9   11    4     -1.08      0.00
   -4   12    2     -2.16      0.00
   -8   12    2      1.57      0.00
   -8   11    5      0.95      0.00
   -3   11    5     10.26      0.00
   -6    7   10     -0.95      0.00
   -1    7   10     -7.76      0.00
   -4    6   11     15.13      0.00
   -2    6   11      8.49      0.00
   -7    8    9      1.96      0.00
   -7   12    3      6.88      0.00
   -1    8    9     -2.38      0.00
   -5   12    3     18.35      0.00
   -2    4   12     10.58      0.00
    0    9    7    -10.36      0.00
   -1    4   12    -10.31      0.00
   -3    4   12     -2.31      0.00
   -6   11    6      0.88      0.00
   -9   12    0      6.68      0.00
   -5   11    6     -7.73      0.00
   -9   10    6     -3.98      0.00
   -3   12    0     -8.25      0.00
   -1   10    6      1.32      0.00
  -10   11    3      8.45      0.00
   -1   11    3     -5.51      0.00
   -3   12    1      0.08      0.00
   -9   12    1      2.72      0.00
    0   10    5     -1.42      0.00
   -5    6   11    -14.56      0.00
   -1    6   11      4.21      0.00
   -8   12    3    -23.94      0.00
   -4   12    3      1.66      0.00
   -7   11    6      2.12      0.00
   -4   11    6    -13.39      0.00
   -1    9    8     -0.17      0.00
   -8    9    8     -6.70      0.00
   -8   10    7     16.10      0.00
   -2   10    7      3.63      0.00
   -5    9    9      2.62      0.00
   -4    9    9      2.79      0.00
   -6   12    4      8.89      0.00
   -9   12    2      2.73      0.00
   -3   12    2      1.07      0.00
    0    4   12      3.37      0.00
   -4    8   10     -3.56      0.00
   -7   12    4      2.43      0.00
   -5   12    4     13.23      0.00
    0   11    0     -9.78      0.00
   -2   11    5      5.21      0.00
   -9   11    5      0.03      0.00
   -5    8   10     -2.68      0.00
   -5   10    8     -5.24      0.00
    0    7   10     -3.76      0.00
   -3    8   10     -6.32      0.00
   -3    9    9     -0.92      0.00
   -6    9    9     -3.33      0.00
    0   11    1      4.95      0.00
   -6   10    8     -0.29      0.00
   -4   10    8      5.82      0.00
    0    8    9     -3.34      0.00
   -1   11    4      3.82      0.00
  -10   11    4     -1.60      0.00
   -3    5   12      3.36      0.00
   -2    5   12      5.55      0.00
    0    1   13      0.02      0.00
   -8   11    6      5.76      0.00
   -3   11    6      5.73      0.00
    0    6   11     -5.53      0.00
   -3   12    3     -5.56      0.00
   -9   12    3     -4.82      0.00
   -8   12    4     11.66      0.00
   -4   12    4     -0.01      0.00
    0   11    2      1.01      0.00
   -2   12    0      4.99      0.00
  -10   12    0     -1.05      0.00
   -2    8   10      2.95      0.00
   -6    8   10     -0.74      0.00
   -3    7   11     -2.99      0.00
   -4    7   11    -11.14      0.00
  -10   12    1     -0.19      0.00
   -2   12    1      1.41      0.00
   -1    5   12      2.01      0.00
   -4    5   12     -7.58      0.00
   -1    2   13      5.34      0.00
   -7   10    8      4.29      0.00
   -3   10    8    -10.56      0.00
   -7    9    9      0.91      0.00
   -2    9    9     -4.97      0.00
    0   10    6     -4.15      0.00
    0    2   13     -5.17      0.00
   -6   12    5      0.44      0.00
   -9   10    7      8.48      0.00
   -5   11    7      1.93      0.00
   -6   11    7      4.03      0.00
   -5    7   11      3.44      0.00
   -1   10    7      3.55      0.00
   -2    7   11    -17.88      0.00
  -10   12    2     -7.55      0.00
   -2   12    2     -6.60      0.00
   -7   13    0     -3.71      0.00
   -6   13    0     10.11      0.00
   -5   12    5     -3.08      0.00
   -7   12    5     -4.78      0.00
    0    9    8      5.32      0.00
    0   11    3     21.85      0.00
   -6   13    1      9.04      0.00
   -7   13    1      5.65      0.00
   -4   11    7      3.10      0.00
   -7   11    7      6.18      0.00
   -9   12    4     -9.70      0.00
   -3   12    4     -1.94      0.00
   -9   11    6      0.23      0.00
    0    5   12      1.27      0.00
   -2   11    6      6.79      0.00
   -8   13    0      6.93      0.00
   -5   13    0    -11.36      0.00
   -2    3   13      6.65      0.00
   -1    3   13     -0.92      0.00
   -1   11    5      2.46      0.00
  -10   11    5     -6.54      0.00
   -7    8   10     -5.76      0.00
   -1    8   10     -6.43      0.00
   -8   13    1     -4.01      0.00
   -5   13    1      1.13      0.00
   -6   13    2      3.97      0.00
   -7   13    2     -3.27      0.00
   -8   12    5     13.95      0.00
   -4   12    5      0.61      0.00
   -8   10    8     -0.74      0.00
   -2   10    8     10.12      0.00
   -1    7   11     15.20      0.00
   -6    7   11      8.10      0.00
  -10   12    3      2.70      0.00
   -2   12    3     -1.92      0.00
   -3    6   12     -4.71      0.00
    0    3   13      2.22      0.00
   -8    9    9      3.11      0.00
   -1    9    9     -0.06      0.00
   -8   13    2     -2.69      0.00
   -5   13    2     -0.56      0.00
   -2    6   12      2.46      0.00
   -4    6   12      8.52      0.00
   -3   11    7     14.52      0.00
   -8   11    7     -4.59      0.00
    0   11    4      1.93      0.00
   -9   13    0     -9.98      0.00
  -11   12    0     10.75      0.00
   -4   13    0      7.36      0.00
   -1   12    0      5.43      0.00
   -5    9   10     15.62      0.00
   -4    9   10      3.40      0.00
   -6   13    3      1.76      0.00
   -7   13    3      9.28      0.00
   -5   10    9      7.96      0.00
   -4   13    1     -3.85      0.00
  -11   12    1     -0.10      0.00
   -9   13    1      0.40      0.00
   -1   12    1     -4.57      0.00
   -2    4   13      4.36      0.00
   -6   12    6      3.06      0.00
   -6   10    9      2.27      0.00
   -4   10    9      3.93      0.00
   -1    4   13      0.66      0.00
   -7   12    6      0.72      0.00
   -5    6   12      8.03      0.00
   -5   12    6     -3.73      0.00
   -1    6   12    -11.74      0.00
   -3    4   13      0.11      0.00
   -9   12    5      4.39      0.00
   -3   12    5      0.47      0.00
   -3    9   10      7.57      0.00
   -6    9   10     -9.10      0.00
   -4    8   11      5.14      0.00
    0   10    7      1.82      0.00
   -5   13    3     -0.18      0.00
   -8   13    3     -4.46      0.00
  -10   12    4     11.78      0.00
   -2   12    4      0.21      0.00
   -9   13    2      2.01      0.00
  -11   12    2     -1.54      0.00
   -1   12    2     -3.67      0.00
   -4   13    2      3.56      0.00
    0    8   10      8.09      0.00
   -5    8   11      2.18      0.00
    0    7   11     -5.21      0.00
   -3    8   11      7.35      0.00
  -10   11    6     -2.92      0.00
   -1   11    6      4.85      0.00
   -9   10    8      4.68      0.00
   -1   10    8     -1.44      0.00
   -5   11    8      2.84      0.00
   -6   11    8      1.72      0.00
   -7   10    9      0.43      0.00
   -3   10    9     -1.72      0.00
    0    4   13      0.77      0.00
   -4   12    6     -4.63      0.00
   -8   12    6     10.03      0.00
   -9   11    7     12.97      0.00
   -2   11    7     -6.36      0.00
   -6   13    4    -14.24      0.00
   -7   13    4      8.96      0.00
   -3   13    0     -4.63      0.00
  -10   13    0     -5.71      0.00
    0   11    5     -8.40      0.00
   -4   11    8      5.28      0.00
   -2    9   10     -3.94      0.00
   -7    9   10      4.75      0.00
   -7   11    8      3.40      0.00
   -6    8   11      6.79      0.00
   -2    8   11      4.22      0.00
   -4   13    3      5.19      0.00
   -1   12    3      3.11      0.00
  -11   12    3      2.99      0.00
    0    9    9     -1.39      0.00
   -9   13    3      2.20      0.00
   -3   13    1     -8.11      0.00
  -10   13    1     -0.73      0.00
    0    6   12     -0.73      0.00
   -5   13    4      4.50      0.00
   -8   13    4      0.76      0.00
   -3    7   12     -0.09      0.00
   -4    7   12      5.43      0.00
   -2    5   13     -3.24      0.00
   -3    5   13     -2.14      0.00
    0    0   14    -33.23      0.00
  -10   13    2     -0.37      0.00
   -3   13    2     -3.67      0.00
  -10   12    5     -0.04      0.00
   -2   12    5      0.19      0.00
   -2   10    9      0.42      0.00
   -8   10    9     -6.53      0.00
    0    1   14      0.63      0.00
   -1    5   13     -4.49      0.00
   -3   12    6      1.75      0.00
   -2    7   12      5.85      0.00
   -4    5   13     -0.41      0.00
   -5    7   12     -5.64      0.00
   -9   12    6     -4.23      0.00
   -3   11    8    -12.09      0.00
   -8   11    8     -7.43      0.00
   -6   12    7     11.00      0.00
    0   12    0    -10.80      0.00
   -5   12    7    -14.10      0.00
   -1    8   11      1.40      0.00
   -7   12    7      2.13      0.00
   -7    8   11    -12.41      0.00
   -1    2   14      0.82      0.00
  -11   12    4     -5.31      0.00
   -4   13    4    -15.23      0.00
   -1   12    4     -2.53      0.00
   -9   13    4      3.34      0.00
    0   12    1      2.46      0.00
   -7   13    5     -5.66      0.00
   -6   13    5      1.94      0.00
   -1    9   10     -6.52      0.00
   -8    9   10     -0.51      0.00
   -3   13    3    -12.93      0.00
  -10   13    3      3.33      0.00
    0    2   14     -4.40      0.00
    0   10    8      7.92      0.00
  -10   11    7     -6.44      0.00
   -1   11    7     10.48      0.00
    0   12    2      1.35      0.00
    0   11    6      6.66      0.00
   -6    7   12      0.79      0.00
   -2   13    0      0.33      0.00
  -11   13    0     -2.61      0.00
   -1    7   12      0.94      0.00
   -7   14    0     -5.56      0.00
    0    5   13     -1.49      0.00
   -5   13    5      2.67      0.00
   -8   13    5     -1.70      0.00
   -5   10   10      1.75      0.00
   -8   12    7     12.81      0.00
   -4   12    7      0.02      0.00
  -11   13    1      0.55      0.00
   -2   13    1      6.00      0.00
   -7   14    1      2.33      0.00
   -6   14    0     -5.91      0.00
   -8   14    0      9.10      0.00
   -4   10   10      7.39      0.00
   -6   10   10     -9.50      0.00
   -4    9   11    -11.34      0.00
   -5    9   11     -0.79      0.00
   -1    3   14      8.86      0.00
   -2    3   14     -2.24      0.00
   -6   14    1      7.27      0.00
   -8   14    1     -2.95      0.00
   -3    6   13     -1.81      0.00
   -2   11    8     -8.67      0.00
   -9   11    8     -2.73      0.00
   -1   10    9     -2.72      0.00
   -5   11    9     -2.50      0.00
   -9   10    9     -2.71      0.00
   -6   11    9     -0.70      0.00
   -2   13    2     -9.60      0.00
  -11   13    2     -4.92      0.00
   -7   14    2      0.27      0.00
   -2    6   13     -1.29      0.00
  -10   12    6     -4.88      0.00
   -4    6   13      5.19      0.00
   -2   12    6     -1.32      0.00
   -3    9   11      2.55      0.00
   -6    9   11      7.32      0.00
    0   12    3     -1.47      0.00
    0    3   14      8.79      0.00
   -3   13    4      4.20      0.00
  -10   13    4      4.35      0.00
   -6   14    2      0.63      0.00
   -8   14    2     -5.20      0.00
   -5   14    0      0.48      0.00
   -9   14    0     15.33      0.00
   -9   13    5     -3.45      0.00
   -4   13    5     -5.25      0.00
  -11   12    5     -4.43      0.00
   -1   12    5     -1.04      0.00
   -3   10   10     -4.00      0.00
   -7   10   10     -4.88      0.00
    0    8   11      1.99      0.00
   -7   11    9      3.54      0.00
   -4   11    9     -2.15      0.00
   -5   14    1     -2.05      0.00
   -9   14    1     -2.16      0.00
   -4    8   12      3.57      0.00
   -3   12    7      0.31      0.00
   -9   12    7     -0.99      0.00
   -1    6   13     -1.83      0.00
   -5    6   13     -1.86      0.00
   -7   13    6     -2.40      0.00
   -6   13    6     -4.62      0.00
   -5    8   12      2.55      0.00
    0    7   12     -3.90      0.00
   -3    8   12      3.90      0.00
    0    9   10     -0.41      0.00
   -7   14    3     -1.39      0.00
   -2   13    3      5.80      0.00
  -11   13    3     -0.30      0.00
   -2    4   14      2.58      0.00
   -9   14    2      0.35      0.00
   -5   14    2     -2.42      0.00
   -6   12    8     -7.77      0.00
   -7    9   11     -1.16      0.00
   -2    9   11     -3.02      0.00
   -3    4   14     -2.39      0.00
   -1    4   14    -15.65      0.00
   -6   14    3      3.02      0.00
   -8   14    3     -7.66      0.00
   -8   13    6     -5.36      0.00
   -5   13    6      3.20      0.00
   -5   12    8     -6.23      0.00
   -7   12    8     -4.08      0.00
   -8   11    9      0.87      0.00
   -3   11    9     -1.20      0.00
    0   12    4      3.74      0.00
   -6    8   12      1.12      0.00
   -2    8   12     -5.50      0.00
  -10   14    0     -4.36      0.00
   -4   14    0      2.60      0.00
   -8   10   10      4.09      0.00
   -2   10   10      7.63      0.00
    0   11    7     -9.66      0.00
  -10   14    1     -5.79      0.00
   -4   14    1      7.60      0.00
  -10   13    5     -1.58      0.00
   -3   13    5      2.63      0.00
  -12   13    0      4.38      0.00
   -1   13    0     -5.37      0.00
   -1   11    8     -3.49      0.00
  -10   11    8     -2.81      0.00
   -5   14    3     -0.11      0.00
    0    4   14      2.55      0.00
   -9   14    3     -3.21      0.00
  -12   13    1     -1.66      0.00
   -1   13    1      0.34      0.00
    0    6   13      0.80      0.00
   -8   12    8    -12.21      0.00
   -4   12    8     -1.92      0.00
    0   10    9     -4.81      0.00
  -11   13    4      8.12      0.00
   -2   13    4     10.56      0.00
   -7   14    4      1.96      0.00
  -10   14    2      1.68      0.00
   -4   14    2     -0.76      0.00
  -11   12    6     -5.32      0.00
   -1   12    6     -1.57      0.00
   -3    7   13     -2.52      0.00
   -4    7   13     -0.03      0.00
   -4   13    6     -3.60      0.00
   -9   13    6      3.85      0.00
   -2   12    7     -1.79      0.00
  -10   12    7     -4.12      0.00
   -8   14    4      3.25      0.00
   -6   14    4     -1.18      0.00
  -12   13    2      1.02      0.00
   -1   13    2      1.15      0.00
   -1    9   11      0.38      0.00
   -8    9   11     11.21      0.00
   -3    5   14      0.58      0.00
   -2    5   14      2.78      0.00
   -1    8   12      0.61      0.00
   -7    8   12      2.34      0.00
   -2    7   13     -4.14      0.00
   -5    7   13      2.48      0.00
   -2   11    9      3.29      0.00
   -9   11    9     -2.74      0.00
    0   12    5      5.51      0.00
   -5   10   11      6.41      0.00
   -6   13    7     -6.37      0.00
   -7   13    7     -6.43      0.00
   -4    5   14    -14.20      0.00
   -1    5   14      3.83      0.00
   -4   14    3      6.68      0.00
  -10   14    3      5.43      0.00
   -5   14    4     -1.06      0.00
   -9   14    4     -8.37      0.00
   -3   14    0     11.88      0.00
  -11   14    0      5.85      0.00
   -6   11   10      0.25      0.00
   -1   10   10     -1.55      0.00
   -5   11   10      1.92      0.00
   -3   12    8     -4.97      0.00
   -9   12    8      4.74      0.00
   -9   10   10      8.82      0.00
   -4   10   11     -5.87      0.00
   -6   10   11    -10.47      0.00
    0    1   15     -7.16      0.00
  -12   13    3      0.91      0.00
   -1   13    3      2.73      0.00
  -11   14    1      0.32      0.00
   -3   14    1      2.19      0.00
   -8   13    7      3.15      0.00
   -5   13    7      1.69      0.00
   -5    9   12     -6.62      0.00
   -4    9   12      2.54      0.00
   -3   13    6     -2.34      0.00
  -10   13    6      0.37      0.00
   -1    7   13      4.17      0.00
   -7   14    5     -0.07      0.00
   -6    7   13      3.67      0.00
  -11   13    5      1.76      0.00
   -2   13    5     -4.91      0.00
   -4   11   10      0.39      0.00
   -7   11   10     -0.39      0.00
   -1    2   15     -6.11      0.00
   -3   14    2     -1.54      0.00
  -11   14    2      1.89      0.00
   -6   14    5     -0.36      0.00
   -8   14    5      0.98      0.00
   -3   10   11      8.46      0.00
   -7   10   11     -2.54      0.00
    0    2   15      4.41      0.00
   -6   12    9     -3.62      0.00
    0    5   14     -0.57      0.00
   -3    9   12      0.80      0.00
   -6    9   12      3.58      0.00
    0   11    8     -7.83      0.00
   -5   12    9     -2.85      0.00
   -7   12    9      0.64      0.00
  -10   14    4     -0.16      0.00
   -4   14    4     -3.18      0.00
    0    8   12     -4.68      0.00
  -11   12    7     -1.97      0.00
    0    9   11      3.59      0.00
   -4   13    7      3.41      0.00
   -9   13    7     -2.46      0.00
   -1   12    7     -0.41      0.00
  -12   13    4     -3.33      0.00
   -3    6   14     -4.67      0.00
   -1   13    4      2.28      0.00
   -5   14    5     -0.59      0.00
   -7   15    0     -8.12      0.00
   -8   15    0      5.78      0.00
    0   13    0     -7.06      0.00
   -9   14    5     -3.83      0.00
   -3   11   10     -4.66      0.00
   -8   11   10     -4.53      0.00
  -10   11    9      1.41      0.00
   -1   11    9     -4.00      0.00
   -2    3   15     -8.72      0.00
   -1    3   15     10.39      0.00
  -11   14    3      1.24      0.00
   -3   14    3     -6.93      0.00
   -2    6   14      6.93      0.00
   -4    6   14      3.18      0.00
    0   13    1      7.02      0.00
   -7   15    1     -0.83      0.00
   -8   15    1     -3.85      0.00
   -4    8   13     -0.43      0.00
    0   12    6      5.13      0.00
  -10   12    8     -0.78      0.00
   -2   12    8      0.68      0.00
   -8   12    9      1.45      0.00
   -4   12    9     -2.63      0.00
   -6   15    0     11.55      0.00
   -2    9   12      2.04      0.00
   -3    8   13     -0.40      0.00
   -7    9   12     -5.24      0.00
   -5    8   13     -1.05      0.00
    0    7   13     -0.72      0.00
   -9   15    0      0.37      0.00
   -2   10   11     -2.67      0.00
   -8   10   11     -3.18      0.00
    0    3   15     -8.94      0.00
   -9   15    1      9.17      0.00
   -6   15    1      0.32      0.00
    0   13    2      2.52      0.00
   -8   15    2      3.14      0.00
   -7   15    2      0.46      0.00
   -2   14    0     -7.93      0.00
  -12   14    0     -5.65      0.00
    0   10   10      9.81      0.00
   -5    6   14      0.32      0.00
   -1    6   14     -7.52      0.00
   -2   14    1      0.74      0.00
  -12   14    1      9.21      0.00
   -7   14    6      0.60      0.00
  -11   13    6     -1.53      0.00
   -2   13    6     -3.84      0.00
   -6   13    8      6.92      0.00
   -7   13    8     -2.60      0.00
   -6   15    2     -4.55      0.00
   -9   15    2      2.43      0.00
   -6   14    6      4.08      0.00
   -8   14    6     -5.56      0.00
   -6    8   13      5.81      0.00
  -10   14    5     -5.69      0.00
   -2    8   13      0.92      0.00
   -4   14    5     -5.80      0.00
   -3   13    7      9.76      0.00
  -10   13    7     -3.35      0.00
   -2    4   15     -9.92      0.00
   -3   14    4     -8.12      0.00
  -11   14    4     -9.45      0.00
   -2   14    2     -1.56      0.00
  -12   14    2      1.05      0.00
  -12   13    5     -2.84      0.00
   -1   13    5     -0.52      0.00
   -5   15    0      6.12      0.00
  -10   15    0      2.10      0.00
   -2   11   10     -0.05      0.00
   -8   13    8      2.75      0.00
   -5   13    8     -5.66      0.00
   -9   11   10     -0.36      0.00
   -3   12    9     -0.79      0.00
   -3    4   15     -2.22      0.00
   -1    4   15     -0.42      0.00
   -9   12    9      0.19      0.00
    0   13    3      0.27      0.00
   -7   15    3      3.70      0.00
   -8   15    3     -2.08      0.00
   -5   15    1     -2.94      0.00
  -10   15    1     -4.65      0.00
   -1    9   12      3.10      0.00
   -8    9   12      1.90      0.00
   -5   14    6     -1.11      0.00
   -9   14    6     -6.40      0.00
   -6   15    3     -1.05      0.00
    0    6   14     -0.09      0.00
   -9   15    3      2.54      0.00
  -10   15    2      0.50      0.00
   -5   15    2     -3.23      0.00
   -1   10   11     -3.54      0.00
   -5   11   11      0.02      0.00
   -6   11   11      1.60      0.00
   -9   10   11     -0.50      0.00
    0    4   15      4.66      0.00
  -12   14    3      4.89      0.00
   -4    7   14      2.35      0.00
   -3    7   14     -5.11      0.00
   -2   14    3      2.61      0.00
   -5   10   12      3.28      0.00
   -7    8   13      0.23      0.00
   -1    8   13      3.43      0.00
   -9   13    8     -6.38      0.00
   -4   13    8      3.57      0.00
  -11   12    8      4.28      0.00
   -1   12    8      4.19      0.00
    0   12    7     -0.56      0.00
    0   11    9     -2.71      0.00
   -4   10   12     -2.94      0.00
   -6   10   12      4.97      0.00
   -6   12   10     -3.13      0.00
   -7   11   11     -2.57      0.00
   -4   11   11     -1.39      0.00
   -2    7   14      8.80      0.00
   -8   15    4     -7.73      0.00
   -5    7   14     -8.01      0.00
    0   13    4      2.61      0.00
   -7   15    4      2.40      0.00
   -3   14    5      0.60      0.00
  -11   14    5     -1.55      0.00
  -11   15    0      2.75      0.00
   -4   15    0     -0.77      0.00
   -5   12   10     -5.11      0.00
   -7   12   10      3.38      0.00
   -2    5   15      2.83      0.00
   -3    5   15      5.22      0.00
   -5   15    3     -5.21      0.00
  -10   15    3     -8.44      0.00
  -11   15    1     -0.07      0.00
   -4   15    1      4.34      0.00
   -4   14    6     -2.40      0.00
  -10   14    6      3.04      0.00
  -11   13    7     -4.36      0.00
   -2   13    7     -5.68      0.00
   -7   14    7      0.75      0.00
  -10   12    9     -2.77      0.00
   -2   12    9      0.07      0.00
   -6   15    4     -4.00      0.00
   -9   15    4     -0.17      0.00
   -1   13    6      2.21      0.00
   -3   10   12      3.81      0.00
   -7   10   12      2.32      0.00
  -12   13    6     -3.22      0.00
   -1   14    0      2.17      0.00
  -13   14    0      8.00      0.00
   -5    9   13     -0.28      0.00
   -4    9   13     -1.40      0.00
  -10   11   10      1.55      0.00
   -1   11   10     -1.14      0.00
   -6   14    7     -4.25      0.00
   -8   14    7      4.01      0.00
   -1    5   15      0.16      0.00
   -4    5   15      0.81      0.00
  -12   14    4      1.84      0.00
   -2   14    4      6.45      0.00
   -1   14    1     -0.46      0.00
  -13   14    1     -1.30      0.00
   -4   15    2      0.28      0.00
  -11   15    2     -2.57      0.00
   -8   12   10     -2.41      0.00
   -4   12   10     -1.86      0.00
   -3   11   11    -10.50      0.00
   -8   11   11      3.91      0.00
   -1    7   14      7.76      0.00
   -6    7   14     -1.87      0.00
    0    0   16     13.11      0.00
   -3    9   13     -1.61      0.00
    0    9   12      1.14      0.00
   -6    9   13      4.19      0.00
   -3   13    8     -1.82      0.00
  -10   13    8     -3.53      0.00
   -6   13    9      1.02      0.00
   -7   13    9      1.22      0.00
    0    1   16      2.28      0.00
  -13   14    2     -0.52      0.00
   -1   14    2      4.04      0.00
    0    8   13      0.20      0.00
   -5   14    7      4.55      0.00
   -9   14    7      3.91      0.00
   -5   15    4     -2.74      0.00
  -10   15    4     -1.31      0.00
    0   13    5      2.25      0.00
   -7   15    5     -3.44      0.00
   -8   15    5     -1.55      0.00
    0   10   11      2.18      0.00
    0    5   15      1.08      0.00
   -5   13    9     -4.47      0.00
  -11   15    3      4.91      0.00
   -8   13    9      1.96      0.00
   -4   15    3     -5.02      0.00
   -1    2   16      1.38      0.00
   -2   10   12     -5.84      0.00
   -8   10   12     -0.87      0.00
    0    2   16      2.17      0.00
   -7    9   13      1.24      0.00
  -12   15    0     -2.75      0.00
   -3   14    6     -7.31      0.00
  -11   14    6     -0.69      0.00
   -2    9   13     -3.58      0.00
   -3   15    0      2.48      0.00
   -9   15    5     -1.04      0.00
   -6   15    5     -0.55      0.00
   -9   12   10      5.07      0.00
   -3   12   10     -0.14      0.00
   -3    6   15      2.66      0.00
   -1   14    3      2.01      0.00
  -13   14    3     -4.13      0.00
   -4    8   14      2.18      0.00
   -3   15    1     -0.14      0.00
  -12   15    1     -3.70      0.00
   -2   14    5     -4.86      0.00
  -12   14    5      0.13      0.00
    0   12    8     -5.65      0.00
   -2   11   11      1.77      0.00
   -2    6   15     -3.44      0.00
   -9   11   11     -3.71      0.00
   -4    6   15    -10.30      0.00
   -3    8   14     -0.47      0.00
   -5    8   14      3.15      0.00
    0    7   14      2.77      0.00
  -10   14    7      2.13      0.00
   -4   14    7     -5.54      0.00
   -1   12    9     -1.26      0.00
   -4   13    9     -5.13      0.00
  -11   12    9     -1.25      0.00
   -9   13    9     -0.31      0.00
   -1    3   16     -1.73      0.00
   -2    3   16      0.68      0.00
   -3   15    2     -2.10      0.00
  -12   15    2     -1.46      0.00
   -8   16    0      2.63      0.00
  -12   13    7     -0.59      0.00
   -1   13    7     -2.24      0.00
  -11   15    4      0.79      0.00
   -4   15    4     -2.30      0.00
   -8   16    1     -3.66      0.00
   -7   16    0     -7.58      0.00
   -9   16    0     -3.48      0.00
  -10   15    5      2.25      0.00
   -5   15    5      2.22      0.00
    0   11   10     -2.54      0.00
   -2   13    8      1.02      0.00
  -11   13    8     -3.05      0.00
   -7   14    8     -0.93      0.00
   -1    6   15     -0.26      0.00
   -5    6   15      7.35      0.00
   -6    8   14      1.74      0.00
   -2    8   14     -2.27      0.00
   -9   16    1     -2.49      0.00
   -7   16    1     -5.95      0.00
    0    3   16     -4.03      0.00
   -8   14    8      3.01      0.00
   -6   14    8     -1.17      0.00
  -13   14    4     -2.56      0.00
   -1   14    4     -7.21      0.00
   -8   16    2     -0.11      0.00
    0   13    6      2.14      0.00
   -9   10   12     -4.72      0.00
   -7   15    6      3.30      0.00
   -5   11   12      0.29      0.00
   -1   10   12      1.51      0.00
   -8   15    6     -2.12      0.00
   -6   11   12     -0.94      0.00
   -1    9   13      0.36      0.00
   -8    9   13      2.70      0.00
   -6   12   11     -2.03      0.00
   -3   15    3     -1.61      0.00
  -12   15    3     -3.18      0.00
   -7   16    2     -2.29      0.00
   -9   16    2      0.81      0.00
   -6   16    0     -1.50      0.00
  -10   16    0      3.95      0.00
    0   14    0      0.28      0.00
   -2   12   10     -1.15      0.00
  -10   12   10     -5.08      0.00
   -5   12   11      8.33      0.00
   -7   12   11      3.31      0.00
  -10   16    1      1.55      0.00
   -6   16    1      5.93      0.00
    0   14    1     -3.02      0.00
   -2    4   16     -1.29      0.00
   -6   15    6     -3.16      0.00
   -4   11   12      0.63      0.00
   -7   11   12     -0.69      0.00
   -9   15    6     -0.84      0.00
   -5   10   13      1.01      0.00
   -5   14    8      3.86      0.00
   -9   14    8      6.27      0.00
  -10   13    9     -2.51      0.00
   -3   13    9     -1.27      0.00
   -1    4   16      3.69      0.00
   -3    4   16     -1.27      0.00
   -2   14    6      1.17      0.00
  -12   14    6      0.60      0.00
   -6   10   13     -2.19      0.00
   -4   10   13     -1.57      0.00
  -11   14    7     -1.83      0.00
  -10   11   11      3.42      0.00
   -3   14    7     -1.17      0.00
    0    6   15      2.38      0.00
   -1   11   11     -1.96      0.00
   -7    8   14      3.78      0.00
   -1    8   14      3.74      0.00
   -8   16    3      1.56      0.00
   -6   16    2     -1.98      0.00
  -10   16    2      4.29      0.00
    0   14    2     -0.40      0.00
  -11   15    5     -4.15      0.00
   -2   15    0     -8.86      0.00
  -13   15    0      3.61      0.00
   -4   15    5      3.43      0.00
   -7   13   10     -0.82      0.00
   -6   13   10      7.08      0.00
   -8   12   11     -9.89      0.00
   -4   12   11     -0.37      0.00
   -9   16    3     -1.89      0.00
   -3    7   15     -0.13      0.00
   -7   16    3    -10.34      0.00
   -4    7   15      4.31      0.00
  -13   15    1      3.38      0.00
   -2   15    1     -6.47      0.00
  -12   15    4      1.62      0.00
   -3   15    4      0.14      0.00
    0    4   16     -3.35      0.00
   -8   11   12      1.32      0.00
   -3   11   12      2.28      0.00
   -5   15    6     -0.56      0.00
   -7   10   13     -1.93      0.00
   -1   14    5     -0.92      0.00
  -10   15    6      0.94      0.00
  -13   14    5      2.30      0.00
   -3   10   13      2.60      0.00
  -11   16    0      0.54      0.00
   -5   16    0      1.29      0.00
   -8   13   10      2.23      0.00
   -5   13   10     -3.07      0.00
   -5    7   15     -0.43      0.00
   -2    7   15      7.47      0.00
  -11   16    1      0.33      0.00
   -5   16    1     -2.35      0.00
   -2   15    2      0.16      0.00
  -13   15    2      1.68      0.00
  -10   14    8     -1.83      0.00
   -4   14    8      0.96      0.00
   -6   16    3      2.87      0.00
    0   12    9      1.36      0.00
    0   14    3     -4.84      0.00
   -4    9   14      2.30      0.00
   -5    9   14     -9.33      0.00
  -10   16    3     -2.47      0.00
    0    9   13      0.53      0.00
  -12   13    8      0.51      0.00
   -1   13    8     -3.13      0.00
   -8   16    4     -1.92      0.00
   -2    5   16     -0.31      0.00
   -3    5   16     -1.51      0.00
  -11   16    2     -0.19      0.00
   -5   16    2      1.94      0.00
    0   10   12     -3.40      0.00
   -3   12   11      1.12      0.00
   -9   12   11     -1.90      0.00
   -8   15    7      4.91      0.00
    0   13    7     -5.02      0.00
   -7   15    7      0.83      0.00
   -9   16    4      3.16      0.00
   -6    9   14      4.53      0.00
   -7   16    4      6.54      0.00
   -3    9   14     -2.73      0.00
   -9   13   10      0.37      0.00
   -4   13   10      5.35      0.00
  -11   12   10     -0.53      0.00
   -1   12   10      0.03      0.00
   -2   15    3     -0.01      0.00
   -7   14    9      0.93      0.00
  -11   13    9     -0.81      0.00
  -13   15    3      1.86      0.00
   -6    7   15     -2.64      0.00
   -2   13    9      1.38      0.00
    0    8   14     -9.34      0.00
   -1    7   15     -9.16      0.00
   -1    5   16     -0.01      0.00
   -4    5   16      0.52      0.00
   -8   10   13      0.59      0.00
   -2   10   13     -0.92      0.00
   -6   15    7      1.83      0.00
   -9   15    7     -7.40      0.00
   -8   14    9      2.91      0.00
   -6   14    9      0.32      0.00
   -4   15    6      0.69      0.00
   -2   11   12      1.57      0.00
  -11   15    6     -0.98      0.00
   -9   11   12      0.21      0.00
  -12   15    5      2.93      0.00
   -3   15    5     -0.93      0.00
   -2   14    7     -1.05      0.00
  -12   14    7    -11.25      0.00
    0   14    4      2.84      0.00
   -6   16    4      2.43      0.00
  -10   16    4     -7.27      0.00
   -5   16    3     -0.69      0.00
  -11   16    3     -1.45      0.00
   -4   16    0     -2.94      0.00
  -12   16    0      0.59      0.00
    0   11   11     10.61      0.00
   -7    9   14     -3.90      0.00
   -2    9   14      2.95      0.00
  -12   16    1     -0.49      0.00
   -4   16    1      1.91      0.00
  -13   14    6     -4.28      0.00
   -1   14    6      1.00      0.00
  -11   14    8      4.01      0.00
   -3   14    8      7.60      0.00
   -5   14    9     -3.70      0.00
   -9   14    9      0.01      0.00
    0    1   17     -3.50      0.00
    0    5   16      0.88      0.00
   -8   16    5     -1.74      0.00
  -10   15    7      6.60      0.00
   -4    8   15     -0.67      0.00
   -5   15    7      1.95      0.00
   -2   15    4      4.88      0.00
  -13   15    4     -5.88      0.00
   -4   16    2     -0.63      0.00
  -12   16    2     -2.79      0.00
  -14   15    0      5.01      0.00
   -1   15    0     -1.99      0.00
   -9   16    5      1.42      0.00
   -7   16    5      5.63      0.00
   -3   13   10     -3.16      0.00
  -10   13   10     -2.68      0.00
   -2   12   11      2.22      0.00
  -10   12   11      2.29      0.00
    0    7   15      1.63      0.00
   -5    8   15      0.66      0.00
   -3    8   15     -2.47      0.00
   -1    2   17     -1.95      0.00
  -14   15    1      0.33      0.00
   -1   15    1      5.10      0.00
   -3    6   16      2.35      0.00
   -6   12   12      1.42      0.00
   -5   16    4     -3.80      0.00
  -11   16    4      0.42      0.00
    0    2   17     -1.01      0.00
   -4    6   16     -0.26      0.00
   -2    6   16     -0.22      0.00
   -5   11   13      1.28      0.00
   -6   11   13     -1.55      0.00
   -7   12   12      1.36      0.00
   -1   10   13      1.78      0.00
   -9   10   13      0.54      0.00
   -5   12   12      2.19      0.00
  -14   15    2     -0.88      0.00
   -1   15    2      1.12      0.00
   -6   16    5      1.12      0.00
    0   14    5      2.96      0.00
  -10   16    5      2.00      0.00
   -6   13   11      1.11      0.00
   -7   13   11      4.95      0.00
   -6    8   15     -5.22      0.00
   -2    8   15     -1.05      0.00
   -4   16    3      4.99      0.00
   -8    9   14     -0.39      0.00
  -10   14    9     -4.23      0.00
  -12   16    3      0.89      0.00
   -4   14    9     -0.34      0.00
   -1    9   14      0.09      0.00
  -12   15    6      1.20      0.00
   -1   11   12      0.53      0.00
  -10   11   12      0.55      0.00
   -3   15    6     -0.76      0.00
   -7   11   13     -0.75      0.00
   -4   11   13      1.06      0.00
   -8   15    8      2.94      0.00
    0   13    8     -3.38      0.00
   -7   15    8     -0.76      0.00
  -12   13    9     -2.41      0.00
   -1   13    9      2.37      0.00
   -2    3   17     -1.72      0.00
   -1    3   17      2.32      0.00
   -1    6   16      3.45      0.00
   -5    6   16      1.43      0.00
   -4   12   12     -0.62      0.00
   -8   12   12      2.08      0.00
    0   12   10     -2.73      0.00
   -8   13   11     -0.02      0.00
   -4   15    7     -1.88      0.00
   -5   13   11     -3.56      0.00
  -11   15    7     -0.41      0.00
   -5   10   14      0.31      0.00
  -13   15    5      2.56      0.00
   -3   16    0      7.02      0.00
  -13   16    0     -1.61      0.00
   -2   15    5     -0.99      0.00
   -9   17    0     -1.53      0.00
   -8   17    0     -1.18      0.00
   -9   15    8     -2.22      0.00
   -6   15    8      8.92      0.00
  -14   15    3     -2.44      0.00
   -1   15    3      1.89      0.00
   -6   10   14      3.37      0.00
   -4   10   14     -0.74      0.00
    0    3   17     -4.89      0.00
   -8   17    1      4.43      0.00
   -9   17    1      0.29      0.00
  -13   16    1     -3.11      0.00
   -3   16    1     -2.67      0.00
   -8   16    6     -1.46      0.00
   -2   14    8     -2.61      0.00
  -12   14    8     -3.91      0.00
  -13   14    7      1.07      0.00
   -1   14    7     -0.38      0.00
   -3   11   13      0.86      0.00
   -5   16    5      2.94      0.00
  -10   17    0     -0.33      0.00
   -8   11   13      3.54      0.00
   -7   16    6      3.14      0.00
  -11   16    5     -0.42      0.00
   -9   16    6     -0.09      0.00
   -7   17    0      2.05      0.00
   -7   14   10      1.10      0.00
  -11   13   10     -3.57      0.00
   -2   13   10     -4.34      0.00
   -1    8   15     -2.93      0.00
   -7    8   15      3.63      0.00
  -12   16    4      3.46      0.00
   -4   16    4      3.23      0.00
   -7   17    1      0.85      0.00
  -10   17    1     -2.23      0.00
   -8   17    2      0.05      0.00
   -3   16    2     -2.21      0.00
   -9   17    2     -3.45      0.00
  -13   16    2     -1.04      0.00
   -8   14   10      0.10      0.00
   -6   14   10     -0.25      0.00
   -9   13   11      2.67      0.00
   -1   12   11      4.70      0.00
   -4   13   11      0.59      0.00
  -11   12   11      1.84      0.00
   -7   10   14      0.13      0.00
   -3   10   14      4.20      0.00
   -2    4   17     -3.67      0.00
    0    6   16      1.54      0.00
   -3   12   12     -1.11      0.00
   -9   12   12     -1.76      0.00
  -10   15    8      0.60      0.00
   -5   15    8      6.45      0.00
  -11   14    9     -2.09      0.00
   -3   14    9      3.28      0.00
   -1    4   17     -0.70      0.00
   -3    4   17     -0.67      0.00
   -7   17    2      1.93      0.00
  -10   17    2     -1.15      0.00
   -3    7   16      0.83      0.00
   -4    7   16     -0.29      0.00
    0   14    6     -1.47      0.00
    0   10   13     -1.84      0.00
  -10   16    6     -0.68      0.00
   -6   16    6      3.02      0.00
  -14   15    4     -1.39      0.00
    0    9   14     -2.70      0.00
   -1   15    4      0.97      0.00
   -6   17    0     -4.20      0.00
  -11   17    0     -2.88      0.00
   -9   14   10      5.72      0.00
   -5   14   10     -0.17      0.00
   -4    9   15      6.32      0.00
   -5    9   15      1.24      0.00
   -9   17    3      1.55      0.00
  -13   16    3      1.10      0.00
   -8   17    3     -1.36      0.00
   -3   16    3      3.85      0.00
   -6   17    1     -0.09      0.00
  -11   17    1     -1.38      0.00
   -5    7   16      2.78      0.00
   -2    7   16     -0.87      0.00
   -3   15    7      0.29      0.00
  -12   15    7      3.63      0.00
    0    4   17      1.63      0.00
    0   11   12      2.89      0.00
  -13   15    6     -1.00      0.00
   -2   15    6      3.66      0.00
    0   15    0      6.35      0.00
   -2   11   13      1.46      0.00
   -9   11   13      0.37      0.00
   -3    9   15     -0.28      0.00
   -6    9   15     -3.35      0.00
   -7   17    3     -5.65      0.00
   -2   10   14     -6.22      0.00
   -8   10   14     -0.33      0.00
  -10   17    3      1.76      0.00
    0   15    1     -1.44      0.00
  -11   17    2      3.39      0.00
   -6   17    2      2.05      0.00
  -12   16    5      0.68      0.00
   -4   16    5     -0.87      0.00
  -10   13   11      2.35      0.00
    0    8   15     -2.57      0.00
   -3   13   11     -6.45      0.00
  -11   16    6     -0.68      0.00
   -5   16    6      2.52      0.00
  -11   15    8      2.76      0.00
   -4   15    8      1.03      0.00
   -8   16    7      1.48      0.00
    0   13    9      4.38      0.00
   -8   15    9      0.91      0.00
   -7   15    9     -1.23      0.00
   -2    5   17      1.04      0.00
   -3    5   17      3.97      0.00
   -6    7   16      1.65      0.00
    0   15    2     -1.92      0.00
   -1    7   16     -0.11      0.00
  -10   12   12      2.62      0.00
   -2   12   12      1.10      0.00
   -2   16    0     -0.20      0.00
  -14   16    0      2.24      0.00
   -4   14   10      0.17      0.00
  -10   14   10     -0.78      0.00
   -9   16    7      3.58      0.00
   -7   16    7      5.44      0.00
  -13   16    4      1.26      0.00
   -9   17    4      6.89      0.00
   -3   16    4      0.12      0.00
   -8   17    4      1.23      0.00
   -2   16    1     -3.05      0.00
  -14   16    1      1.92      0.00
   -5   17    0      5.89      0.00
  -12   17    0     -5.52      0.00
  -14   15    5      2.72      0.00
   -1   15    5      0.61      0.00
  -13   14    8      1.65      0.00
  -12   13   10      1.39      0.00
   -1   13   10     -1.94      0.00
   -1   14    8      3.13      0.00
   -2    9   15      2.10      0.00
   -7    9   15      0.03      0.00
   -9   15    9      2.87      0.00
   -6   15    9      0.44      0.00
   -6   17    3      3.19      0.00
  -11   17    3      5.08      0.00
   -1    5   17      0.07      0.00
   -4    5   17      0.27      0.00
   -5   17    1     -0.76      0.00
  -12   17    1     -4.75      0.00
   -6   12   13     -4.65      0.00
  -10   17    4      1.97      0.00
  -12   14    9      0.36      0.00
   -7   17    4     -4.53      0.00
   -2   14    9      2.84      0.00
   -2   16    2     -0.55      0.00
  -14   16    2      0.85      0.00
   -7   12   13     -1.30      0.00
   -7   13   12      2.36      0.00
   -6   13   12     -5.60      0.00
   -5   12   13      2.71      0.00
    0   12   11     -1.79      0.00
  -10   16    7      0.42      0.00
   -6   16    7     -7.22      0.00
    0   14    7      3.24      0.00
    0   15    3     -2.13      0.00
  -12   17    2      1.17      0.00
   -5   17    2      1.94      0.00
   -9   10   14     -2.51      0.00
   -6   11   14     -0.07      0.00
   -5   11   14     -1.99      0.00
   -1   10   14     -1.40      0.00
   -4    8   16     -0.29      0.00
  -10   11   13      2.98      0.00
   -1   11   13     -2.30      0.00
   -5   13   12     -2.35      0.00
   -8   13   12      0.16      0.00
  -10   15    9      0.69      0.00
   -5   15    9      1.75      0.00
    0    5   17      0.64      0.00
   -3    8   16      0.01      0.00
   -5    8   16      0.24      0.00
    0    7   16      2.19      0.00
    0    0   18      9.01      0.00
   -8   12   13      1.14      0.00
   -4   12   13      0.64      0.00
   -4   16    6      1.61      0.00
  -12   16    6     -1.27      0.00
  -11   13   11     -0.70      0.00
  -13   15    7     -1.55      0.00
   -7   14   11     -0.96      0.00
   -2   13   11      4.11      0.00
   -2   15    7      5.73      0.00
   -4   11   14     -2.32      0.00
   -2   16    3     -2.70      0.00
   -7   11   14     -1.55      0.00
  -14   16    3      4.36      0.00
   -6   17    4      0.95      0.00
  -11   17    4     -1.51      0.00
    0    1   18     -4.49      0.00
   -9   17    5      1.26      0.00
   -8   17    5      0.87      0.00
  -13   16    5      1.84      0.00
   -3   16    5     -2.02      0.00
  -11   14   10      3.32      0.00
  -12   15    8     -1.74      0.00
   -3   15    8      0.30      0.00
   -3   14   10      3.82      0.00
   -6   14   11     -0.35      0.00
   -8   14   11     -3.92      0.00
   -8    9   15     -3.89      0.00
  -12   17    3     -3.15      0.00
   -1    9   15     -3.38      0.00
   -5   17    3      3.22      0.00
   -3    6   17      1.78      0.00
  -11   16    7      1.92      0.00
   -5   16    7     -0.90      0.00
    0   15    4      0.30      0.00
   -2    6   17     -1.44      0.00
   -4    6   17     -4.34      0.00
   -2    8   16      0.84      0.00
   -6    8   16      0.58      0.00
   -1    2   18      0.15      0.00
  -11   12   12     -0.32      0.00
   -1   12   12      0.38      0.00
   -1   15    6      1.49      0.00
  -14   15    6     -1.80      0.00
   -9   13   12      1.26      0.00
   -4   13   12     -4.14      0.00
   -4   17    0      0.29      0.00
  -13   17    0      2.17      0.00
   -7   17    5      3.76      0.00
  -10   17    5     -0.27      0.00
   -5   10   15     -2.01      0.00
   -4   17    1     -4.36      0.00
  -13   17    1      0.34      0.00
    0    2   18      4.54      0.00
   -8   16    8      1.66      0.00
   -9   14   11     -0.67      0.00
   -5   14   11     -3.79      0.00
   -6   10   15      4.47      0.00
   -4   10   15      3.96      0.00
   -3   11   14      2.83      0.00
   -8   11   14      5.00      0.00
   -9   12   13      3.23      0.00
   -3   12   13      1.68      0.00
   -9   16    8     -3.88      0.00
   -7   16    8     -1.12      0.00
  -11   15    9     -0.64      0.00
   -4   15    9      1.97      0.00
  -14   16    4     -2.07      0.00
   -2   16    4      1.24      0.00
   -1    6   17     -0.25      0.00
   -5    6   17      2.04      0.00
   -4   17    2     -2.22      0.00
  -13   17    2      0.70      0.00
   -5   17    4     -5.04      0.00
  -12   17    4      3.13      0.00
   -2    3   18      1.10      0.00
   -1    3   18     -4.20      0.00
  -11   17    5     -3.62      0.00
   -6   17    5     -0.57      0.00
  -15   16    0     -1.11      0.00
   -1   16    0     -0.16      0.00
   -7   15   10     -2.15      0.00
    0   13   10      0.26      0.00
   -8   15   10      3.81      0.00
   -3   10   15     -2.03      0.00
   -7   10   15      2.28      0.00
    0   10   14     -7.18      0.00
  -13   14    9     -1.50      0.00
   -1   14    9      3.31      0.00
  -15   16    1      0.72      0.00
   -1   16    1      3.73      0.00
   -1    8   16     -1.56      0.00
   -7    8   16      0.37      0.00
   -6   16    8      0.35      0.00
    0   14    8      1.59      0.00
  -10   16    8     -0.24      0.00
    0    3   18     -3.00      0.00
  -10   13   12      0.68      0.00
    0   11   13      0.74      0.00
   -8   17    6     -0.77      0.00
  -13   16    6      1.33      0.00
   -9   17    6     -3.22      0.00
   -3   13   12      0.88      0.00
   -3   16    6     -3.27      0.00
    0   15    5      2.10      0.00
   -9   18    0     -3.76      0.00
   -9   15   10      0.26      0.00
   -6   15   10      2.52      0.00
   -4   14   11      0.50      0.00
   -4   16    7     -3.85      0.00
  -10   14   11      2.20      0.00
  -12   16    7      0.42      0.00
    0    9   15     -3.44      0.00
   -4   17    3     -0.97      0.00
  -13   17    3     -0.42      0.00
   -9   18    1     -1.58      0.00
   -1   16    2     -0.79      0.00
  -15   16    2      0.72      0.00
  -10   18    0      6.37      0.00
   -8   18    0     -1.13      0.00
   -2   14   10     -1.76      0.00
  -12   14   10     -0.06      0.00
  -12   13   11      1.11      0.00
   -1   13   11      1.06      0.00
   -2   11   14     -1.51      0.00
   -9   11   14      2.27      0.00
    0    6   17      2.16      0.00
  -10   18    1      2.96      0.00
   -8   18    1      1.92      0.00
   -7   17    6      0.98      0.00
  -10   17    6     -0.72      0.00
   -2   15    8     -3.35      0.00
  -13   15    8     -0.07      0.00
   -4    7   17      1.65      0.00
   -3    7   17      0.86      0.00
   -2    4   18     -1.02      0.00
   -5    9   16      0.98      0.00
   -9   18    2     -0.30      0.00
   -4    9   16     -1.13      0.00
  -10   12   13      4.61      0.00
   -2   12   13      0.99      0.00
  -14   16    5      0.45      0.00
   -2   16    5      0.71      0.00
   -1   15    7     -3.00      0.00
  -14   15    7      0.60      0.00
   -2   10   15      0.91      0.00
   -8   10   15      2.57      0.00
  -10   18    2     -2.05      0.00
   -8   18    2      2.42      0.00
   -3    4   18      3.02      0.00
   -1    4   18      8.96      0.00
   -7   18    0      2.25      0.00
  -12   17    5      1.97      0.00
  -14   17    0     -3.20      0.00
   -5   17    5      0.55      0.00
  -11   18    0     -2.83      0.00
   -3   17    0      2.14      0.00
  -10   15   10     -1.54      0.00
   -5   15   10      0.08      0.00
  -11   16    8      0.28      0.00
   -5   16    8     -0.94      0.00
   -1   16    3     -1.08      0.00
   -3   15    9      1.32      0.00
  -12   15    9     -2.31      0.00
  -15   16    3     -2.95      0.00
   -2    7   17      4.23      0.00
   -5    7   17     -0.81      0.00
  -11   18    1      1.01      0.00
  -14   17    1     -0.44      0.00
   -7   18    1     -1.39      0.00
   -3   17    1     -0.43      0.00
   -6    9   16     -1.14      0.00
   -3    9   16     -1.36      0.00
    0   12   12      1.07      0.00
  -13   17    4     -0.42      0.00
   -4   17    4      6.02      0.00
    0    8   16      0.42      0.00
   -7   13   13      0.92      0.00
   -6   13   13     -1.44      0.00
  -11   17    6     -0.92      0.00
   -6   17    6      3.39      0.00
   -9   18    3     -3.71      0.00
   -6   12   14      1.23      0.00
    0    4   18     -0.18      0.00
   -3   17    2      0.09      0.00
   -7   18    2     -0.11      0.00
  -14   17    2     -1.48      0.00
  -11   18    2     -1.63      0.00
  -11   14   11      1.21      0.00
   -3   14   11     -2.81      0.00
   -5   12   14      1.97      0.00
   -8   18    3      0.32      0.00
   -8   16    9      0.96      0.00
   -7   12   14     -3.46      0.00
  -10   18    3     -0.04      0.00
  -11   13   12      2.01      0.00
   -5   13   13      1.08      0.00
   -7   14   12     -1.12      0.00
    0   15    6     -2.07      0.00
   -8   13   13     -1.59      0.00
   -2   13   12      2.66      0.00
   -7   16    9      2.35      0.00
   -9   16    9      0.22      0.00
   -1    7   17     -1.97      0.00
   -6    7   17     -3.62      0.00
   -7    9   16      0.89      0.00
   -2    9   16     -0.63      0.00
   -6   14   12     -2.35      0.00
   -8   14   12      2.33      0.00
   -6   18    0     -0.52      0.00
  -12   18    0      2.98      0.00
   -3   16    7      1.83      0.00
   -8   17    7     -3.45      0.00
   -9   17    7     -1.92      0.00
  -13   16    7      3.37      0.00
   -1   11   14     -1.72      0.00
  -10   11   14     -0.29      0.00
   -1   16    4      2.31      0.00
  -15   16    4      0.59      0.00
   -6   18    1      0.50      0.00
  -12   18    1     -4.97      0.00
   -3    5   18      0.12      0.00
   -2    5   18     -0.20      0.00
  -11   15   10     -1.65      0.00
   -4   15   10      2.52      0.00
   -6   11   15      2.07      0.00
   -9   10   15      0.88      0.00
   -1   10   15      0.27      0.00
   -5   11   15      1.10      0.00
  -14   17    3      2.02      0.00
   -7   18    3     -0.44      0.00
   -8   12   14      3.12      0.00
  -11   18    3      3.43      0.00
   -3   17    3      4.42      0.00
   -4   12   14     -1.40      0.00
  -14   16    6      0.72      0.00
   -2   16    6      0.28      0.00
   -4   16    8     -3.29      0.00
  -12   16    8      1.03      0.00
  -10   17    7      2.18      0.00
   -7   17    7     -2.32      0.00
   -6   16    9      2.10      0.00
  -10   16    9      0.59      0.00
    0   14    9      1.72      0.00
   -9   18    4      1.53      0.00
   -9   14   12     -1.10      0.00
  -12   18    2      0.95      0.00
   -6   18    2     -0.84      0.00
   -4    5   18      7.67      0.00
   -1    5   18      0.39      0.00
   -5   14   12     -3.95      0.00
   -4   13   13     -0.50      0.00
   -4   17    5      1.87      0.00
  -12   17    6      1.56      0.00
  -11   12   13      1.12      0.00
   -5   17    6      0.38      0.00
   -9   13   13      0.40      0.00
  -13   17    5      2.31      0.00
   -1   12   13     -0.28      0.00
  -13   14   10      2.60      0.00
   -1   14   10      4.11      0.00
   -4   11   15      1.82      0.00
   -7   11   15      1.62      0.00
   -8   18    4     -2.48      0.00
  -10   18    4     -3.07      0.00
    0   16    0      3.33      0.00
    0   13   11      1.49      0.00
   -8   15   11     -1.23      0.00
   -7   15   11      3.79      0.00
   -4    8   17     -2.15      0.00
    0   16    1      0.24      0.00
  -14   15    8      1.87      0.00
   -1   15    8      0.21      0.00
   -2   15    9     -0.86      0.00
  -13   15    9     -2.66      0.00
   -3    8   17     -2.01      0.00
    0    7   17      2.28      0.00
   -5    8   17      0.81      0.00
   -8    9   16     -0.30      0.00
   -1    9   16     -1.03      0.00
   -6   15   11     -1.37      0.00
   -9   15   11      1.87      0.00
  -11   17    7     -0.03      0.00
   -6   17    7     -2.20      0.00
   -6   18    3      2.45      0.00
  -12   18    3     -0.18      0.00
   -7   18    4     -0.47      0.00
  -11   18    4      3.83      0.00
   -3   12   14      0.03      0.00
   -3   17    4      0.23      0.00
  -14   17    4      6.16      0.00
   -9   12   14     -3.01      0.00
    0   16    2     -0.08      0.00
    0    5   18      0.61      0.00
  -15   17    0      3.40      0.00
   -1   16    5      2.22      0.00
  -15   16    5      2.36      0.00
   -2   17    0      0.56      0.00
  -13   18    0     -2.98      0.00
   -5   18    0      3.81      0.00
  -12   14   11      4.01      0.00
   -8   11   15     -1.55      0.00
   -2   14   11      1.14      0.00
   -3   11   15      3.56      0.00
   -5   16    9      1.16      0.00
  -11   16    9     -0.39      0.00
   -2   17    1     -0.71      0.00
  -15   17    1     -0.71      0.00
   -5   18    1      4.06      0.00
  -13   18    1     -1.48      0.00
   -5   10   16      0.44      0.00
   -4   14   12     -0.18      0.00
  -10   14   12     -0.07      0.00
    0   15    7      0.38      0.00
   -2    8   17      0.33      0.00
   -6    8   17     -0.87      0.00
   -4   10   16      1.08      0.00
   -6   10   16      0.52      0.00
   -1   13   12     -0.01      0.00
  -12   13   12     -0.07      0.00
   -3    6   18      5.94      0.00
   -3   13   13     -1.43      0.00
   -9   18    5      1.74      0.00
  -10   13   13      1.29      0.00
  -12   15   10      0.58      0.00
   -3   15   10      0.91      0.00
    0    1   19      3.61      0.00
   -2    6   18      0.37      0.00
  -15   17    2      0.15      0.00
   -2   17    2      1.56      0.00
   -5   18    2      0.91      0.00
   -4    6   18     -2.01      0.00
  -13   18    2      2.14      0.00
  -10   18    5      0.26      0.00
   -8   18    5     -1.54      0.00
  -10   15   11     -5.84      0.00
   -5   15   11     -4.99      0.00
    0   10   15      0.65      0.00
    0   16    3     -0.55      0.00
    0   11   14     -0.36      0.00
   -4   17    6     -0.86      0.00
  -13   17    6     -0.39      0.00
  -13   16    8     -0.42      0.00
   -9   17    8     -0.09      0.00
   -3   16    8      0.03      0.00
   -8   17    8     -1.47      0.00
   -2   16    7      3.19      0.00
  -14   16    7     -1.03      0.00
  -12   18    4     -2.64      0.00
   -6   18    4      3.65      0.00
   -1    2   19      2.28      0.00
   -7   10   16     -2.56      0.00
   -3   10   16     -2.07      0.00
   -8   16   10      0.37      0.00
  -12   17    7      3.60      0.00
   -5   17    7     -1.24      0.00
    0    2   19     -0.26      0.00
   -5    6   18     -0.43      0.00
   -1    6   18      7.72      0.00
  -14   17    5      2.59      0.00
  -11   18    5     -0.30      0.00
   -7   18    5     -0.67      0.00
   -3   17    5     -2.21      0.00
   -9   16   10     -0.13      0.00
  -10   17    8     -1.43      0.00
   -7   16   10     -3.58      0.00
   -7   17    8     -0.75      0.00
   -9   11   15      0.67      0.00
   -2   11   15     -0.93      0.00
   -2   12   14     -2.87      0.00
   -5   18    3      2.42      0.00
  -15   17    3      1.02      0.00
  -10   12   14      0.02      0.00
   -2   17    3     -3.04      0.00
  -13   18    3      2.26      0.00
   -1    8   17      0.98      0.00
   -7    8   17      2.60      0.00
    0    9   16      0.56      0.00
    0   12   13      0.23      0.00
  -12   16    9     -1.72      0.00
   -4   16    9     -0.46      0.00
   -1   16    6     -0.46      0.00
   -3   14   12     -2.46      0.00
  -11   14   12     -3.71      0.00
  -15   16    6      1.15      0.00
   -1    3   19     -2.27      0.00
   -2    3   19      4.25      0.00
    0   16    4     -0.36      0.00
  -14   18    0     -0.60      0.00
   -4   18    0      4.22      0.00
   -6   16   10     -0.92      0.00
    0   14   10      0.02      0.00
  -10   16   10      2.38      0.00
  -11   15   11      0.02      0.00
   -4   15   11     -5.24      0.00
   -6   13   14     -4.56      0.00
   -7   13   14     -2.88      0.00
   -8   10   16     -3.03      0.00
   -2   10   16     -1.21      0.00
   -4   18    1     -1.92      0.00
  -14   18    1     -3.00      0.00
   -7   14   13     -0.86      0.00
  -11   13   13     -0.16      0.00
   -9   18    6      2.14      0.00
   -2   13   13      0.70      0.00
  -11   17    8     -3.09      0.00
   -6   17    8     -4.32      0.00
  -14   15    9     -1.29      0.00
   -1   15    9      1.05      0.00
    0    3   19      4.61      0.00
   -5    9   17      0.17      0.00
   -4    9   17      0.17      0.00
    0    6   18      1.13      0.00
   -8   14   13     -2.61      0.00
   -6   14   13     -0.79      0.00
  -10   18    6     -2.01      0.00
   -8   18    6      0.23      0.00
  -12   18    5     -0.05      0.00
   -6   18    5      1.47      0.00
   -1   14   11      0.71      0.00
  -13   14   11     -1.61      0.00
   -6   12   15      2.74      0.00
   -8   13   14     -2.44      0.00
   -5   13   14      3.23      0.00
  -13   18    4      2.58      0.00
   -2   17    4     -0.52      0.00
   -5   18    4      0.41      0.00
  -15   17    4     -1.83      0.00
   -3    7   18      4.56      0.00
   -4   18    2      1.70      0.00
   -4    7   18     -1.11      0.00
  -14   18    2      1.22      0.00
  -10   19    0     -2.38      0.00
   -9   19    0      0.88      0.00
   -2   15   10      0.15      0.00
  -13   15   10      5.20      0.00
    0   15    8      3.17      0.00
   -7   12   15     -2.05      0.00
   -5   12   15     -3.83      0.00
   -3    9   17      0.81      0.00
   -6    9   17     -1.24      0.00
  -10   19    1      4.42      0.00
   -9   19    1     -2.40      0.00
  -13   17    7     -0.96      0.00
   -4   17    7      3.48      0.00
   -2    4   19      5.51      0.00
    0    8   17      1.41      0.00
   -8   15   12     -2.04      0.00
   -5    7   18      4.19      0.00
   -7   15   12      0.27      0.00
  -11   18    6     -0.32      0.00
  -14   17    6      2.68      0.00
   -1   17    0     -0.66      0.00
   -5   14   13     -0.61      0.00
  -16   17    0     -3.06      0.00
   -7   18    6      0.61      0.00
   -2    7   18     -0.90      0.00
    0   13   12      0.04      0.00
   -3   17    6      0.00      0.00
   -8   19    0     -0.34      0.00
   -9   14   13     -0.61      0.00
  -11   19    0     -2.59      0.00
  -11   16   10     -0.38      0.00
   -5   16   10      3.57      0.00
  -10   11   15     -3.67      0.00
   -1   11   15      3.73      0.00
   -3    4   19      2.77      0.00
   -1    4   19      1.62      0.00
   -1   17    1      2.36      0.00
   -8   19    1      2.25      0.00
  -16   17    1      0.02      0.00
  -11   19    1      1.44      0.00
   -9   19    2      1.37      0.00
  -10   19    2      0.50      0.00
    0   16    5      0.81      0.00
  -14   16    8     -0.99      0.00
   -2   16    8     -0.30      0.00
   -4   12   15      0.49      0.00
   -8   12   15      1.04      0.00
   -4   18    3     -1.08      0.00
  -11   12   14     -2.66      0.00
   -9   13   14     -0.46      0.00
   -4   13   14     -4.49      0.00
  -14   18    3     -0.21      0.00
   -1   12   14     -4.17      0.00
   -6   15   12     -2.18      0.00
   -9   15   12      0.41      0.00
  -12   17    8     -5.31      0.00
   -5   17    8      0.74      0.00
   -9   17    9      0.55      0.00
   -8   17    9      3.24      0.00
  -13   16    9     -3.55      0.00
   -3   16    9     -1.12      0.00
   -7    9   17      1.83      0.00
   -2    9   17      4.39      0.00
   -1   17    2     -1.99      0.00
   -8   19    2     -0.12      0.00
   -1   10   16     -0.90      0.00
  -16   17    2      0.71      0.00
   -5   11   16     -0.24      0.00
  -11   19    2     -1.71      0.00
   -6   11   16     -0.14      0.00
   -9   10   16     -1.05      0.00
  -12   14   12     -0.70      0.00
   -2   14   12     -0.51      0.00
  -15   16    7      2.41      0.00
   -3   15   11     -1.45      0.00
  -12   15   11     -2.43      0.00
   -1   16    7     -1.77      0.00
    0    4   19     -1.88      0.00
   -6    7   18      0.06      0.00
   -1    7   18     -1.07      0.00
   -7   19    0      8.02      0.00
  -12   19    0      4.22      0.00
  -13   18    5     -0.49      0.00
  -15   17    5      0.79      0.00
   -5   18    5      1.86      0.00
   -2   17    5      1.25      0.00
  -10   19    3      2.95      0.00
   -9   19    3     -0.31      0.00
   -7   17    9      3.24      0.00
  -10   17    9     -0.11      0.00
   -7   19    1      0.95      0.00
  -12   19    1      0.10      0.00
   -4   11   16     -2.04      0.00
   -7   11   16     -2.31      0.00
   -6   18    6      0.84      0.00
  -12   18    6     -1.84      0.00
  -10   14   13      0.09      0.00
   -4   14   13      2.12      0.00
   -9   18    7      1.67      0.00
   -5   15   12     -1.09      0.00
  -10   15   12     -0.16      0.00
  -12   13   13     -0.28      0.00
   -3   18    0     -2.22      0.00
   -1   13   13      0.00      0.00
  -15   18    0     -0.02      0.00
  -10   18    7     -0.72      0.00
   -3   12   15     -0.02      0.00
   -9   12   15     -1.53      0.00
   -8   18    7     -1.06      0.00
   -8   16   11      2.91      0.00
   -1   17    3      0.89      0.00
   -8   19    3      3.91      0.00
  -16   17    3     -0.43      0.00
  -11   19    3     -2.64      0.00
  -14   18    4      2.98      0.00
   -4   18    4     -1.71      0.00
   -3    5   19     -1.71      0.00
   -2    5   19      2.61      0.00
  -15   18    1      0.56      0.00
   -3   18    1     -1.00      0.00
  -12   19    2     -2.78      0.00
   -7   19    2     -0.64      0.00
   -4   16   10      0.95      0.00
  -12   16   10     -1.80      0.00
   -9   16   11     -1.58      0.00
   -7   16   11     -2.72      0.00
  -10   13   14      2.69      0.00
   -3   13   14      0.80      0.00
   -6   17    9      2.72      0.00
  -11   17    9     -0.20      0.00
   -4    5   19     -0.71      0.00
   -1    5   19      1.70      0.00
   -8    9   17     -0.87      0.00
   -1    9   17      1.88      0.00
   -3   18    2      3.64      0.00
   -3   11   16     -2.79      0.00
  -15   18    2     -0.71      0.00
   -8   11   16     -3.73      0.00
    0   16    6     -0.54      0.00
   -4    8   18      0.64      0.00
   -3   17    7      0.21      0.00
  -11   18    7     -1.61      0.00
   -7   18    7      1.19      0.00
  -14   17    7      0.45      0.00
   -9   19    4     -3.35      0.00
  -10   19    4     -1.90      0.00
   -5    8   18     -0.14      0.00
    0    7   18     -0.50      0.00
   -3    8   18      2.37      0.00
   -6   19    0     -0.13      0.00
  -13   19    0      2.91      0.00
  -13   17    8      0.10      0.00
   -1   15   10      0.31      0.00
   -4   17    8     -2.36      0.00
  -14   15   10      2.73      0.00
   -6   16   11      4.02      0.00
    0   14   11     -1.58      0.00
  -10   16   11     -2.14      0.00
    0   15    9     -0.93      0.00
    0   11   15     -0.07      0.00
  -12   19    3     -0.29      0.00
   -7   19    3      0.32      0.00
   -5   10   17     -2.40      0.00
   -6   19    1      0.25      0.00
  -13   19    1     -3.60      0.00
   -8   19    4      2.01      0.00
  -11   19    4      0.46      0.00
   -1   17    4      5.29      0.00
  -16   17    4      1.07      0.00
   -6   10   17      1.49      0.00
   -4   10   17      2.17      0.00
    0   10   16     -0.05      0.00
   -3   14   13     -0.54      0.00
  -13   18    6      0.70      0.00
  -11   15   12      1.18      0.00
  -11   14   13      1.15      0.00
  -15   17    6      1.23      0.00
   -4   15   12     -1.59      0.00
   -2   17    6      0.37      0.00
   -5   18    6     -1.54      0.00
    0   12   14     -0.80      0.00
   -3   18    3      2.29      0.00
  -15   18    3      2.58      0.00
    0    5   19      1.65      0.00
   -6    8   18     -1.46      0.00
   -2    8   18      1.92      0.00
  -13   19    2     -1.38      0.00
   -6   19    2      0.22      0.00
  -14   18    5      1.93      0.00
   -4   18    5      1.36      0.00
  -13   15   11      0.17      0.00
   -2   15   11     -0.79      0.00
  -14   16    9     -1.05      0.00
  -10   12   15     -3.22      0.00
   -2   16    9      0.71      0.00
   -2   12   15      0.98      0.00
  -13   14   12     -1.28      0.00
   -1   14   12     -4.13      0.00
  -15   16    8     -1.57      0.00
   -1   16    8      2.22      0.00
   -6   18    7     -1.52      0.00
  -12   18    7      2.35      0.00
  -12   17    9     -0.78      0.00
   -5   17    9      0.71      0.00
   -3   10   17     -1.10      0.00
   -7   10   17      2.18      0.00
   -3    6   19     -2.04      0.00
   -2   11   16     -2.14      0.00
   -9   11   16     -2.31      0.00
  -11   16   11     -3.64      0.00
   -5   16   11     -1.44      0.00
  -11   13   14      0.68      0.00
   -7   14   14     -0.60      0.00
   -2   13   14     -0.93      0.00
   -7   19    4     -2.57      0.00
   -4    6   19      2.55      0.00
   -2    6   19      0.72      0.00
  -12   19    4     -0.17      0.00
    0    0   20     -2.24      0.00
    0   17    0      1.43      0.00
   -9   19    5     -1.07      0.00
  -10   19    5     -1.72      0.00
   -9   17   10     -3.05      0.00
  -13   16   10      0.33      0.00
   -3   16   10      4.39      0.00
   -8   17   10     -0.94      0.00
   -9   18    8     -2.46      0.00
   -8   14   14     -3.74      0.00
   -6   14   14      1.12      0.00
   -6   13   15     -2.14      0.00
   -6   19    3     -2.78      0.00
  -13   19    3      0.60      0.00
   -7   13   15     -4.71      0.00
    0    9   17     -1.50      0.00
    0   17    1      1.01      0.00
    0    1   20     -0.38      0.00
  -10   18    8      2.65      0.00
   -8   18    8     -1.02      0.00
  -15   18    4      4.02      0.00
   -3   18    4     -0.93      0.00
   -1    8   18     -0.80      0.00
   -7    8   18     -3.21      0.00
   -1   17    5     -0.44      0.00
  -14   19    0     -0.71      0.00
  -11   19    5      3.06      0.00
  -16   17    5     -1.26      0.00
   -7   15   13     -0.09      0.00
    0   13   13      0.99      0.00
   -8   15   13     -1.61      0.00
   -5   19    0      2.19      0.00
   -8   19    5     -2.67      0.00
  -10   17   10     -1.84      0.00
   -7   17   10      2.82      0.00
   -8   13   15     -2.50      0.00
   -5   13   15     -0.03      0.00
    0   16    7      0.53      0.00
   -5   19    1      1.16      0.00
   -1    6   19      1.63      0.00
  -14   19    1     -4.61      0.00
   -5    6   19     -4.02      0.00
   -1    2   20      0.96      0.00
    0   17    2      0.03      0.00
   -2   18    0      1.92      0.00
  -16   18    0      0.21      0.00
   -9   14   14     -6.49      0.00
   -5   14   14      0.99      0.00
   -2   18    1     -0.58      0.00
   -2   10   17      2.13      0.00
  -16   18    1     -2.21      0.00
   -8   10   17      1.40      0.00
    0    2   20      0.62      0.00
   -6   12   16     -0.07      0.00
  -12   15   12      0.16      0.00
   -3   15   12     -1.15      0.00
   -9   15   13      1.30      0.00
   -6   15   13      0.38      0.00
  -14   17    8     -3.30      0.00
   -3   17    8     -1.10      0.00
   -7   18    8     -1.19      0.00
  -11   18    8     -2.91      0.00
   -7   12   16     -2.80      0.00
   -5   12   16     -1.20      0.00
   -5   19    2      0.66      0.00
  -14   19    2      0.72      0.00
  -14   18    6      1.95      0.00
   -4   18    6     -1.57      0.00
  -12   14   13      2.03      0.00
   -2   14   13     -0.26      0.00
   -5   18    7     -2.91      0.00
   -2   17    7      0.72      0.00
  -15   17    7      1.64      0.00
  -13   18    7     -1.25      0.00
  -13   19    4      2.79      0.00
   -6   19    4      1.05      0.00
  -16   18    2      0.54      0.00
   -4    9   18     -1.20      0.00
   -5    9   18      4.39      0.00
   -2   18    2      1.21      0.00
  -12   19    5      2.14      0.00
   -7   19    5      0.28      0.00
  -11   17   10      2.12      0.00
   -6   17   10      1.32      0.00
   -4   13   15     -0.57      0.00
  -12   16   11     -1.03      0.00
   -9   13   15     -1.52      0.00
  -11   12   15     -3.66      0.00
   -1   12   15      2.64      0.00
   -4   16   11      2.98      0.00
   -4   17    9      0.43      0.00
    0   17    3      3.01      0.00
  -13   17    9     -0.65      0.00
   -2    3   20      2.69      0.00
   -1   11   16      0.94      0.00
   -1    3   20      2.36      0.00
  -10   11   16     -2.28      0.00
   -8   16   12      1.44      0.00
    0    6   19     -0.09      0.00
   -8   12   16     -3.55      0.00
   -4   12   16     -0.46      0.00
   -3    9   18      0.96      0.00
   -6    9   18     -1.27      0.00
   -9   19    6      0.97      0.00
   -7   16   12      1.44      0.00
   -9   16   12      1.66      0.00
  -10   19    6      3.97      0.00
  -10   15   13     -1.47      0.00
   -5   15   13      1.57      0.00
   -3   18    5     -3.36      0.00
  -15   18    5      0.13      0.00
    0   15   10      0.74      0.00
   -4   14   14     -0.08      0.00
  -14   19    3      2.42      0.00
  -10   14   14      0.86      0.00
   -5   19    3      0.30      0.00
   -4    7   19     -5.33      0.00
   -3    7   19     -1.73      0.00
    0    3   20      1.86      0.00
    0    8   18      2.22      0.00
  -12   18    8      0.34      0.00
   -6   18    8     -1.70      0.00
   -1   15   11      2.61      0.00
  -14   15   11     -1.01      0.00
   -1   13   14      1.21      0.00
  -16   18    3     -0.32      0.00
   -2   18    3     -0.05      0.00
  -12   13   14     -3.20      0.00
   -8   19    6     -0.93      0.00
   -1   17    6     -0.03      0.00
  -16   17    6      2.82      0.00
  -11   19    6      3.46      0.00
  -15   16    9      0.69      0.00
   -1   16    9      0.07      0.00
   -5   11   17     -2.55      0.00
   -5    7   19     -2.27      0.00
   -9   10   17      2.41      0.00
   -2    7   19     -2.74      0.00
   -6   11   17     -1.16      0.00
   -1   10   17     -0.74      0.00
   -6   16   12      1.21      0.00
  -10   20    0      0.52      0.00
    0   14   12     -0.24      0.00
  -10   16   12      1.13      0.00
  -14   16   10      1.18      0.00
   -2   16   10      2.58      0.00
    0   17    4      0.14      0.00
   -2    4   20      1.53      0.00
  -10   20    1      0.81      0.00
   -2    9   18     -1.46      0.00
   -7    9   18      0.96      0.00
  -13   19    5      0.92      0.00
   -9   20    0      3.05      0.00
  -15   19    0     -0.68      0.00
   -6   19    5      2.23      0.00
   -4   19    0      0.73      0.00
  -11   20    0     -0.10      0.00
  -12   17   10      1.03      0.00
   -5   17   10      2.39      0.00
   -3   13   15      3.67      0.00
  -10   13   15     -2.87      0.00
   -9   18    9      1.17      0.00
   -4   11   17      2.12      0.00
   -7   11   17     -0.48      0.00
   -3    4   20      0.78      0.00
   -3   12   16     -1.03      0.00
   -4   19    1     -2.77      0.00
  -15   19    1     -3.61      0.00
   -9   12   16     -3.76      0.00
   -9   20    1      0.55      0.00
  -11   20    1     -0.43      0.00
   -1    4   20      0.93      0.00
    0   16    8      1.96      0.00
   -5   19    4     -1.27      0.00
  -10   18    9      0.51      0.00
  -14   19    4      4.82      0.00
   -8   18    9      1.27      0.00
  -10   20    2     -0.68      0.00
  -13   15   12     -1.09      0.00
   -2   15   12     -1.28      0.00
  -12   19    6     -0.17      0.00
   -4   15   13      2.38      0.00
  -11   15   13     -0.66      0.00
   -7   19    6     -3.26      0.00
   -4   18    7      0.37      0.00
  -14   18    7      0.22      0.00
   -2   18    4     -1.03      0.00
  -16   18    4     -0.27      0.00
   -1    7   19      4.89      0.00
   -6    7   19     -0.38      0.00
  -11   20    2     -1.75      0.00
   -4   19    2      1.63      0.00
   -9   20    2      0.11      0.00
  -15   19    2      1.32      0.00
  -12   20    0      2.10      0.00
   -8   20    0     -2.74      0.00
  -13   16   11     -1.89      0.00
   -8   17   11      1.84      0.00
   -3   16   11      1.03      0.00
   -9   17   11      2.54      0.00
  -11   14   14     -0.37      0.00
   -3   14   14     -2.35      0.00
  -12   20    1      1.08      0.00
   -8   20    1     -0.22      0.00
    0    4   20      0.25      0.00
  -11   16   12      0.81      0.00
   -5   16   12     -0.01      0.00
   -3   18    6     -0.24      0.00
  -13   14   13      0.33      0.00
   -1   14   13     -1.49      0.00
  -15   18    6      2.72      0.00
   -5   18    8     -0.25      0.00
  -13   18    8     -2.08      0.00
  -15   17    8      1.23      0.00
   -2   17    8     -1.48      0.00
  -11   18    9     -0.98      0.00
   -7   18    9      1.46      0.00
  -14   17    9     -2.07      0.00
   -3   17    9     -0.89      0.00
   -8   11   17     -1.96      0.00
   -3   11   17      2.88      0.00
    0   11   16     -0.22      0.00
   -7   17   11      3.88      0.00
  -10   19    7     -1.38      0.00
   -9   19    7      3.89      0.00
  -10   17   11     -1.51      0.00
    0   12   15      4.06      0.00
  -10   20    3      2.22      0.00
  -17   18    0     -2.91      0.00
   -8   20    2     -0.11      0.00
  -12   20    2     -1.82      0.00
   -1    9   18     -1.39      0.00
   -1   18    0     -1.92      0.00
   -8    9   18     -2.03      0.00
    0   17    5     -0.19      0.00
  -15   19    3      0.76      0.00
  -11   20    3      1.50      0.00
   -9   20    3     -0.96      0.00
   -4   19    3      0.50      0.00
   -1   18    1     -1.24      0.00
  -17   18    1     -2.00      0.00
   -2    5   20     -0.18      0.00
   -3    5   20      0.94      0.00
  -16   17    7      1.81      0.00
  -11   19    7     -0.21      0.00
   -8   19    7     -0.79      0.00
   -1   17    7     -2.32      0.00
   -4    8   19     -1.53      0.00
    0   10   17     -2.62      0.00
  -10   12   16     -1.48      0.00
   -2   12   16      1.14      0.00
  -13   19    6     -1.96      0.00
   -6   19    6     -0.20      0.00
   -7   20    0     -0.61      0.00
   -5   10   18     -1.04      0.00
  -13   20    0     -0.83      0.00
   -5   19    5      0.72      0.00
  -14   19    5      0.51      0.00
  -13   17   10      2.51      0.00
   -4   17   10     -0.16      0.00
  -11   13   15     -1.29      0.00
   -2   13   15      0.41      0.00
   -7   14   15     -2.90      0.00
   -3    8   19     -0.23      0.00
    0    7   19      0.79      0.00
   -5    8   19     -2.50      0.00
  -13   20    1      0.59      0.00
   -4    5   20     -1.35      0.00
   -1    5   20     -1.68      0.00
   -7   20    1      1.80      0.00
   -6   10   18     -4.44      0.00
   -4   10   18     -0.23      0.00
  -17   18    2      0.16      0.00
   -1   18    2     -1.77      0.00
   -2   18    5     -3.04      0.00
  -16   18    5     -0.08      0.00
  -11   17   11      0.91      0.00
   -6   17   11      3.74      0.00
   -8   15   14     -1.14      0.00
   -7   15   14      3.07      0.00
   -6   18    9      0.81      0.00
   -8   14   15     -0.29      0.00
  -12   20    3      0.68      0.00
   -8   20    3     -1.76      0.00
    0   13   14     -1.72      0.00
  -12   18    9     -1.41      0.00
   -6   14   15     -1.08      0.00
  -12   15   13     -0.11      0.00
   -3   15   13     -0.46      0.00
  -10   20    4      0.50      0.00
   -2   11   17     -0.19      0.00
   -9   11   17      2.55      0.00
   -6   13   16      0.42      0.00
   -7   13   16      0.95      0.00
   -7   20    2      0.73      0.00
  -13   20    2     -0.75      0.00
  -12   16   12      1.29      0.00
   -4   16   12      1.47      0.00
    0   15   11      1.06      0.00
  -12   19    7     -2.00      0.00
   -7   19    7     -0.11      0.00
   -9   15   14      0.69      0.00
  -11   20    4      0.06      0.00
   -9   20    4     -1.17      0.00
   -4   19    4     -1.83      0.00
   -6   15   14     -3.53      0.00
  -15   19    4      3.27      0.00
   -6    8   19      0.64      0.00
   -2    8   19      0.44      0.00
   -7   10   18     -0.25      0.00
   -3   10   18     -0.42      0.00
   -3   19    0     -2.78      0.00
  -16   19    0     -0.31      0.00
   -1   16   10     -0.08      0.00
  -15   16   10      1.04      0.00
   -9   14   15     -1.52      0.00
   -5   14   15     -0.12      0.00
  -12   14   14      1.62      0.00
   -1   18    3      1.01      0.00
  -17   18    3      0.74      0.00
   -2   14   14      3.05      0.00
   -3   19    1     -0.84      0.00
  -16   19    1     -0.63      0.00
   -5   13   16     -1.24      0.00
   -8   13   16      0.40      0.00
    0    5   20     -1.61      0.00
   -8   16   13     -1.58      0.00
   -4   18    8     -1.23      0.00
  -14   18    8     -0.43      0.00
   -3   18    7     -2.18      0.00
  -15   18    7     -1.13      0.00
    0   16    9     -2.99      0.00
  -14   15   12     -0.95      0.00
    0    9   18      0.24      0.00
    0   17    6     -0.48      0.00
   -7   16   13     -1.30      0.00
   -1   15   12      0.73      0.00
   -9   16   13     -0.77      0.00
   -9   18   10     -0.89      0.00
   -2   16   11     -0.39      0.00
  -14   16   11      1.05      0.00
  -13   20    3      0.87      0.00
   -7   20    3      1.74      0.00
  -12   20    4     -2.92      0.00
   -8   20    4      2.31      0.00
   -3    6   20     -1.13      0.00
  -16   19    2      0.32      0.00
   -3   19    2      1.05      0.00
   -6   20    0      0.21      0.00
  -14   20    0      0.81      0.00
  -10   18   10      3.69      0.00
   -8   18   10      0.53      0.00
   -5   17   11      3.48      0.00
  -12   17   11     -4.53      0.00
  -10   15   14      0.65      0.00
   -5   15   14     -0.65      0.00
   -6   12   17     -1.60      0.00
  -14   20    1     -3.62      0.00
   -2    6   20     -0.74      0.00
   -6   20    1     -2.51      0.00
   -4    6   20     -0.08      0.00
  -14   19    6      1.11      0.00
   -5   19    6     -0.88      0.00
  -10   19    8      0.36      0.00
   -9   19    8      1.30      0.00
  -15   17    9     -1.94      0.00
  -13   18    9      0.06      0.00
   -2   17    9     -1.81      0.00
   -5   18    9      1.79      0.00
   -7    8   19     -0.50      0.00
   -1    8   19      1.51      0.00
   -5   12   17     -3.68      0.00
   -7   12   17     -1.14      0.00
   -1   12   16      0.17      0.00
   -9   13   16     -0.21      0.00
  -11   12   16     -0.93      0.00
   -4   13   16     -0.47      0.00
   -8   10   18      0.44      0.00
   -2   10   18      4.50      0.00
  -10   16   13     -0.46      0.00
   -2   18    6     -0.52      0.00
    0   14   13     -0.13      0.00
  -10   20    5     -1.30      0.00
   -6   16   13      3.63      0.00
  -16   18    6      1.76      0.00
  -10   14   15      0.17      0.00
   -6   19    7      1.51      0.00
  -13   19    7      0.28      0.00
   -4   14   15     -1.43      0.00
  -17   18    4      0.49      0.00
   -1   18    4      4.45      0.00
   -6   20    2     -0.53      0.00
  -14   20    2     -0.44      0.00
  -11   20    5      0.46      0.00
   -9   20    5      0.77      0.00
  -15   19    5      0.84      0.00
   -4   19    5     -2.35      0.00
  -11   19    8     -0.05      0.00
   -3   17   10      2.23      0.00
  -11   18   10      0.70      0.00
  -14   17   10     -0.56      0.00
  -16   17    8     -0.92      0.00
   -7   18   10     -2.85      0.00
   -1   17    8     -0.77      0.00
   -8   19    8     -0.94      0.00
   -1   13   15      3.58      0.00
  -12   13   15     -2.85      0.00
  -16   19    3      1.36      0.00
    0    1   21      1.48      0.00
   -3   19    3      1.51      0.00
   -1   11   17     -0.21      0.00
  -10   11   17      1.14      0.00
   -5    6   20     -2.66      0.00
   -1    6   20     -2.60      0.00
   -8   12   17      1.36      0.00
   -4   12   17      0.89      0.00
   -7   20    4     -1.69      0.00
  -13   20    4      0.48      0.00
   -9   17   12      2.98      0.00
  -13   16   12     -0.13      0.00
  -13   15   13      0.90      0.00
   -8   17   12      1.90      0.00
   -3   16   12     -0.04      0.00
   -2   15   13     -2.08      0.00
   -1    2   21      0.49      0.00
   -4    9   19     -1.69      0.00
   -5    9   19     -1.83      0.00
   -8   20    5      1.46      0.00
  -12   20    5      1.51      0.00
    0    2   21     -0.37      0.00
  -14   20    3     -1.79      0.00
   -4   15   14     -0.77      0.00
   -6   20    3     -0.62      0.00
  -11   15   14     -0.33      0.00
   -7   17   12     -0.36      0.00
  -10   17   12      3.61      0.00
   -5   16   13      2.52      0.00
  -11   16   13      1.64      0.00
  -12   19    8      0.42      0.00
   -7   19    8      1.81      0.00
   -6    9   19     -0.34      0.00
   -3    9   19      2.20      0.00
   -3   13   16      2.40      0.00
  -10   13   16      0.55      0.00
    0   18    0     -1.94      0.00
   -6   18   10     -3.00      0.00
  -12   18   10      3.01      0.00
    0   17    7     -1.54      0.00
  -13   17   11     -2.70      0.00
   -4   17   11     -1.67      0.00
  -13   14   14     -1.44      0.00
   -1   14   14     -1.29      0.00
   -3   19    4      0.60      0.00
    0    8   19     -1.57      0.00
  -16   19    4      1.70      0.00
    0    6   20     -2.05      0.00
    0   18    1      3.56      0.00
   -9   10   18      0.33      0.00
   -1   10   18     -0.34      0.00
   -6   11   18     -4.31      0.00
   -5   11   18     -1.83      0.00
  -15   20    0      1.53      0.00
   -5   20    0      0.00      0.00
  -17   18    5     -1.15      0.00
   -1   18    5     -1.92      0.00
  -15   18    8     -1.05      0.00
   -3   18    8     -2.78      0.00
   -3   14   15      1.43      0.00
  -11   14   15     -0.71      0.00
   -1    3   21     -1.44      0.00
   -2    3   21      0.44      0.00
   -9   12   17      1.21      0.00
   -3   12   17      1.32      0.00
  -15   20    1     -1.44      0.00
   -3    7   20      0.74      0.00
   -5   20    1     -0.19      0.00
   -4    7   20      1.71      0.00
  -10   20    6      0.61      0.00
   -4   18    9     -0.10      0.00
  -14   18    9      0.16      0.00
  -14   19    7      0.37      0.00
   -5   19    7      0.44      0.00
  -11   20    6      3.15      0.00
   -7   11   18     -0.77      0.00
  -11   17   12      1.43      0.00
   -4   19    6     -0.26      0.00
   -4   11   18      1.92      0.00
   -9   20    6     -1.25      0.00
   -6   17   12      0.63      0.00
    0   18    2     -1.59      0.00
  -15   19    6      3.40      0.00
   -2   19    0      0.96      0.00
  -17   19    0     -1.29      0.00
  -13   20    5      2.38      0.00
   -7   20    5     -0.03      0.00
  -16   18    7      1.42      0.00
    0    3   21      3.86      0.00
   -2   18    7     -0.99      0.00
   -2    9   19      0.94      0.00
   -6   20    4     -0.96      0.00
   -7    9   19      1.51      0.00
  -14   20    4      1.69      0.00
   -2   19    1      1.04      0.00
  -17   19    1     -4.38      0.00
   -2    7   20     -1.52      0.00
   -5   20    2     -1.73      0.00
  -15   20    2      0.61      0.00
   -5    7   20      0.15      0.00
    0   16   10     -1.77      0.00
   -1   16   11     -0.04      0.00
  -15   16   11     -2.70      0.00
    0   12   16     -1.40      0.00
    0   15   12      1.26      0.00
  -13   19    8      0.35      0.00
   -6   19    8      0.59      0.00
  -10   19    9     -1.71      0.00
   -9   19    9     -3.59      0.00
    0   11   17     -3.92      0.00
  -17   19    2     -0.52      0.00
  -12   20    6      3.65      0.00
   -8   20    6      0.35      0.00
   -2   19    2     -0.77      0.00
  -12   16   13      0.67      0.00
   -4   16   13      2.67      0.00
   -9   18   11     -0.60      0.00
   -3   15   14      2.63      0.00
  -12   15   14     -0.04      0.00
   -2    4   21      0.88      0.00
    0   18    3      2.89      0.00
   -3   11   18      0.74      0.00
  -11   21    0      0.84      0.00
  -10   21    0     -1.95      0.00
   -8   11   18     -2.64      0.00
   -3   19    5     -2.55      0.00
  -16   19    5      0.22      0.00
  -15   17   10     -0.07      0.00
   -5   18   10     -1.25      0.00
  -13   18   10      0.16      0.00
   -2   17   10      1.47      0.00
   -1    4   21      0.98      0.00
  -10   18   11      0.20      0.00
   -3    4   21     -1.53      0.00
   -8   18   11      3.46      0.00
   -5   20    3      3.91      0.00
   -1   17    9     -4.09      0.00
   -7   15   15     -0.81      0.00
   -8   19    9     -1.93      0.00
  -11   19    9      0.54      0.00
  -16   17    9      1.98      0.00
    0   13   15      1.83      0.00
  -15   20    3      1.88      0.00
   -8   15   15      0.60      0.00
  -10   21    1      2.35      0.00
  -11   21    1     -1.57      0.00
   -6    7   20     -0.98      0.00
   -1    7   20     -1.93      0.00
   -2   13   16      2.68      0.00
   -7   14   16      2.84      0.00
  -11   13   16     -0.51      0.00
  -14   16   12     -0.27      0.00
   -2   16   12      0.89      0.00
   -2   12   17      0.05      0.00
  -10   12   17     -1.86      0.00
   -6   14   16     -0.05      0.00
   -8   14   16      2.72      0.00
  -17   18    6      1.22      0.00
  -12   17   12      2.24      0.00
   -1   18    6      0.42      0.00
   -5   17   12      0.69      0.00
  -14   15   13      1.69      0.00
   -9   21    0     -0.17      0.00
   -1   15   13      0.17      0.00
  -12   21    0      0.85      0.00
   -9   15   15     -2.43      0.00
   -2   19    3      1.80      0.00
  -17   19    3     -1.18      0.00
   -6   15   15     -0.67      0.00
   -8   16   14      0.25      0.00
   -8    9   19      1.89      0.00
   -1    9   19      1.54      0.00
   -9   21    1      1.26      0.00
  -12   21    1      0.36      0.00
  -10   21    2     -0.45      0.00
  -11   21    2     -1.82      0.00
    0   10   18      0.80      0.00
  -14   20    5      2.85      0.00
   -6   20    5      1.43      0.00
  -14   17   11     -2.91      0.00
   -7   18   11      2.74      0.00
    0    4   21      0.13      0.00
   -3   17   11     -0.47      0.00
  -11   18   11      0.45      0.00
   -7   16   14      3.06      0.00
   -9   16   14      0.93      0.00
  -12   14   15     -2.78      0.00
   -2   14   15      2.44      0.00
  -13   20    6      1.82      0.00
   -7   20    6      1.74      0.00
    0   17    8      1.12      0.00
  -12   19    9      1.41      0.00
   -7   19    9      1.55      0.00
  -10   20    7      0.97      0.00
    0   18    4      1.31      0.00
   -7   13   17     -4.93      0.00
   -5   10   19     -0.29      0.00
   -6   13   17     -3.53      0.00
   -9   14   16      2.99      0.00
   -5   14   16      0.30      0.00
   -9   21    2      1.11      0.00
   -4   20    0      2.43      0.00
  -12   21    2     -1.20      0.00
  -16   20    0     -0.42      0.00
  -11   20    7      1.27      0.00
   -9   20    7      0.37      0.00
  -15   19    7      0.90      0.00
   -4   19    7      0.76      0.00
  -15   20    4      3.97      0.00
   -5   20    4      1.18      0.00
   -6   10   19     -0.98      0.00
   -4   10   19     -1.59      0.00
   -4    8   20      0.23      0.00
   -4   20    1     -1.27      0.00
  -16   20    1     -2.46      0.00
   -2   11   18      3.83      0.00
   -9   11   18     -1.43      0.00
   -8   21    0     -1.87      0.00
  -13   21    0     -2.53      0.00
  -14   19    8     -1.24      0.00
   -5   19    8      1.80      0.00
   -5   15   15     -1.00      0.00
   -2    5   21     -2.46      0.00
   -3    5   21     -3.46      0.00
  -10   15   15      1.45      0.00
   -3   18    9      0.68      0.00
   -6   16   14      0.25      0.00
  -10   21    3      1.40      0.00
  -15   18    9     -0.26      0.00
  -10   16   14     -0.90      0.00
    0   14   14      0.19      0.00
  -11   21    3      0.30      0.00
   -8   13   17      0.97      0.00
   -5   13   17     -3.31      0.00
   -8   21    1     -0.70      0.00
    0    7   20     -2.08      0.00
  -13   21    1     -1.62      0.00
   -5    8   20     -0.24      0.00
   -3    8   20      0.65      0.00
  -16   18    8      0.22      0.00
   -2   18    8     -0.18      0.00
   -2   19    4      1.07      0.00
  -17   19    4     -0.54      0.00
  -16   20    2      0.27      0.00
   -4   20    2     -0.59      0.00
  -16   19    6      3.39      0.00
   -3   19    6      1.89      0.00
   -3   16   13     -2.21      0.00
   -8   17   13      1.58      0.00
  -13   16   13      1.37      0.00
   -9   17   13     -0.03      0.00
   -4    5   21     -2.11      0.00
   -6   18   11      3.14      0.00
  -12   20    7      0.85      0.00
   -8   20    7      1.60      0.00
   -1    5   21      0.23      0.00
  -12   18   11     -1.32      0.00
   -9   21    3      0.49      0.00
  -12   21    3      4.33      0.00
   -7   10   19      1.09      0.00
   -3   10   19      3.19      0.00
  -13   21    2     -0.50      0.00
   -8   21    2      0.94      0.00
  -14   18   10      0.15      0.00
   -4   18   10      4.44      0.00
   -2   15   14      3.60      0.00
  -13   15   14     -2.28      0.00
  -10   14   16      2.17      0.00
   -2    8   20      1.57      0.00
   -6    8   20     -0.54      0.00
   -4   14   16      1.19      0.00
  -13   17   12     -0.58      0.00
   -4   17   12      1.55      0.00
  -10   17   13     -3.09      0.00
   -7   17   13      0.50      0.00
  -13   19    9      0.55      0.00
   -6   19    9      4.03      0.00
  -11   12   17      0.35      0.00
   -9   13   17      0.58      0.00
   -4   13   17      0.65      0.00
    0    9   19     -0.18      0.00
   -1   12   17     -1.34      0.00
   -6   12   18     -3.41      0.00
  -12   13   16     -1.52      0.00
   -1   13   16      0.57      0.00
  -14   20    6      1.33      0.00
    0   18    5     -1.67      0.00
   -6   20    6      0.17      0.00
  -17   18    7      1.57      0.00
   -1   18    7      0.69      0.00
  -11   16   14     -0.58      0.00
  -11   21    4      1.56      0.00
  -16   20    3      0.90      0.00
  -10   21    4      3.60      0.00
   -4   20    3      2.36      0.00
   -5   16   14     -1.75      0.00
   -5   12   18     -2.41      0.00
   -7   12   18     -1.11      0.00
   -5   20    5     -1.33      0.00
  -15   20    5     -0.36      0.00
   -1   19    0     -0.07      0.00
   -7   21    0     -0.28      0.00
  -18   19    0     -0.52      0.00
  -14   21    0      0.16      0.00
  -10   19   10      1.83      0.00
   -9   19   10      0.42      0.00
    0    5   21      0.59      0.00
    0   16   11      0.12      0.00
  -11   15   15      1.57      0.00
   -4   15   15     -0.23      0.00
  -13   21    3      0.85      0.00
   -8   21    3      0.12      0.00
   -7   21    1     -0.73      0.00
   -1   19    1     -0.63      0.00
  -14   21    1      0.65      0.00
  -18   19    1     -4.65      0.00
  -13   20    7     -1.60      0.00
   -7   20    7      0.91      0.00
   -9   21    4     -0.48      0.00
  -12   21    4     -0.40      0.00
   -2   10   19      1.62      0.00
   -8   10   19      2.16      0.00
  -10   11   18     -0.73      0.00
   -1   11   18     -0.11      0.00
   -1   16   12      1.87      0.00
  -15   16   12      1.61      0.00
  -11   17   13     -4.22      0.00
  -17   19    5      1.13      0.00
   -6   17   13      1.65      0.00
   -2   19    5     -1.47      0.00
  -11   19   10      3.82      0.00
  -16   17   10     -3.48      0.00
   -1   17   10     -1.98      0.00
   -8   19   10     -3.81      0.00
   -1   14   15      3.41      0.00
  -13   14   15     -2.58      0.00
   -3    6   21     -2.75      0.00
  -18   19    2     -1.59      0.00
   -7    8   20     -1.54      0.00
   -1    8   20     -0.40      0.00
   -7   21    2     -0.21      0.00
  -14   21    2      0.89      0.00
   -1   19    2     -2.04      0.00
   -8   12   18     -2.60      0.00
   -4   12   18      2.42      0.00
  -10   20    8      1.47      0.00
   -2   17   11     -1.97      0.00
  -13   18   11     -1.09      0.00
   -2    6   21     -1.18      0.00
  -15   17   11     -0.45      0.00
   -5   18   11      0.70      0.00
   -4    6   21     -0.90      0.00
   -9   18   12      1.55      0.00
    0   15   13     -0.49      0.00
   -4   19    8      1.00      0.00
  -15   19    8     -0.13      0.00
   -9   20    8      1.78      0.00
  -11   20    8      1.04      0.00
    0   17    9     -5.15      0.00
   -4   20    4     -0.46      0.00
  -16   20    4      4.75      0.00
  -10   13   17      1.05      0.00
   -3   13   17      3.20      0.00
  -11   14   16      3.17      0.00
   -3   14   16      4.45      0.00
   -8   18   12     -0.69      0.00
  -10   18   12      1.20      0.00
  -16   19    7     -0.08      0.00
   -3   19    7     -3.13      0.00
  -13   21    4     -0.40      0.00
   -8   21    4      0.01      0.00
  -10   21    5      0.54      0.00
   -3   20    0     -1.09      0.00
  -11   21    5      0.47      0.00
  -17   20    0      1.00      0.00
  -12   19   10      3.12      0.00
   -7   19   10     -1.16      0.00
   -1    6   21     -2.39      0.00
   -1   19    3      1.33      0.00
  -14   19    9     -1.13      0.00
   -5   19    9      2.78      0.00
  -14   21    3     -0.94      0.00
   -5    6   21     -2.74      0.00
  -18   19    3      0.71      0.00
   -7   21    3      2.19      0.00
    0    0   22     -0.46      0.00
   -4   16   14     -0.73      0.00
  -12   16   14      0.72      0.00
  -17   20    1     -2.87      0.00
   -3   20    1      0.00      0.00
   -4    9   20      1.40      0.00
   -5    9   20      0.65      0.00
    0   18    6      1.22      0.00
  -14   16   13     -0.60      0.00
   -2   16   13     -2.04      0.00
  -12   20    8      2.24      0.00
   -8   20    8     -0.95      0.00
    0    1   22      4.01      0.00
   -2   18    9     -2.02      0.00
  -16   18    9      0.66      0.00
  -11   18   12      3.66      0.00
  -14   17   12      1.21      0.00
   -3   12   18      3.02      0.00
   -3   17   12      1.25      0.00
   -9   12   18      0.08      0.00
   -7   18   12      0.86      0.00
  -12   21    5     -2.58      0.00
  -12   17   13     -2.82      0.00
  -15   20    6      0.71      0.00
   -9   21    5      1.45      0.00
   -5   17   13      1.33      0.00
   -6   21    0      2.68      0.00
   -5   20    6     -0.69      0.00
  -15   21    0     -1.33      0.00
  -15   18   10     -1.28      0.00
   -3   18   10      5.87      0.00
  -14   20    7      1.07      0.00
   -6   20    7      3.82      0.00
   -3   15   15      2.18      0.00
  -12   15   15      1.94      0.00
   -1   10   19      0.72      0.00
   -5   11   19     -0.49      0.00
   -6   11   19     -3.78      0.00
   -9   10   19      0.74      0.00
   -6   21    1     -1.19      0.00
  -15   21    1      0.35      0.00
   -6    9   20     -1.24      0.00
  -17   20    2     -0.36      0.00
   -3   20    2     -0.30      0.00
   -3    9   20      1.72      0.00
   -1    2   22      0.40      0.00
  -14   15   14     -1.88      0.00
   -1   15   14      1.26      0.00
    0   12   17     -0.57      0.00
    0    8   20     -0.29      0.00
   -2   19    6      1.08      0.00
  -17   19    6      0.26      0.00
  -17   18    8     -0.20      0.00
   -1   18    8     -0.16      0.00
    0    2   22     -1.57      0.00
   -7   11   19     -0.53      0.00
   -4   11   19     -0.05      0.00
   -6   21    2     -1.81      0.00
   -8   15   16      3.84      0.00
    0   13   16     -1.64      0.00
   -7   15   16      2.02      0.00
  -15   21    2      0.32      0.00
   -4   20    5     -0.67      0.00
  -16   20    5      0.84      0.00
    0    6   21     -2.39      0.00
   -8   16   15      0.83      0.00
   -7   21    4     -0.60      0.00
  -18   19    4     -1.19      0.00
  -14   21    4     -2.77      0.00
   -1   19    4      1.20      0.00
    0   11   18     -1.55      0.00
  -13   21    5      2.23      0.00
   -8   21    5      1.31      0.00
  -13   19   10      1.94      0.00
   -7   20    8      0.72      0.00
  -13   20    8     -0.25      0.00
   -6   19   10     -2.98      0.00
   -4   18   11     -0.34      0.00
  -14   18   11     -2.88      0.00
   -3    7   21     -3.62      0.00
   -4    7   21     -4.16      0.00
   -3   20    3      0.38      0.00
  -17   20    3      1.87      0.00
   -9   16   15      1.00      0.00
   -7   16   15      1.89      0.00
  -11   13   17      1.15      0.00
   -2   13   17      1.10      0.00
   -7   14   17     -4.05      0.00
   -2    9   20      1.50      0.00
   -7    9   20     -1.78      0.00
   -6   15   16      1.02      0.00
   -9   15   16      2.32      0.00
  -12   18   12     -0.19      0.00
   -6   18   12      1.01      0.00
   -1    3   22     -0.62      0.00
   -2    3   22     -1.70      0.00
   -6   14   17     -4.05      0.00
   -8   14   17      0.61      0.00
   -2   14   16      3.58      0.00
  -12   14   16      1.38      0.00
  -11   21    6      0.97      0.00
  -10   21    6     -0.63      0.00
   -5    7   21     -3.04      0.00
   -2    7   21     -4.07      0.00
   -6   21    3      0.94      0.00
  -15   21    3     -1.28      0.00
   -8   11   19      2.70      0.00
   -3   11   19      2.95      0.00
  -10   12   18     -1.68      0.00
   -2   12   18      3.15      0.00
   -6   16   15     -3.70      0.00
   -9   19   11      0.83      0.00
    0    3   22     -0.65      0.00
  -10   19   11      1.05      0.00
  -10   16   15     -0.31      0.00
    0   14   15      2.92      0.00
  -10   20    9     -2.26      0.00
  -13   16   14     -0.73      0.00
   -9   17   14      2.66      0.00
   -8   17   14      2.16      0.00
   -3   16   14     -1.64      0.00
  -12   21    6      1.04      0.00
   -9   21    6      0.38      0.00
  -13   17   13      0.92      0.00
   -4   17   13     -1.00      0.00
   -3   19    8     -0.88      0.00
  -16   19    8     -1.04      0.00
    0   18    7     -0.12      0.00
  -15   19    9     -1.68      0.00
  -11   20    9     -4.01      0.00
   -4   19    9      1.92      0.00
   -9   20    9     -1.24      0.00
   -9   14   17      1.68      0.00
   -5   14   17     -1.50      0.00
  -10   15   16      4.13      0.00
   -5   15   16     -0.41      0.00
    0   16   12      1.98      0.00
  -11   19   11     -2.18      0.00
  -16   17   11     -0.40      0.00
   -8   19   11      3.81      0.00
   -1   17   11      1.70      0.00
   -5   20    7      0.45      0.00
  -15   20    7     -2.08      0.00
  -17   20    4      0.49      0.00
  -10   17   14      0.91      0.00
   -7   17   14      1.06      0.00
   -3   20    4      1.77      0.00
    0    1    0    169.91      0.00
   -1    2    0     76.17      0.00
    0    2    0     68.59      0.00
   -3    4    0    -35.11      0.00
   -2    5    0    -56.49      0.00
   -5    8    0    -21.49      0.00
    0   19    0     -3.03      0.00
  -19   20    0     -0.92      0.00
  -18   20    0     -1.91      0.00
   -2   20    0     -0.31      0.00
   -1   20    0     -1.12      0.00
    0   20    0     -2.29      0.00
  -20   21    0      0.54      0.00
  -19   21    0     -1.11      0.00
  -18   21    0      1.27      0.00
  -17   21    0      0.78      0.00
  -16   21    0      1.99      0.00
   -5   21    0     -0.75      0.00
   -4   21    0      0.02      0.00
   -3   21    0      0.54      0.00
   -2   21    0      0.03      0.00
   -1   21    0      0.28      0.00
    0    1    1     26.76      0.00
   -1    2    1     42.40      0.00
    0    2    1    -40.22      0.00
    0   19    1      3.23      0.00
  -19   20    1     -5.07      0.00
  -18   20    1     -5.43      0.00
   -2   20    1      0.94      0.00
   -1   20    1      0.61      0.00
    0   20    1      2.25      0.00
  -20   21    1     -2.39      0.00
  -19   21    1     -3.00      0.00
  -18   21    1     -3.95      0.00
  -17   21    1     -2.27      0.00
  -16   21    1     -0.99      0.00
   -5   21    1     -1.42      0.00
   -4   21    1      0.97      0.00
   -3   21    1     -0.09      0.00
   -2   21    1     -0.03      0.00
   -1   21    1     -0.35      0.00
    0    0    2      2.37      0.00
    0    1    2     12.18      0.00
    0   19    2     -0.88      0.00
  -19   20    2     -1.17      0.00
  -18   20    2     -1.05      0.00
   -2   20    2     -0.36      0.00
   -1   20    2      0.19      0.00
    0   20    2     -0.04      0.00
  -20   21    2     -0.36      0.00
  -19   21    2     -0.59      0.00
  -18   21    2     -0.06      0.00
  -17   21    2     -0.43      0.00
  -16   21    2     -0.67      0.00
   -5   21    2     -2.35      0.00
   -4   21    2     -0.32      0.00
   -3   21    2     -0.02      0.00
   -2   21    2      0.59      0.00
   -1   21    2      1.19      0.00
    0   19    3      0.82      0.00
  -19   20    3      1.67      0.00
  -18   20    3      1.01      0.00
   -2   20    3      1.49      0.00
   -1   20    3      0.35      0.00
    0   20    3      0.06      0.00
  -20   21    3      0.59      0.00
  -19   21    3      1.53      0.00
  -18   21    3      1.52      0.00
  -17   21    3      0.78      0.00
  -16   21    3     -0.53      0.00
   -5   21    3      1.73      0.00
   -4   21    3      2.42      0.00
   -3   21    3      0.48      0.00
   -2   21    3      1.35      0.00
   -1   21    3      0.16      0.00
    0   19    4     -0.21      0.00
  -19   20    4     -1.40      0.00
  -18   20    4     -0.51      0.00
   -2   20    4      0.26      0.00
   -1   20    4     -1.21      0.00
    0   20    4     -0.78      0.00
  -20   21    4     -0.73      0.00
  -19   21    4     -1.04      0.00
  -18   21    4     -1.89      0.00
  -17   21    4      2.48      0.00
  -16   21    4      3.49      0.00
  -15   21    4      3.10      0.00
   -6   21    4     -1.11      0.00
   -5   21    4      2.05      0.00
   -4   21    4      0.67      0.00
   -3   21    4      0.00      0.00
   -2   21    4     -0.89      0.00
   -1   21    4     -1.99      0.00
  -18   19    5      0.21      0.00
   -1   19    5      0.01      0.00
    0   19    5      0.15      0.00
  -19   20    5      0.89      0.00
  -18   20    5      1.20      0.00
  -17   20    5      0.72      0.00
   -3   20    5      0.35      0.00
   -2   20    5      1.08      0.00
   -1   20    5      0.83      0.00
    0   20    5     -0.32      0.00
  -19   21    5      0.34      0.00
  -18   21    5      0.27      0.00
  -17   21    5      0.09      0.00
  -16   21    5      1.22      0.00
  -15   21    5      2.34      0.00
  -14   21    5      1.97      0.00
   -7   21    5     -0.47      0.00
   -6   21    5     -0.34      0.00
   -5   21    5     -0.33      0.00
   -4   21    5      0.09      0.00
   -3   21    5      2.00      0.00
   -2   21    5      1.95      0.00
    0    0    6    -74.35      0.00
  -18   19    6      0.36      0.00
   -1   19    6      2.55      0.00
    0   19    6      1.19      0.00
  -19   20    6     -0.02      0.00
  -18   20    6     -0.35      0.00
  -17   20    6      0.37      0.00
  -16   20    6      1.15      0.00
   -4   20    6     -1.59      0.00
   -3   20    6      0.57      0.00
   -2   20    6      1.78      0.00
   -1   20    6      2.86      0.00
    0   20    6      2.10      0.00
  -19   21    6     -0.91      0.00
  -18   21    6     -1.29      0.00
  -17   21    6     -0.31      0.00
  -16   21    6      0.05      0.00
  -15   21    6      0.73      0.00
  -14   21    6      2.40      0.00
  -13   21    6      3.23      0.00
   -8   21    6      0.98      0.00
   -7   21    6     -0.33      0.00
   -6   21    6     -1.41      0.00
   -5   21    6     -0.74      0.00
   -4   21    6      0.42      0.00
   -3   21    6      1.77      0.00
   -2   21    6      1.44      0.00
  -18   19    7      0.42      0.00
  -17   19    7      2.33      0.00
   -2   19    7     -1.92      0.00
   -1   19    7      0.79      0.00
    0   19    7      0.75      0.00
  -19   20    7     -0.27      0.00
  -18   20    7      2.38      0.00
  -17   20    7     -0.72      0.00
  -16   20    7     -0.45      0.00
   -4   20    7     -2.62      0.00
   -3   20    7     -3.09      0.00
   -2   20    7     -0.75      0.00
   -1   20    7      2.58      0.00
    0   20    7      1.37      0.00
  -18   21    7      0.26      0.00
  -17   21    7     -0.14      0.00
  -16   21    7     -1.95      0.00
  -15   21    7     -0.77      0.00
  -14   21    7      0.20      0.00
  -13   21    7      1.20      0.00
  -12   21    7      0.48      0.00
  -11   21    7      1.41      0.00
  -10   21    7     -2.05      0.00
   -9   21    7     -0.55      0.00
   -8   21    7      1.12      0.00
   -7   21    7      2.46      0.00
   -6   21    7      2.85      0.00
   -5   21    7      0.06      0.00
   -4   21    7     -1.58      0.00
   -3   21    7     -1.42      0.00
    0   18    8      1.92      0.00
  -18   19    8      2.67      0.00
  -17   19    8      2.05      0.00
   -2   19    8      0.16      0.00
   -1   19    8      0.23      0.00
    0   19    8      2.15      0.00
  -19   20    8      2.17      0.00
  -18   20    8      1.47      0.00
  -17   20    8      0.05      0.00
  -16   20    8     -1.06      0.00
  -15   20    8      0.00      0.00
  -14   20    8      0.78      0.00
   -6   20    8      2.56      0.00
   -5   20    8      3.10      0.00
   -4   20    8      1.59      0.00
   -3   20    8      0.06      0.00
   -2   20    8      0.16      0.00
   -1   20    8      0.04      0.00
  -18   21    8      1.87      0.00
  -17   21    8     -0.13      0.00
  -16   21    8     -0.14      0.00
  -15   21    8     -1.14      0.00
  -14   21    8     -0.86      0.00
  -13   21    8     -1.26      0.00
  -12   21    8      2.35      0.00
  -11   21    8      2.17      0.00
  -10   21    8      0.43      0.00
   -9   21    8     -0.48      0.00
   -8   21    8     -1.41      0.00
   -7   21    8      1.62      0.00
   -6   21    8      3.36      0.00
   -5   21    8      2.73      0.00
   -4   21    8      1.40      0.00
   -3   21    8     -0.29      0.00
  -17   18    9      2.13      0.00
   -1   18    9     -4.14      0.00
    0   18    9     -3.39      0.00
  -18   19    9      2.06      0.00
  -17   19    9     -0.25      0.00
  -16   19    9     -0.53      0.00
   -3   19    9     -0.55      0.00
   -2   19    9     -2.82      0.00
   -1   19    9     -4.12      0.00
    0   19    9     -2.84      0.00
  -18   20    9     -1.02      0.00
  -17   20    9     -1.27      0.00
  -16   20    9     -0.34      0.00
  -15   20    9      1.72      0.00
  -14   20    9      0.61      0.00
  -13   20    9      0.38      0.00
  -12   20    9     -1.74      0.00
   -8   20    9      0.79      0.00
   -7   20    9      1.52      0.00
   -6   20    9      1.56      0.00
   -5   20    9      0.54      0.00
   -4   20    9      1.04      0.00
   -3   20    9      1.02      0.00
   -2   20    9     -0.52      0.00
  -17   21    9     -0.83      0.00
  -16   21    9      1.08      0.00
  -15   21    9      0.72      0.00
  -14   21    9     -0.36      0.00
  -13   21    9     -1.32      0.00
  -12   21    9     -0.97      0.00
  -11   21    9     -1.54      0.00
  -10   21    9     -0.32      0.00
   -9   21    9     -0.17      0.00
   -8   21    9      0.16      0.00
   -7   21    9      1.68      0.00
   -6   21    9      1.38      0.00
   -5   21    9      2.72      0.00
   -4   21    9      0.76      0.00
    0   17   10     -2.41      0.00
  -17   18   10     -1.81      0.00
  -16   18   10     -1.57      0.00
   -2   18   10      2.31      0.00
   -1   18   10     -2.26      0.00
    0   18   10     -3.54      0.00
  -18   19   10     -2.28      0.00
  -17   19   10     -0.18      0.00
  -16   19   10     -1.02      0.00
  -15   19   10     -0.56      0.00
  -14   19   10     -0.66      0.00
   -5   19   10      2.21      0.00
   -4   19   10      3.15      0.00
   -3   19   10      2.09      0.00
   -2   19   10     -0.31      0.00
   -1   19   10     -2.07      0.00
    0   19   10     -0.90      0.00
  -17   20   10      0.26      0.00
  -16   20   10      0.08      0.00
  -15   20   10     -0.86      0.00
  -14   20   10     -0.01      0.00
  -13   20   10      2.26      0.00
  -12   20   10      3.57      0.00
  -11   20   10      3.42      0.00
  -10   20   10      2.49      0.00
   -9   20   10     -0.86      0.00
   -8   20   10     -2.17      0.00
   -7   20   10     -3.07      0.00
   -6   20   10     -1.15      0.00
   -5   20   10      0.66      0.00
   -4   20   10      3.55      0.00
   -3   20   10      0.86      0.00
  -16   21   10      0.10      0.00
  -15   21   10     -0.28      0.00
  -14   21   10      2.44      0.00
  -13   21   10      2.82      0.00
  -12   21   10      2.41      0.00
  -11   21   10      0.70      0.00
  -10   21   10      0.41      0.00
   -9   21   10      0.11      0.00
   -8   21   10     -0.08      0.00
   -7   21   10     -0.36      0.00
   -6   21   10      0.45      0.00
   -5   21   10      0.65      0.00
    0   17   11      0.68      0.00
  -17   18   11     -0.54      0.00
  -16   18   11     -1.35      0.00
  -15   18   11     -1.93      0.00
   -3   18   11     -1.36      0.00
   -2   18   11     -1.53      0.00
   -1   18   11     -0.46      0.00
    0   18   11     -0.74      0.00
  -18   19   11      0.23      0.00
  -17   19   11     -1.07      0.00
  -16   19   11     -0.93      0.00
  -15   19   11     -1.41      0.00
  -14   19   11     -0.03      0.00
  -13   19   11     -0.47      0.00
  -12   19   11     -1.48      0.00
   -7   19   11      0.68      0.00
   -6   19   11     -1.27      0.00
   -5   19   11     -1.65      0.00
   -4   19   11     -2.84      0.00
   -3   19   11     -1.08      0.00
   -2   19   11     -0.96      0.00
   -1   19   11      0.03      0.00
  -16   20   11     -1.05      0.00
  -15   20   11      0.65      0.00
  -14   20   11     -0.36      0.00
  -13   20   11      1.25      0.00
  -12   20   11     -1.55      0.00
  -11   20   11      0.49      0.00
  -10   20   11     -0.75      0.00
   -9   20   11      0.24      0.00
   -8   20   11     -0.65      0.00
   -7   20   11     -0.72      0.00
   -6   20   11     -1.53      0.00
   -5   20   11      0.30      0.00
   -4   20   11     -1.12      0.00
  -14   21   11      2.35      0.00
  -13   21   11      0.80      0.00
  -12   21   11      0.69      0.00
  -11   21   11     -1.96      0.00
  -10   21   11     -0.42      0.00
   -9   21   11     -0.77      0.00
   -8   21   11      0.72      0.00
   -7   21   11     -0.30      0.00
  -16   17   12      1.55      0.00
  -15   17   12      0.10      0.00
   -2   17   12      3.14      0.00
   -1   17   12      3.42      0.00
    0   17   12      1.34      0.00
  -17   18   12      1.21      0.00
  -16   18   12      0.27      0.00
  -15   18   12      0.07      0.00
  -14   18   12     -1.66      0.00
  -13   18   12     -0.84      0.00
   -5   18   12      2.09      0.00
   -4   18   12      1.17      0.00
   -3   18   12      1.59      0.00
   -2   18   12      2.63      0.00
   -1   18   12      1.63      0.00
    0   18   12     -0.35      0.00
  -17   19   12     -0.85      0.00
  -16   19   12     -0.90      0.00
  -15   19   12     -2.34      0.00
  -14   19   12      0.77      0.00
  -13   19   12     -0.08      0.00
  -12   19   12      1.35      0.00
  -11   19   12     -0.24      0.00
  -10   19   12     -0.90      0.00
   -9   19   12     -0.38      0.00
   -8   19   12      2.04      0.00
   -7   19   12      1.57      0.00
   -6   19   12      1.12      0.00
   -5   19   12     -0.90      0.00
   -4   19   12      0.51      0.00
   -3   19   12      1.89      0.00
   -2   19   12      0.86      0.00
  -15   20   12     -0.59      0.00
  -14   20   12     -0.54      0.00
  -13   20   12     -0.17      0.00
  -12   20   12     -0.13      0.00
  -11   20   12      1.25      0.00
  -10   20   12     -0.34      0.00
   -9   20   12      1.26      0.00
   -8   20   12      0.27      0.00
   -7   20   12     -0.20      0.00
   -6   20   12      0.86      0.00
   -5   20   12      0.38      0.00
  -11   21   12      0.75      0.00
  -10   21   12     -0.08      0.00
  -15   16   13     -1.00      0.00
   -1   16   13     -1.63      0.00
    0   16   13      0.25      0.00
  -16   17   13     -1.47      0.00
  -15   17   13      0.68      0.00
  -14   17   13      1.38      0.00
   -3   17   13     -0.38      0.00
   -2   17   13     -0.87      0.00
   -1   17   13      0.51      0.00
    0   17   13      1.91      0.00
  -17   18   13     -1.50      0.00
  -16   18   13     -1.55      0.00
  -15   18   13     -0.34      0.00
  -14   18   13     -0.95      0.00
  -13   18   13     -1.53      0.00
  -12   18   13     -2.41      0.00
  -11   18   13     -1.63      0.00
  -10   18   13     -1.17      0.00
   -9   18   13     -1.35      0.00
   -8   18   13     -0.71      0.00
   -7   18   13     -0.69      0.00
   -6   18   13      3.47      0.00
   -5   18   13      3.20      0.00
   -4   18   13      0.43      0.00
   -3   18   13     -1.00      0.00
   -2   18   13     -1.28      0.00
   -1   18   13     -0.75      0.00
  -16   19   13     -1.15      0.00
  -15   19   13      0.48      0.00
  -14   19   13     -0.22      0.00
  -13   19   13     -1.40      0.00
  -12   19   13     -0.64      0.00
  -11   19   13     -1.32      0.00
  -10   19   13     -0.41      0.00
   -9   19   13     -1.55      0.00
   -8   19   13      0.20      0.00
   -7   19   13      2.16      0.00
   -6   19   13      2.29      0.00
   -5   19   13      0.95      0.00
   -4   19   13     -0.59      0.00
   -3   19   13     -0.58      0.00
  -13   20   13      0.42      0.00
  -12   20   13      1.72      0.00
  -11   20   13      0.56      0.00
  -10   20   13     -0.43      0.00
   -9   20   13     -0.70      0.00
   -8   20   13     -1.04      0.00
   -7   20   13      2.19      0.00
    0   15   14     -0.44      0.00
  -15   16   14     -1.10      0.00
  -14   16   14      0.40      0.00
   -2   16   14      0.79      0.00
   -1   16   14      0.32      0.00
    0   16   14      0.96      0.00
  -16   17   14      0.79      0.00
  -15   17   14     -2.37      0.00
  -14   17   14     -1.77      0.00
  -13   17   14     -1.99      0.00
  -12   17   14      0.15      0.00
  -11   17   14      0.39      0.00
   -6   17   14     -0.67      0.00
   -5   17   14     -5.80      0.00
   -4   17   14     -2.43      0.00
   -3   17   14     -1.41      0.00
   -2   17   14      1.54      0.00
   -1   17   14      1.12      0.00
    0   17   14      0.59      0.00
  -16   18   14     -0.95      0.00
  -15   18   14     -0.70      0.00
  -14   18   14     -0.42      0.00
  -13   18   14      1.12      0.00
  -12   18   14      0.28      0.00
  -11   18   14      0.90      0.00
  -10   18   14     -1.53      0.00
   -9   18   14      2.96      0.00
   -8   18   14      0.87      0.00
   -7   18   14      1.93      0.00
   -6   18   14     -1.39      0.00
   -5   18   14     -3.74      0.00
   -4   18   14     -3.61      0.00
   -3   18   14     -1.23      0.00
   -2   18   14     -0.84      0.00
  -14   19   14     -1.67      0.00
  -13   19   14     -1.60      0.00
  -12   19   14      0.20      0.00
  -11   19   14      1.42      0.00
  -10   19   14      2.98      0.00
   -9   19   14      1.12      0.00
   -8   19   14      1.81      0.00
   -7   19   14     -2.04      0.00
   -6   19   14     -0.86      0.00
   -5   19   14     -2.55      0.00
  -14   15   15     -1.76      0.00
  -13   15   15      0.06      0.00
   -2   15   15      2.47      0.00
   -1   15   15      0.28      0.00
    0   15   15      1.12      0.00
  -15   16   15      0.68      0.00
  -14   16   15     -0.90      0.00
  -13   16   15      0.66      0.00
  -12   16   15      0.62      0.00
  -11   16   15      0.72      0.00
   -5   16   15     -0.89      0.00
   -4   16   15     -2.25      0.00
   -3   16   15      1.11      0.00
   -2   16   15     -1.04      0.00
   -1   16   15     -0.19      0.00
    0   16   15      0.53      0.00
  -16   17   15     -0.42      0.00
  -15   17   15     -1.85      0.00
  -14   17   15     -0.91      0.00
  -13   17   15     -0.70      0.00
  -12   17   15      2.51      0.00
  -11   17   15      0.40      0.00
  -10   17   15      2.25      0.00
   -9   17   15     -1.19      0.00
   -8   17   15     -0.63      0.00
   -7   17   15     -2.12      0.00
   -6   17   15     -1.25      0.00
   -5   17   15     -0.13      0.00
   -4   17   15      1.77      0.00
   -3   17   15     -1.49      0.00
   -2   17   15     -1.35      0.00
   -1   17   15     -2.26      0.00
  -14   18   15     -0.90      0.00
  -13   18   15      0.40      0.00
  -12   18   15      0.57      0.00
  -11   18   15     -0.01      0.00
  -10   18   15      0.49      0.00
   -9   18   15      1.06      0.00
   -8   18   15     -0.76      0.00
   -7   18   15      1.20      0.00
   -6   18   15     -0.57      0.00
   -5   18   15      0.87      0.00
   -4   18   15     -0.25      0.00
  -11   19   15      1.16      0.00
  -10   19   15      1.79      0.00
   -9   19   15      1.97      0.00
   -8   19   15     -0.18      0.00
  -13   14   16     -0.19      0.00
   -1   14   16      0.59      0.00
    0   14   16     -1.09      0.00
  -14   15   16     -0.97      0.00
  -13   15   16      0.00      0.00
  -12   15   16      3.53      0.00
  -11   15   16      3.34      0.00
   -4   15   16      2.07      0.00
   -3   15   16      2.45      0.00
   -2   15   16      2.44      0.00
   -1   15   16      0.80      0.00
    0   15   16     -1.03      0.00
  -15   16   16     -1.70      0.00
  -14   16   16     -1.13      0.00
  -13   16   16      1.96      0.00
  -12   16   16      2.47      0.00
  -11   16   16      2.13      0.00
  -10   16   16      0.54      0.00
   -9   16   16      2.32      0.00
   -8   16   16      1.89      0.00
   -7   16   16      1.99      0.00
   -6   16   16     -1.05      0.00
   -5   16   16     -0.65      0.00
   -4   16   16      1.27      0.00
   -3   16   16      3.01      0.00
   -2   16   16      1.73      0.00
   -1   16   16      1.15      0.00
  -14   17   16     -0.72      0.00
  -13   17   16     -0.35      0.00
  -12   17   16     -0.56      0.00
  -11   17   16      0.66      0.00
  -10   17   16      1.85      0.00
   -9   17   16      3.02      0.00
   -8   17   16      1.91      0.00
   -7   17   16     -0.72      0.00
   -6   17   16     -1.36      0.00
   -5   17   16      0.62      0.00
   -4   17   16      2.45      0.00
   -3   17   16      2.13      0.00
  -11   18   16      0.87      0.00
  -10   18   16      2.55      0.00
   -9   18   16      1.68      0.00
   -8   18   16      1.57      0.00
   -7   18   16     -0.98      0.00
  -12   13   17      0.82      0.00
   -1   13   17      0.58      0.00
    0   13   17     -0.95      0.00
  -13   14   17      1.32      0.00
  -12   14   17     -0.96      0.00
  -11   14   17     -0.23      0.00
  -10   14   17      0.59      0.00
   -4   14   17     -0.67      0.00
   -3   14   17      3.21      0.00
   -2   14   17      0.34      0.00
   -1   14   17      0.10      0.00
    0   14   17     -1.15      0.00
  -14   15   17     -0.20      0.00
  -13   15   17     -0.54      0.00
  -12   15   17      0.17      0.00
  -11   15   17      2.22      0.00
  -10   15   17      3.83      0.00
   -9   15   17      0.43      0.00
   -8   15   17     -1.67      0.00
   -7   15   17     -6.00      0.00
   -6   15   17     -4.19      0.00
   -5   15   17      0.18      0.00
   -4   15   17      1.64      0.00
   -3   15   17      1.33      0.00
   -2   15   17      0.55      0.00
   -1   15   17     -1.97      0.00
    0   15   17     -0.75      0.00
  -13   16   17     -0.84      0.00
  -12   16   17      0.04      0.00
  -11   16   17      0.86      0.00
  -10   16   17      3.17      0.00
   -9   16   17     -0.20      0.00
   -8   16   17     -1.70      0.00
   -7   16   17     -2.36      0.00
   -6   16   17     -2.80      0.00
   -5   16   17      1.19      0.00
   -4   16   17      0.39      0.00
   -3   16   17      0.76      0.00
  -11   17   17      1.83      0.00
  -10   17   17      1.84      0.00
   -9   17   17      0.87      0.00
   -8   17   17     -0.85      0.00
   -7   17   17     -0.82      0.00
   -6   17   17     -1.40      0.00
  -11   12   18     -1.28      0.00
   -1   12   18      1.24      0.00
    0   12   18     -0.46      0.00
  -12   13   18      0.23      0.00
  -11   13   18     -1.08      0.00
  -10   13   18     -2.67      0.00
   -9   13   18     -0.38      0.00
   -8   13   18     -1.33      0.00
   -7   13   18     -1.05      0.00
   -6   13   18      0.00      0.00
   -5   13   18     -0.72      0.00
   -4   13   18      4.03      0.00
   -3   13   18      1.39      0.00
   -2   13   18      1.29      0.00
   -1   13   18     -0.06      0.00
    0   13   18      0.64      0.00
  -13   14   18      0.16      0.00
  -12   14   18     -1.06      0.00
  -11   14   18     -0.72      0.00
  -10   14   18     -0.33      0.00
   -9   14   18      1.77      0.00
   -8   14   18     -0.05      0.00
   -7   14   18     -1.44      0.00
   -6   14   18      0.65      0.00
   -5   14   18     -0.27      0.00
   -4   14   18      1.66      0.00
   -3   14   18      0.97      0.00
   -2   14   18     -1.03      0.00
   -1   14   18      0.95      0.00
    0   14   18     -0.67      0.00
  -13   15   18      0.90      0.00
  -12   15   18     -0.72      0.00
  -11   15   18     -0.89      0.00
  -10   15   18     -0.69      0.00
   -9   15   18      0.69      0.00
   -8   15   18      0.17      0.00
   -7   15   18     -2.47      0.00
   -6   15   18      0.62      0.00
   -5   15   18     -0.39      0.00
   -4   15   18     -0.01      0.00
   -3   15   18     -0.40      0.00
   -2   15   18     -0.98      0.00
  -11   16   18      0.68      0.00
  -10   16   18      1.32      0.00
   -9   16   18      0.50      0.00
   -8   16   18      0.43      0.00
   -7   16   18     -2.30      0.00
   -6   16   18     -0.90      0.00
   -5   16   18     -0.51      0.00
    0   10   19      1.92      0.00
  -10   11   19     -0.84      0.00
   -9   11   19      1.19      0.00
   -2   11   19      3.46      0.00
   -1   11   19      2.71      0.00
    0   11   19      3.75      0.00
  -11   12   19     -1.33      0.00
  -10   12   19      1.59      0.00
   -9   12   19      2.88      0.00
   -8   12   19      0.00      0.00
   -7   12   19     -1.55      0.00
   -6   12   19     -2.92      0.00
   -5   12   19      0.88      0.00
   -4   12   19      1.90      0.00
   -3   12   19      1.44      0.00
   -2   12   19      1.75      0.00
   -1   12   19      2.30      0.00
    0   12   19      2.98      0.00
  -12   13   19     -1.00      0.00
  -11   13   19     -0.05      0.00
  -10   13   19      2.72      0.00
   -9   13   19      1.70      0.00
   -8   13   19     -1.85      0.00
   -7   13   19     -3.20      0.00
   -6   13   19     -2.56      0.00
   -5   13   19      0.41      0.00
   -4   13   19      1.64      0.00
   -3   13   19      0.46      0.00
   -2   13   19      1.10      0.00
   -1   13   19      0.74      0.00
    0   13   19      1.09      0.00
  -12   14   19     -0.98      0.00
  -11   14   19      1.76      0.00
  -10   14   19      1.39      0.00
   -9   14   19      0.02      0.00
   -8   14   19     -4.24      0.00
   -7   14   19     -3.41      0.00
   -6   14   19     -2.74      0.00
   -5   14   19     -0.14      0.00
   -4   14   19      1.45      0.00
   -3   14   19     -0.36      0.00
   -2   14   19      0.01      0.00
   -9   15   19     -1.69      0.00
   -8   15   19     -3.20      0.00
   -7   15   19     -2.22      0.00
   -6   15   19     -0.78      0.00
   -8    9   20     -1.54      0.00
   -1    9   20     -0.33      0.00
    0    9   20     -2.65      0.00
   -9   10   20     -1.74      0.00
   -8   10   20     -2.78      0.00
   -7   10   20     -1.17      0.00
   -6   10   20     -0.74      0.00
   -5   10   20     -0.53      0.00
   -4   10   20     -0.85      0.00
   -3   10   20      0.01      0.00
   -2   10   20      0.08      0.00
   -1   10   20      0.40      0.00
    0   10   20      0.21      0.00
  -10   11   20     -0.26      0.00
   -9   11   20     -2.12      0.00
   -8   11   20     -0.58      0.00
   -7   11   20     -0.24      0.00
   -6   11   20      1.34      0.00
   -5   11   20     -0.08      0.00
   -4   11   20     -0.93      0.00
   -3   11   20     -0.26      0.00
   -2   11   20     -0.59      0.00
   -1   11   20      0.20      0.00
    0   11   20     -0.29      0.00
  -11   12   20      1.20      0.00
  -10   12   20      0.76      0.00
   -9   12   20      0.76      0.00
   -8   12   20     -0.14      0.00
   -7   12   20      0.87      0.00
   -6   12   20     -1.08      0.00
   -5   12   20     -0.40      0.00
   -4   12   20     -0.46      0.00
   -3   12   20     -0.59      0.00
   -2   12   20     -0.54      0.00
   -1   12   20      0.43      0.00
    0   12   20      0.21      0.00
  -10   13   20      0.19      0.00
   -9   13   20     -0.40      0.00
   -8   13   20     -0.84      0.00
   -7   13   20      0.08      0.00
   -6   13   20     -0.28      0.00
   -5   13   20     -0.03      0.00
   -4   13   20      0.38      0.00
   -3   13   20     -0.04      0.00
   -6    7   21      0.38      0.00
   -1    7   21     -1.42      0.00
    0    7   21     -2.42      0.00
   -7    8   21     -0.28      0.00
   -6    8   21     -0.44      0.00
   -5    8   21     -2.88      0.00
   -4    8   21     -3.38      0.00
   -3    8   21     -1.56      0.00
   -2    8   21     -2.24      0.00
   -1    8   21     -0.78      0.00
    0    8   21      0.17      0.00
   -8    9   21      2.27      0.00
   -7    9   21      0.07      0.00
   -6    9   21     -0.14      0.00
   -5    9   21     -3.11      0.00
   -4    9   21     -3.86      0.00
   -3    9   21     -0.97      0.00
   -2    9   21     -0.03      0.00
   -1    9   21      1.12      0.00
    0    9   21      1.78      0.00
   -9   10   21      0.24      0.00
   -8   10   21      0.77      0.00
   -7   10   21     -0.26      0.00
   -6   10   21     -1.60      0.00
   -5   10   21      0.08      0.00
   -4   10   21      0.55      0.00
   -3   10   21      1.74      0.00
   -2   10   21      1.10      0.00
   -1   10   21      1.45      0.00
    0   10   21      0.94      0.00
  -10   11   21     -0.26      0.00
   -9   11   21      0.59      0.00
   -8   11   21      0.91      0.00
   -7   11   21      0.52      0.00
   -6   11   21      0.36      0.00
   -5   11   21      1.67      0.00
   -4   11   21      1.27      0.00
   -3   11   21      1.15      0.00
   -2   11   21      0.79      0.00
   -1   11   21      0.26      0.00
   -9   12   21     -0.12      0.00
   -8   12   21      1.12      0.00
   -7   12   21     -0.08      0.00
   -6   12   21      0.07      0.00
   -5   12   21      1.48      0.00
   -4   12   21      1.17      0.00
   -3   12   21      0.57      0.00
   -3    4   22     -3.43      0.00
   -2    4   22     -2.16      0.00
   -1    4   22     -5.47      0.00
    0    4   22     -1.56      0.00
   -4    5   22     -1.42      0.00
   -3    5   22      0.39      0.00
   -2    5   22      0.26      0.00
   -1    5   22     -0.66      0.00
    0    5   22     -0.76      0.00
   -5    6   22      1.51      0.00
   -4    6   22      2.80      0.00
   -3    6   22      0.01      0.00
   -2    6   22      1.62      0.00
   -1    6   22     -1.11      0.00
    0    6   22      2.14      0.00
   -6    7   22      1.99      0.00
   -5    7   22      1.08      0.00
   -4    7   22      3.17      0.00
   -3    7   22      2.59      0.00
   -2    7   22      4.13      0.00
   -1    7   22      2.96      0.00
    0    7   22      2.09      0.00
   -7    8   22      1.24      0.00
   -6    8   22      1.91      0.00
   -5    8   22      2.00      0.00
   -4    8   22      2.69      0.00
   -3    8   22      0.68      0.00
   -2    8   22      0.68      0.00
   -1    8   22      2.73      0.00
    0    8   22      0.95      0.00
   -8    9   22      0.26      0.00
   -7    9   22     -0.58      0.00
   -6    9   22      1.60      0.00
   -5    9   22      0.04      0.00
   -4    9   22      0.83      0.00
   -3    9   22      0.35      0.00
   -2    9   22      0.30      0.00
   -1    9   22      1.96      0.00
    0    9   22     -0.10      0.00
   -8   10   22      0.24      0.00
   -7   10   22     -0.26      0.00
   -6   10   22      0.48      0.00
   -5   10   22     -0.80      0.00
   -4   10   22     -0.49      0.00
   -3   10   22     -0.14      0.00
   -2   10   22      0.50      0.00
    0    0    0      0.00      0.00
# SQUEEZE RESULTS (Version =  90616)
# Note: Data are Listed for all Voids in the P1 Unit Cell
# i.e. Centre of Gravity, Solvent Accessible Volume,
# Recovered number of Electrons in the Void and
# Details about the Squeezed Material
loop_
  _platon_squeeze_void_nr
  _platon_squeeze_void_average_x
  _platon_squeeze_void_average_y
  _platon_squeeze_void_average_z
  _platon_squeeze_void_volume
  _platon_squeeze_void_count_electrons
  _platon_squeeze_void_content
   1  0.000  0.000 -0.003      1064       315 ' '
   2  0.136  0.512  0.128        20         9 ' '
   3  0.136  0.512  0.372        20         9 ' '
   4  0.333  0.667  0.250        18         0 ' '
   5  0.377  0.864  0.128        19         9 ' '
   6  0.377  0.864  0.372        19         9 ' '
   7  0.488  0.623  0.128        20         9 ' '
   8  0.488  0.623  0.372        20        10 ' '
   9  0.512  0.377  0.628        19        10 ' '
  10  0.512  0.377  0.872        19         9 ' '
  11  0.623  0.136  0.628        20        10 ' '
  12  0.623  0.136  0.872        20         9 ' '
  13  0.666  0.333  0.750        18         0 ' '
  14  0.864  0.488  0.628        19         9 ' '
  15  0.864  0.488  0.872        19         9 ' '
# Missing Reflections Below sin(th)/lambda = 0.25
loop_
  _platon_missing_refln_index_h
  _platon_missing_refln_index_k
  _platon_missing_refln_index_l
  _platon_missing_refln_theta
    0    1    0     1.275
   -1    2    0     2.209
    0    2    0     2.551
   -3    4    0     4.603
   -2    5    0     5.567
   -5    8    0     8.963
    0    1    1     1.674
   -1    2    1     2.461
    0    2    1     2.772
    0    0    2     2.168
    0    1    2     2.515
    0    0    6     6.515
_platon_squeeze_void_probe_radius                  1.20
_platon_squeeze_details
)
TITL shelxl in P63/m #176
CELL   18.4380   18.4380   18.7920     90.00     90.00    120.00
SPGR P63/m
# Solvent Accessible Volume =      1335
# Note: Atoms in Void as Cxxx and Qxxx all others
C101 0.487 0.606 0.387 !       7.79 eA-3
Q102 0.344 0.125 0.257 !       4.93 eA-3
Q103 0.197 0.981 0.113 !       3.90 eA-3
Q104 0.767 0.156 0.249 !       2.18 eA-3
C105 0.881 0.750 0.249 !       1.50 eA-3
C106 0.132 0.987 0.863 !       1.43 eA-3
C107 0.183 0.117 0.178 !       1.24 eA-3
C108 0.960 0.857 0.185 !       1.16 eA-3
C109 0.097 0.142 0.009 !       1.15 eA-3
C110 0.954 0.869 0.012 !       0.98 eA-3
C111 0.995 0.122 0.960 !       0.98 eA-3
Q112 0.625 0.830 0.453 !       0.94 eA-3
C113 0.109 0.098 0.476 !       0.94 eA-3
Q114 0.465 0.516 0.251 !       0.93 eA-3
C115 0.069 0.172 0.747 !       0.92 eA-3
C116 0.034 0.130 0.470 !       0.91 eA-3
C117 0.112 0.929 0.396 !       0.91 eA-3
C118 0.832 0.907 0.744 !       0.89 eA-3
Q119 0.984 0.250 0.256 !       0.84 eA-3
Q120 0.163 0.562 0.825 !       0.80 eA-3
C121 0.980 0.906 0.254 !       0.79 eA-3
C122 0.916 0.998 0.297 !       0.79 eA-3
C123 0.975 0.876 0.090 !       0.76 eA-3
Q124 0.452 0.235 0.254 !       0.74 eA-3
C125 1.000 1.000 0.500 !       0.70 eA-3
Q126 0.420 0.264 0.389 !       0.69 eA-3
C127 1.000 1.008 0.673 !       0.67 eA-3
C128 0.072 0.105 0.534 !       0.66 eA-3
C129 0.037 0.896 0.124 !       0.66 eA-3
Q130 0.330 0.678 0.106 !       0.64 eA-3
C131 0.970 0.046 0.249 !       0.63 eA-3
Q132 0.331 0.606 0.382 !       0.62 eA-3
Q133 0.640 1.000 0.744 !       0.62 eA-3
Q134 0.530 0.797 0.252 !       0.61 eA-3
Q135 0.046 0.719 0.751 !       0.61 eA-3
Q136 0.076 0.595 0.975 !       0.61 eA-3
C137 0.066 0.086 0.061 !       0.59 eA-3
Q138 0.971 0.426 0.735 !       0.59 eA-3
C139 0.941 0.114 0.139 !       0.58 eA-3
C140 0.107 0.029 0.287 !       0.56 eA-3
C141 0.014 0.977 0.216 !       0.56 eA-3
Q142 0.390 0.421 0.939 !       0.56 eA-3
Q143 0.346 0.844 0.685 !       0.55 eA-3
Q144 0.879 0.156 0.753 !       0.54 eA-3
Q145 0.047 0.719 0.243 !       0.54 eA-3
C146 0.996 0.999 0.248 !       0.53 eA-3
Q147 0.232 0.769 0.531 !       0.52 eA-3
Q148 0.857 0.422 0.247 !       0.52 eA-3
C149 0.079 0.985 0.076 !       0.52 eA-3
C150 0.959 0.928 0.292 !       0.52 eA-3
C151 0.043 0.937 0.253 !       0.51 eA-3
Q152 0.769 0.188 0.746 !       0.51 eA-3
C153 0.135 0.037 0.084 !       0.51 eA-3
)
;
_shelx_shelxl_version_number     2014/7
_olex2_submission_special_instructions 'No special instructions were received'
loop_
_space_group_symop_operation_xyz
'x, y, z'
'x-y, x, z+1/2'
'-y, x-y, z'
'-x, -y, z+1/2'
'-x+y, -x, z'
'y, -x+y, z+1/2'
'-x, -y, -z'
'-x+y, -x, -z-1/2'
'y, -x+y, -z'
'x, y, -z-1/2'
'x-y, x, -z'
'-y, x-y, -z-1/2'
loop_
_atom_site_label
_atom_site_type_symbol
_atom_site_fract_x
_atom_site_fract_y
_atom_site_fract_z
_atom_site_U_iso_or_equiv
_atom_site_adp_type
_atom_site_occupancy
_atom_site_site_symmetry_order
_atom_site_calc_flag
_atom_site_refinement_flags_posn
_atom_site_refinement_flags_adp
_atom_site_refinement_flags_occupancy
_atom_site_disorder_assembly
_atom_site_disorder_group
Cu1 Cu 0.54316(3) 0.35806(3) 0.32706(2) 0.02829(17) Uani 1 1 d . . . . .
Cu2 Cu 0.60308(4) 0.54123(4) 0.2500 0.02839(19) Uani 1 2 d S T P . .
Cl1 Cl 0.6667 0.3333 0.37706(9) 0.0303(4) Uani 1 3 d S T P C .
O1 O 0.6059(2) 0.4361(2) 0.2500 0.0229(7) Uani 1 2 d DS T P C .
H1 H 0.6564(15) 0.452(3) 0.2500 0.033(16) Uiso 1 2 d DS T P . .
O3 O 0.4671(3) 0.4966(3) 0.2500 0.0694(16) Uani 1 2 d S T P B .
O5 O 0.0437(3) 0.3954(3) 0.2500 0.0521(12) Uani 1 2 d S T P . .
N1 N 0.57904(19) 0.46099(19) 0.38915(17) 0.0298(7) Uani 1 1 d . . . . .
N2 N 0.6131(2) 0.53812(18) 0.35735(17) 0.0317(7) Uani 1 1 d . . . . .
N3 N 0.6217(2) 0.5564(2) 0.47178(18) 0.0376(8) Uani 1 1 d . . . . .
N4 N 0.8198(2) 0.5400(2) 0.39600(17) 0.0325(7) Uani 1 1 d . . . . .
N17 N 0.8079(2) 0.6017(2) 0.49091(19) 0.0437(9) Uani 1 1 d . . . . .
C1 C 0.5848(3) 0.4739(3) 0.4579(2) 0.0386(10) Uani 1 1 d . . . . .
H1A H 0.5660 0.4321 0.4922 0.046 Uiso 1 1 calc R . . . .
C2 C 0.6383(3) 0.5937(3) 0.4076(2) 0.0403(10) Uani 1 1 d . . . . .
H2 H 0.6643 0.6512 0.4003 0.048 Uiso 1 1 calc R . . . .
C3 C 0.6366(3) 0.5958(3) 0.5429(2) 0.0515(12) Uani 1 1 d . . . . .
H3A H 0.6141 0.5522 0.5788 0.062 Uiso 1 1 calc R . . . .
H3B H 0.6066 0.6264 0.5462 0.062 Uiso 1 1 calc R . . . .
C4 C 0.7283(3) 0.6550(3) 0.5585(2) 0.0506(12) Uani 1 1 d . . . . .
H4A H 0.7325 0.6828 0.6035 0.061 Uiso 1 1 calc R . . . .
H4B H 0.7507 0.6978 0.5219 0.061 Uiso 1 1 calc R . . . .
C5 C 0.7827(4) 0.6146(4) 0.5625(2) 0.0618(14) Uani 1 1 d . . . . .
H5A H 0.8324 0.6499 0.5904 0.074 Uiso 1 1 calc R . . . .
H5B H 0.7519 0.5610 0.5866 0.074 Uiso 1 1 calc R . . . .
C6 C 0.7872(3) 0.5288(3) 0.4601(2) 0.0395(10) Uani 1 1 d . . . . .
H6 H 0.7541 0.4768 0.4812 0.047 Uiso 1 1 calc R . . . .
C7 C 0.8551(3) 0.6628(3) 0.4440(3) 0.0534(12) Uani 1 1 d . . . . .
H7 H 0.8780 0.7201 0.4509 0.064 Uiso 1 1 calc R . . . .
C8 C 0.8627(3) 0.6250(3) 0.3851(3) 0.0464(11) Uani 1 1 d . . . . .
H8 H 0.8920 0.6520 0.3441 0.056 Uiso 1 1 calc R . . . .
C9 C 0.4114(3) 0.4222(3) 0.2500 0.0323(12) Uani 1 2 d S T P . .
C10 C 0.3203(3) 0.4048(4) 0.2500 0.0333(12) Uani 1 2 d S T P B .
C11 C 0.3009(4) 0.4677(4) 0.2500 0.0384(14) Uani 1 2 d S T P . .
H11 H 0.3436 0.5233 0.2500 0.046 Uiso 1 2 calc RS T P B .
C12 C 0.2557(4) 0.3217(4) 0.2500 0.0408(14) Uani 1 2 d S T P . .
H12 H 0.2684 0.2788 0.2500 0.049 Uiso 1 2 calc RS T P B .
C13 C 0.2175(4) 0.4484(4) 0.2500 0.0424(15) Uani 1 2 d S T P B .
H13 H 0.2051 0.4914 0.2500 0.051 Uiso 1 2 calc RS T P . .
C14 C 0.1724(4) 0.3021(4) 0.2500 0.0437(15) Uani 1 2 d S T P B .
H14 H 0.1296 0.2465 0.2500 0.052 Uiso 1 2 calc RS T P . .
C15 C 0.1535(4) 0.3664(4) 0.2500 0.0419(15) Uani 1 2 d S T P . .
H2A H 0.4568(13) 0.250(3) 0.2500 0.039(17) Uiso 1 2 d DS T P A 2
O4 O 0.4184(10) 0.3609(10) 0.2500 0.037(4) Uani 0.5 2 d S TU P B 1
O6 O 0.0163(4) 0.2796(5) 0.1980(5) 0.079(2) Uani 0.5 1 d . . . B 1
C16 C 0.0643(5) 0.3459(5) 0.2326(4) 0.043(3) Uani 0.5 1 d . . . B 1
O2 O 0.5100(2) 0.2755(2) 0.2500 0.0257(8) Uani 1 2 d DS T P C 2
O4A O 0.4242(10) 0.3714(11) 0.2168(8) 0.039(4) Uani 0.25 1 d . . . B 2
O7 O 0.3218(4) 0.5976(3) 0.0912(4) 0.139(2) Uani 1 1 d . . . . .
N5 N 0.3333 0.6667 0.0941(4) 0.0515(17) Uani 1 3 d S T P . .
loop_
_atom_site_aniso_label
_atom_site_aniso_U_11
_atom_site_aniso_U_22
_atom_site_aniso_U_33
_atom_site_aniso_U_23
_atom_site_aniso_U_13
_atom_site_aniso_U_12
Cu1 0.0303(3) 0.0208(3) 0.0332(3) 0.00028(18) 0.00543(19) 0.0125(2)
Cu2 0.0309(4) 0.0204(3) 0.0388(4) 0.000 0.000 0.0166(3)
Cl1 0.0230(5) 0.0230(5) 0.0448(9) 0.000 0.000 0.0115(2)
O1 0.0164(18) 0.0193(17) 0.0363(19) 0.000 0.000 0.0113(15)
O3 0.026(2) 0.050(3) 0.136(5) 0.000 0.000 0.022(2)
O5 0.028(2) 0.063(3) 0.079(3) 0.000 0.000 0.034(2)
N1 0.0280(17) 0.0258(17) 0.0385(18) -0.0001(14) 0.0020(14) 0.0155(14)
N2 0.0330(18) 0.0219(16) 0.0415(19) -0.0011(14) -0.0026(15) 0.0147(14)
N3 0.040(2) 0.0299(18) 0.0399(19) -0.0104(15) -0.0006(16) 0.0152(16)
N4 0.0299(17) 0.0302(18) 0.0385(18) -0.0035(15) -0.0042(15) 0.0159(15)
N17 0.051(2) 0.044(2) 0.044(2) -0.0125(17) -0.0080(18) 0.0296(19)
C1 0.046(2) 0.031(2) 0.035(2) -0.0001(18) 0.0024(19) 0.017(2)
C2 0.045(3) 0.028(2) 0.049(3) -0.0069(19) -0.004(2) 0.019(2)
C3 0.056(3) 0.047(3) 0.043(2) -0.016(2) 0.004(2) 0.019(2)
C4 0.067(3) 0.054(3) 0.042(2) -0.020(2) -0.008(2) 0.039(3)
C5 0.081(4) 0.077(4) 0.045(3) -0.024(3) -0.013(3) 0.053(3)
C6 0.046(3) 0.032(2) 0.045(2) -0.0011(19) -0.002(2) 0.023(2)
C7 0.049(3) 0.031(2) 0.081(3) -0.014(2) -0.003(3) 0.020(2)
C8 0.040(2) 0.034(2) 0.060(3) 0.002(2) 0.007(2) 0.014(2)
C9 0.029(3) 0.029(3) 0.039(3) 0.000 0.000 0.014(3)
C10 0.029(3) 0.041(3) 0.037(3) 0.000 0.000 0.023(3)
C11 0.026(3) 0.040(3) 0.052(3) 0.000 0.000 0.018(3)
C12 0.031(3) 0.047(4) 0.053(4) 0.000 0.000 0.026(3)
C13 0.035(3) 0.046(4) 0.059(4) 0.000 0.000 0.031(3)
C14 0.030(3) 0.038(3) 0.062(4) 0.000 0.000 0.016(3)
C15 0.028(3) 0.049(4) 0.059(4) 0.000 0.000 0.027(3)
O4 0.027(6) 0.044(6) 0.045(8) 0.000 0.000 0.021(5)
O6 0.039(4) 0.061(5) 0.139(7) -0.025(5) -0.038(4) 0.028(4)
C16 0.034(4) 0.054(5) 0.050(9) -0.001(4) -0.006(4) 0.030(4)
O2 0.0196(19) 0.0210(18) 0.0381(19) 0.000 0.000 0.0113(16)
O4A 0.021(7) 0.044(8) 0.052(12) 0.013(9) 0.023(8) 0.016(6)
O7 0.163(6) 0.084(4) 0.180(6) -0.010(4) -0.054(4) 0.069(4)
N5 0.043(2) 0.043(2) 0.069(5) 0.000 0.000 0.0215(12)
loop_
_atom_type_symbol
_atom_type_description
_atom_type_scat_dispersion_real
_atom_type_scat_dispersion_imag
_atom_type_scat_source
C C 0.0033 0.0016 'International Tables Vol C Tables 4.2.6.8 and 6.1.1.4'
H H 0.0000 0.0000 'International Tables Vol C Tables 4.2.6.8 and 6.1.1.4'
Cl Cl 0.1484 0.1585 'International Tables Vol C Tables 4.2.6.8 and 6.1.1.4'
Cu Cu 0.3201 1.2651 'International Tables Vol C Tables 4.2.6.8 and 6.1.1.4'
N N 0.0061 0.0033 'International Tables Vol C Tables 4.2.6.8 and 6.1.1.4'
O O 0.0106 0.0060 'International Tables Vol C Tables 4.2.6.8 and 6.1.1.4'
loop_
_geom_angle_atom_site_label_1
_geom_angle_atom_site_label_2
_geom_angle_atom_site_label_3
_geom_angle
_geom_angle_site_symmetry_1
_geom_angle_site_symmetry_3
Cl1 Cu1 Cu1 110.33(3) . 10_556
O1 Cu1 Cu1 42.37(7) . 10_556
O1 Cu1 Cl1 98.22(10) . .
O1 Cu1 N1 86.65(12) . .
O1 Cu1 N4 168.22(13) . 3_655
O1 Cu1 O2 82.25(11) . .
N1 Cu1 Cu1 124.97(9) . 10_556
N1 Cu1 Cl1 92.83(9) . .
N4 Cu1 Cu1 131.02(9) 3_655 10_556
N4 Cu1 Cl1 93.45(10) 3_655 .
N4 Cu1 N1 94.40(13) 3_655 .
O2 Cu1 Cu1 42.49(7) . 10_556
O2 Cu1 Cl1 95.03(10) . .
O2 Cu1 N1 167.20(12) . .
O2 Cu1 N4 95.19(12) . 3_655
O1 Cu2 O3 102.56(16) . .
O1 Cu2 N2 85.67(9) . 10_556
O1 Cu2 N2 85.68(9) . .
O5 Cu2 O1 177.98(17) 3_665 .
O5 Cu2 O3 79.46(19) 3_665 .
O5 Cu2 N2 94.17(9) 3_665 10_556
O5 Cu2 N2 94.17(9) 3_665 .
N2 Cu2 O3 95.24(9) 10_556 .
N2 Cu2 O3 95.24(9) . .
N2 Cu2 N2 167.64(18) . 10_556
Cu1 Cl1 Cu1 108.60(4) 5_665 .
Cu1 Cl1 Cu1 108.60(4) 3_655 .
Cu1 Cl1 Cu1 108.60(4) 3_655 5_665
Cu1 O1 Cu1 95.25(14) 10_556 .
Cu1 O1 Cu2 115.31(11) . .
Cu1 O1 Cu2 115.31(11) 10_556 .
Cu1 O1 H1 114(2) 10_556 .
Cu1 O1 H1 114(2) . .
Cu2 O1 H1 104(4) . .
C9 O3 Cu2 124.7(4) . .
C16 O5 Cu2 135.0(5) . 8_566
C16 O5 Cu2 135.0(5) 10_556 8_566
C16 O5 C16 31.7(8) . 10_556
N2 N1 Cu1 118.9(2) . .
C1 N1 Cu1 134.0(3) . .
C1 N1 N2 106.7(3) . .
N1 N2 Cu2 117.5(2) . .
C2 N2 Cu2 134.7(3) . .
C2 N2 N1 107.4(3) . .
C1 N3 C2 105.1(3) . .
C1 N3 C3 126.6(4) . .
C2 N3 C3 128.2(4) . .
C6 N4 Cu1 129.8(3) . 5_665
C6 N4 C8 105.8(3) . .
C8 N4 Cu1 124.4(3) . 5_665
C6 N17 C5 127.0(4) . .
C6 N17 C7 107.4(4) . .
C7 N17 C5 125.6(4) . .
N1 C1 N3 110.3(4) . .
N1 C1 H1A 124.8 . .
N3 C1 H1A 124.8 . .
N2 C2 N3 110.4(4) . .
N2 C2 H2 124.8 . .
N3 C2 H2 124.8 . .
N3 C3 H3A 108.9 . .
N3 C3 H3B 108.9 . .
N3 C3 C4 113.3(4) . .
H3A C3 H3B 107.7 . .
C4 C3 H3A 108.9 . .
C4 C3 H3B 108.9 . .
C3 C4 H4A 108.4 . .
C3 C4 H4B 108.4 . .
C3 C4 C5 115.3(4) . .
H4A C4 H4B 107.5 . .
C5 C4 H4A 108.4 . .
C5 C4 H4B 108.4 . .
N17 C5 C4 111.7(4) . .
N17 C5 H5A 109.3 . .
N17 C5 H5B 109.3 . .
C4 C5 H5A 109.3 . .
C4 C5 H5B 109.3 . .
H5A C5 H5B 107.9 . .
N4 C6 N17 111.2(4) . .
N4 C6 H6 124.4 . .
N17 C6 H6 124.4 . .
N17 C7 H7 126.5 . .
N17 C7 C8 107.1(4) . .
C8 C7 H7 126.5 . .
N4 C8 H8 125.7 . .
C7 C8 N4 108.5(4) . .
C7 C8 H8 125.7 . .
O3 C9 C10 116.4(5) . .
O3 C9 O4A 118.2(8) . 10_556
O3 C9 O4A 118.2(8) . .
O4 C9 O3 128.7(9) . .
O4 C9 C10 114.9(9) . .
O4A C9 C10 116.1(9) . .
O4A C9 C10 116.1(9) 10_556 .
O4A C9 O4A 60.3(14) 10_556 .
C11 C10 C9 122.6(5) . .
C11 C10 C12 119.2(5) . .
C12 C10 C9 118.2(5) . .
C10 C11 H11 119.9 . .
C10 C11 C13 120.3(6) . .
C13 C11 H11 119.9 . .
C10 C12 H12 119.6 . .
C14 C12 C10 120.7(6) . .
C14 C12 H12 119.6 . .
C11 C13 H13 119.6 . .
C15 C13 C11 120.8(6) . .
C15 C13 H13 119.6 . .
C12 C14 H14 120.2 . .
C15 C14 C12 119.6(6) . .
C15 C14 H14 120.2 . .
C13 C15 C14 119.5(5) . .
C13 C15 C16 119.9(6) . .
C13 C15 C16 119.9(6) . 10_556
C14 C15 C16 119.1(6) . .
C14 C15 C16 119.1(6) . 10_556
C16 C15 C16 24.7(6) 10_556 .
C16 O6 C16 19.3(5) . 10_556
O5 C16 C15 117.8(7) . .
O5 C16 O6 95.1(6) . 10_556
O5 C16 O6 122.6(7) . .
C15 C16 O6 97.1(5) . 10_556
O6 C16 C15 119.6(7) . .
O6 C16 O6 80.8(8) . 10_556
C16 C16 O5 74.2(4) 10_556 .
C16 C16 C15 77.6(3) 10_556 .
C16 C16 O6 40.0(4) 10_556 10_556
C16 C16 O6 120.8(6) 10_556 .
Cu1 O2 Cu1 95.02(15) . 10_556
Cu1 O2 H2A 105(3) 10_556 .
Cu1 O2 H2A 105(3) . .
C9 O4A O4A 59.9(7) . 10_556
O7 N5 O7 119.79(9) 5_565 .
O7 N5 O7 119.79(9) 3_665 .
O7 N5 O7 119.80(9) 5_565 3_665
loop_
_geom_bond_atom_site_label_1
_geom_bond_atom_site_label_2
_geom_bond_distance
_geom_bond_site_symmetry_2
Cu1 Cu1 2.8960(11) 10_556
Cu1 Cl1 2.7046(9) .
Cu1 O1 1.960(2) .
Cu1 N1 2.036(3) .
Cu1 N4 1.974(3) 3_655
Cu1 O2 1.964(2) .
Cu2 O1 1.964(3) .
Cu2 O3 2.214(4) .
Cu2 O5 1.960(4) 3_665
Cu2 N2 2.029(3) 10_556
Cu2 N2 2.029(3) .
Cl1 Cu1 2.7046(9) 3_655
Cl1 Cu1 2.7046(9) 5_665
O1 Cu1 1.960(2) 10_556
O1 H1 0.83(2) .
O3 C9 1.236(7) .
O5 Cu2 1.960(4) 8_566
O5 C16 1.198(9) 10_556
O5 C16 1.198(9) .
N1 N2 1.371(4) .
N1 C1 1.308(5) .
N2 C2 1.297(5) .
N3 C1 1.344(5) .
N3 C2 1.346(5) .
N3 C3 1.480(5) .
N4 Cu1 1.974(3) 5_665
N4 C6 1.316(5) .
N4 C8 1.373(5) .
N17 C5 1.482(6) .
N17 C6 1.331(5) .
N17 C7 1.350(6) .
C1 H1A 0.9300 .
C2 H2 0.9300 .
C3 H3A 0.9700 .
C3 H3B 0.9700 .
C3 C4 1.513(7) .
C4 H4A 0.9700 .
C4 H4B 0.9700 .
C4 C5 1.522(6) .
C5 H5A 0.9700 .
C5 H5B 0.9700 .
C6 H6 0.9300 .
C7 H7 0.9300 .
C7 C8 1.352(6) .
C8 H8 0.9300 .
C9 C10 1.544(7) .
C9 O4 1.200(17) .
C9 O4A 1.244(18) 10_556
C9 O4A 1.244(18) .
C10 C11 1.374(8) .
C10 C12 1.393(8) .
C11 H11 0.9300 .
C11 C13 1.394(8) .
C12 H12 0.9300 .
C12 C14 1.392(8) .
C13 H13 0.9300 .
C13 C15 1.377(9) .
C14 H14 0.9300 .
C14 C15 1.392(8) .
C15 C16 1.527(9) .
C15 C16 1.526(9) 10_556
O6 C16 1.701(11) 10_556
O6 C16 1.271(10) .
C16 O6 1.701(11) 10_556
C16 C16 0.654(16) 10_556
O2 Cu1 1.964(2) 10_556
O2 H2A 0.85(2) .
O4A O4A 1.25(3) 10_556
O7 N5 1.183(5) .
N5 O7 1.183(5) 5_565
N5 O7 1.183(5) 3_665
loop_
_geom_torsion_atom_site_label_1
_geom_torsion_atom_site_label_2
_geom_torsion_atom_site_label_3
_geom_torsion_atom_site_label_4
_geom_torsion
_geom_torsion_site_symmetry_1
_geom_torsion_site_symmetry_4
Cu1 N1 N2 Cu2 12.3(3) . .
Cu1 N1 N2 C2 -173.7(3) . .
Cu1 N1 C1 N3 172.6(3) . .
Cu1 N4 C6 N17 177.3(3) 5_665 .
Cu1 N4 C8 C7 -177.7(3) 5_665 .
Cu2 O3 C9 C10 180.0 . .
Cu2 O3 C9 O4 0.0 . .
Cu2 O3 C9 O4A -34.7(9) . .
Cu2 O3 C9 O4A 34.7(9) . 10_556
Cu2 O5 C16 C15 -172.8(2) 8_566 .
Cu2 O5 C16 O6 -72.1(6) 8_566 10_556
Cu2 O5 C16 O6 10.2(12) 8_566 .
Cu2 O5 C16 C16 -106.5(5) 8_566 10_556
Cu2 N2 C2 N3 172.0(3) . .
O3 C9 C10 C11 0.0 . .
O3 C9 C10 C12 180.0 . .
O3 C9 O4A O4A 108.1(8) . 10_556
N1 N2 C2 N3 -0.5(5) . .
N2 N1 C1 N3 -0.5(5) . .
N3 C3 C4 C5 -64.3(6) . .
N17 C7 C8 N4 0.0(5) . .
C1 N1 N2 Cu2 -173.4(3) . .
C1 N1 N2 C2 0.6(4) . .
C1 N3 C2 N2 0.2(5) . .
C1 N3 C3 C4 120.1(5) . .
C2 N3 C1 N1 0.2(5) . .
C2 N3 C3 C4 -63.1(6) . .
C3 N3 C1 N1 177.6(4) . .
C3 N3 C2 N2 -177.1(4) . .
C3 C4 C5 N17 81.5(6) . .
C5 N17 C6 N4 179.5(4) . .
C5 N17 C7 C8 -179.1(4) . .
C6 N4 C8 C7 0.5(5) . .
C6 N17 C5 C4 -115.9(5) . .
C6 N17 C7 C8 -0.5(5) . .
C7 N17 C5 C4 62.4(6) . .
C7 N17 C6 N4 0.9(5) . .
C8 N4 C6 N17 -0.9(5) . .
C9 C10 C11 C13 180.0 . .
C9 C10 C12 C14 180.0 . .
C10 C9 O4A O4A -106.5(6) . 10_556
C10 C11 C13 C15 0.0 . .
C10 C12 C14 C15 0.0 . .
C11 C10 C12 C14 0.0 . .
C11 C13 C15 C14 0.0 . .
C11 C13 C15 C16 165.7(4) . 10_556
C11 C13 C15 C16 -165.7(4) . .
C12 C10 C11 C13 0.0 . .
C12 C14 C15 C13 0.0 . .
C12 C14 C15 C16 165.8(4) . .
C12 C14 C15 C16 -165.8(4) . 10_556
C13 C15 C16 O5 -32.8(8) . .
C13 C15 C16 O6 -132.4(4) . 10_556
C13 C15 C16 O6 144.2(7) . .
C13 C15 C16 C16 -97.2(2) . 10_556
C14 C15 C16 O5 161.4(5) . .
C14 C15 C16 O6 61.9(5) . 10_556
C14 C15 C16 O6 -21.5(9) . .
C14 C15 C16 C16 97.0(2) . 10_556
O4 C9 C10 C11 180.0 . .
O4 C9 C10 C12 0.0 . .
C16 O5 C16 C15 -66.3(7) 10_556 .
C16 O5 C16 O6 116.7(8) 10_556 .
C16 O5 C16 O6 34.4(5) 10_556 10_556
C16 C15 C16 O5 64.4(7) 10_556 .
C16 C15 C16 O6 -35.1(5) 10_556 10_556
C16 C15 C16 O6 -118.5(7) 10_556 .
C16 O6 C16 O5 -90.2(8) 10_556 .
C16 O6 C16 C15 92.9(7) 10_556 .
C16 O6 C16 O6 0.001(5) 10_556 10_556
O4A C9 C10 C11 -146.0(8) . .
O4A C9 C10 C11 146.0(8) 10_556 .
O4A C9 C10 C12 34.0(8) . .
O4A C9 C10 C12 -34.0(8) 10_556 .
