#------------------------------------------------------------------------------
#$Date: 2019-11-17 09:56:39 +0200 (Sun, 17 Nov 2019) $
#$Revision: 229221 $
#$URL: file:///home/coder/svn-repositories/cod/cif/7/04/63/7046334.cif $
#------------------------------------------------------------------------------
#
# This file is available in the Crystallography Open Database (COD),
# http://www.crystallography.net/
#
# All data on this site have been placed in the public domain by the
# contributors.
#
data_7046334
loop_
_publ_author_name
'Cui, Zheng'
'Zhou, Lei'
'Qin, Bowen'
'Zhou, Baolei'
'Zhang, Xiaoying'
'Li, Wenliang'
'Zhang, Jingping'
_publ_section_title
;
 Selective chiral symmetry breaking and luminescence sensing of a Zn(ii)
 metal-organic framework.
;
_journal_issue                   24
_journal_name_full
'Dalton transactions (Cambridge, England : 2003)'
_journal_page_first              7934
_journal_page_last               7940
_journal_paper_doi               10.1039/c8dt00939b
_journal_volume                  47
_journal_year                    2018
_chemical_formula_moiety
'[(CH3)2NH2]10[Zn3(Zn3O)2(C27H12N6O12)4] 18(CH3)2NCHO 31H2O'
_chemical_formula_sum            'C108 H48 N24 O50 Zn9'
_chemical_formula_weight         3070.21
_space_group_crystal_system      cubic
_space_group_IT_number           210
_space_group_name_Hall           'F 4d 2 3'
_space_group_name_H-M_alt        'F 41 3 2'
_symmetry_space_group_name_Hall  'F 4d 2 3'
_symmetry_space_group_name_H-M   'F 41 3 2'
_atom_sites_solution_hydrogens   geom
_atom_sites_solution_primary     direct
_atom_sites_solution_secondary   difmap
_audit_creation_method           SHELXL-2014/7
_audit_update_record
;
2018-05-04 deposited with the CCDC.
2018-05-11 downloaded from the CCDC.
;
_cell_angle_alpha                90
_cell_angle_beta                 90
_cell_angle_gamma                90
_cell_formula_units_Z            16
_cell_length_a                   45.1476(7)
_cell_length_b                   45.1476(7)
_cell_length_c                   45.1476(7)
_cell_measurement_reflns_used    9921
_cell_measurement_temperature    173(2)
_cell_measurement_theta_max      22.3755
_cell_measurement_theta_min      2.344
_cell_volume                     92025(2)
_computing_cell_refinement       SMART
_computing_data_collection       'SMART (Bruker, 1997)'
_computing_data_reduction        'SAINT (Bruker, 1999)'
_computing_molecular_graphics    'Diamond (Brandenburg and Putz, 2008)'
_computing_publication_material  'SHELXL-2014/7 (Sheldrick, 2014)'
_computing_structure_refinement  'SHELXL-2014/7 (Sheldrick, 2014)'
_computing_structure_solution    'SHELXS-2014/7 (Sheldrick, 2014)'
_diffrn_ambient_temperature      173(2)
_diffrn_measured_fraction_theta_full 0.994
_diffrn_measured_fraction_theta_max 0.994
_diffrn_measurement_device_type  'Bruker APEX CCD area-detector'
_diffrn_measurement_method       '\w scan'
_diffrn_radiation_type           MoK\a
_diffrn_radiation_wavelength     0.71073
_diffrn_reflns_av_R_equivalents  0.0425
_diffrn_reflns_av_unetI/netI     0.0471
_diffrn_reflns_Laue_measured_fraction_full 0.994
_diffrn_reflns_Laue_measured_fraction_max 0.994
_diffrn_reflns_limit_h_max       53
_diffrn_reflns_limit_h_min       -53
_diffrn_reflns_limit_k_max       53
_diffrn_reflns_limit_k_min       -53
_diffrn_reflns_limit_l_max       53
_diffrn_reflns_limit_l_min       -53
_diffrn_reflns_number            42855
_diffrn_reflns_point_group_measured_fraction_full 0.997
_diffrn_reflns_point_group_measured_fraction_max 0.997
_diffrn_reflns_theta_full        25.024
_diffrn_reflns_theta_max         25.024
_diffrn_reflns_theta_min         2.210
_diffrn_source                   'fine-focus sealed tube'
_exptl_absorpt_coefficient_mu    0.976
_exptl_absorpt_correction_T_max  0.783
_exptl_absorpt_correction_T_min  0.761
_exptl_absorpt_correction_type   multi-scan
_exptl_crystal_colour            Colourless
_exptl_crystal_density_diffrn    0.886
_exptl_crystal_density_method    'not measured'
_exptl_crystal_description       Octahedral
_exptl_crystal_F_000             24544.0
_exptl_crystal_preparation       Luminescent
_exptl_crystal_recrystallization_method Solvothermal
_exptl_crystal_size_max          0.29
_exptl_crystal_size_mid          0.27
_exptl_crystal_size_min          0.25
_refine_diff_density_max         0.801
_refine_diff_density_min         -0.448
_refine_diff_density_rms         0.058
_refine_ls_abs_structure_details
;
 Refined as an inversion twin.
;
_refine_ls_abs_structure_Flack   0.23(4)
_refine_ls_extinction_method     none
_refine_ls_goodness_of_fit_ref   1.138
_refine_ls_hydrogen_treatment    constr
_refine_ls_matrix_type           full
_refine_ls_number_parameters     265
_refine_ls_number_reflns         6774
_refine_ls_number_restraints     340
_refine_ls_restrained_S_all      1.130
_refine_ls_R_factor_all          0.1165
_refine_ls_R_factor_gt           0.0842
_refine_ls_shift/su_max          0.001
_refine_ls_shift/su_mean         0.000
_refine_ls_structure_factor_coef Fsqd
_refine_ls_weighting_details
'w=1/[\s^2^(Fo^2^)+(0.2000P)^2^] where P=(Fo^2^+2Fc^2^)/3'
_refine_ls_weighting_scheme      calc
_refine_ls_wR_factor_gt          0.2704
_refine_ls_wR_factor_ref         0.3152
_reflns_Friedel_coverage         0.733
_reflns_Friedel_fraction_full    1.000
_reflns_Friedel_fraction_max     1.000
_reflns_number_gt                4234
_reflns_number_total             6790
_reflns_threshold_expression     'I > 2\s(I)'
_cod_data_source_file            c8dt00939b2.cif
_cod_data_source_block           1P
_cod_depositor_comments
'Adding full bibliography for 7046334--7046335.cif.'
_cod_original_cell_volume        92025(4)
_cod_database_code               7046334
_shelx_shelxl_version_number     2014/7
_shelx_space_group_comment
;
The symmetry employed for this shelxl refinement is uniquely defined
by the following loop, which should always be used as a source of
symmetry information in preference to the above space-group names.
They are only intended as comments.
;
_shelx_estimated_absorpt_t_min   0.761
_shelx_estimated_absorpt_t_max   0.783
_shelx_res_file
;

    f4132_sq.res created by SHELXL-2014/7


TITL F4132 in F4(1)32
CELL  0.71073  45.1476  45.1476  45.1476   90.000   90.000   90.000
ZERR  1148.00   0.0007   0.0007   0.0007    0.000    0.000    0.000
LATT -4
SYMM  - X, 1/2 - Y, 1/2 + Z
SYMM  1/2 - X, 1/2 + Y, - Z
SYMM  1/2 + X, - Y, 1/2 - Z
SYMM    Z,   X,   Y
SYMM  1/2 + Z, - X, 1/2 - Y
SYMM  - Z, 1/2 - X, 1/2 + Y
SYMM  1/2 - Z, 1/2 + X, - Y
SYMM    Y,   Z,   X
SYMM  1/2 - Y, 1/2 + Z, - X
SYMM  1/2 + Y, - Z, 1/2 - X
SYMM  - Y, 1/2 - Z, 1/2 + X
SYMM  3/4 + Y, 1/4 + X, 3/4 - Z
SYMM  1/4 - Y, 1/4 - X, 1/4 - Z
SYMM  1/4 + Y, 3/4 - X, 3/4 + Z
SYMM  3/4 - Y, 3/4 + X, 1/4 + Z
SYMM  3/4 + X, 1/4 + Z, 3/4 - Y
SYMM  3/4 - X, 3/4 + Z, 1/4 + Y
SYMM  1/4 - X, 1/4 - Z, 1/4 - Y
SYMM  1/4 + X, 3/4 - Z, 3/4 + Y
SYMM  3/4 + Z, 1/4 + Y, 3/4 - X
SYMM  1/4 + Z, 3/4 - Y, 3/4 + X
SYMM  3/4 - Z, 3/4 + Y, 1/4 + X
SYMM  1/4 - Z, 1/4 - Y, 1/4 - X
SFAC C  H  N  O  Zn
UNIT 1148 1148 1148 1148 1148
MERG 2
L.S. 6
ACTA
TWIN
BOND
FMAP 2
PLAN 5
EQIV $6   z+1/2, x, y-1/2
EQIV $7   y-1/2, -z+1, -x+1/2
SADI 0.02 C4 C8 C6 C9 C13 C17 C15 C18
SADI 0.10 C8 O1 C8 O2 C9 O3 C9 O4 C17 O5 C17 O6 C18 O7 C18 O8
SADI 0.04 C1 N1 C1 N1_$6 C1 N2 C2 N2 C10 N3 C10 N3_$7 C10 N4 C11 N4
DELU
SIMU
TEMP  -100.15
ABIN
WGHT    0.200000
BASF   0.22843
FVAR       0.02164
MOLE 1
ZN1   5    0.500000    0.500000    0.232555    10.50000    0.14846    0.18283 =
         0.06877    0.00000    0.00000   -0.00504
ZN2   5    0.397104    0.660888    0.125499    11.00000    0.15977    0.13815 =
         0.14728   -0.03191    0.02798    0.05474
C1    1    0.558899    0.593712    0.093455    11.00000    0.16246    0.08982 =
         0.10225   -0.00363    0.04307    0.01778
AFIX  66
C2    1    0.514542    0.597760    0.127004    11.00000    0.12982    0.11946 =
         0.12146    0.00853    0.03606    0.02355
C3    1    0.486033    0.609366    0.126316    11.00000    0.13252    0.13165 =
         0.10664   -0.00171    0.03315    0.04554
AFIX  43
H3    2    0.480678    0.623238    0.111428    11.00000   -1.20000
AFIX  65
C4    1    0.465361    0.600675    0.147412    11.00000    0.13501    0.11435 =
         0.10724   -0.01863    0.03688    0.02785
C5    1    0.473197    0.580378    0.169195    11.00000    0.11985    0.17398 =
         0.10500   -0.00368    0.01426   -0.00132
AFIX  43
H5    2    0.459068    0.574438    0.183613    11.00000   -1.20000
AFIX  65
C6    1    0.501705    0.568772    0.169883    11.00000    0.12826    0.19485 =
         0.06553    0.00546    0.00533    0.00162
C7    1    0.522377    0.577463    0.148788    11.00000    0.11343    0.13077 =
         0.09709   -0.00843    0.01146    0.00107
AFIX  43
H7    2    0.541861    0.569530    0.149259    11.00000   -1.20000
AFIX   0
C8    1    0.436242    0.613782    0.147637    11.00000    0.12182    0.14809 =
         0.11848   -0.02235    0.00717    0.01098
C9    1    0.511672    0.546381    0.191182    11.00000    0.14252    0.16416 =
         0.07166   -0.01483   -0.00409    0.00091
C10   1    0.354385    0.820670    0.181383    11.00000    0.09398    0.13119 =
         0.11469   -0.01940   -0.01062    0.01589
AFIX  66
C11   1    0.396602    0.786525    0.189937    11.00000    0.09851    0.15021 =
         0.09017   -0.01797   -0.00934    0.02683
C12   1    0.423930    0.787126    0.204104    11.00000    0.11627    0.17749 =
         0.12378   -0.02591   -0.03644    0.03567
AFIX  43
H12   2    0.429030    0.803391    0.216441    11.00000   -1.20000
AFIX  65
C13   1    0.443797    0.763929    0.200219    11.00000    0.10662    0.15833 =
         0.16120    0.00031   -0.03132    0.03427
C14   1    0.436336    0.740130    0.182168    11.00000    0.08793    0.13834 =
         0.12332    0.02331    0.00630    0.03629
AFIX  43
H14   2    0.449914    0.724276    0.179513    11.00000   -1.20000
AFIX  65
C15   1    0.409007    0.739529    0.168001    11.00000    0.09637    0.12588 =
         0.10064    0.00539    0.01504    0.02830
C16   1    0.389140    0.762726    0.171885    11.00000    0.09118    0.16008 =
         0.09636   -0.03383   -0.01007    0.05406
AFIX  43
H16   2    0.370463    0.762314    0.162203    11.00000   -1.20000
AFIX   0
C17   1    0.471911    0.763673    0.217515    11.00000    0.17504    0.19552 =
         0.24047   -0.04972   -0.09453    0.08683
C18   1    0.399813    0.714585    0.149504    11.00000    0.11349    0.16444 =
         0.09906   -0.02377    0.00431    0.07012
N1    3    0.569553    0.606067    0.068590    11.00000    0.12732    0.09389 =
         0.14119    0.02641    0.02087    0.00742
N2    3    0.533124    0.606487    0.103829    11.00000    0.14081    0.14473 =
         0.11442    0.01095    0.04278    0.03851
AFIX  43
H2    2    0.527534    0.622604    0.094400    11.00000   -1.20000
AFIX   0
N3    3    0.341432    0.843810    0.194712    11.00000    0.11630    0.09685 =
         0.16743   -0.00905   -0.05103    0.01586
N4    3    0.379173    0.809232    0.195037    11.00000    0.12136    0.14778 =
         0.14918   -0.06472   -0.05008    0.03567
AFIX  43
H4    2    0.384532    0.819471    0.210733    11.00000   -1.20000
AFIX   0
O1    4    0.430497    0.631556    0.125895    11.00000    0.15955    0.14852 =
         0.15262   -0.00453    0.05976    0.07455
O2    4    0.417319    0.603221    0.167024    11.00000    0.13937    0.14319 =
         0.16290   -0.02516    0.05382    0.00587
O3    4    0.488576    0.532900    0.206967    11.00000    0.15178    0.16572 =
         0.09693    0.01509    0.00090    0.01408
O4    4    0.535427    0.538508    0.194050    11.00000    0.15138    0.18635 =
         0.09069    0.01537    0.00153    0.00987
O5    4    0.476579    0.786835    0.234598    11.00000    0.17186    0.18424 =
         0.17973   -0.00630   -0.07616    0.03067
O6    4    0.489578    0.745492    0.216116    11.00000    0.10710    0.28487 =
         0.23087   -0.09181   -0.07273    0.07731
O7    4    0.416934    0.691126    0.150976    11.00000    0.12099    0.13677 =
         0.15806   -0.02410    0.01472    0.06305
O8    4    0.376117    0.713663    0.134366    11.00000    0.14189    0.13975 =
         0.17132   -0.06254   -0.03372    0.05296
O9    4    0.361808    0.638192    0.138192    10.33333    0.15880    0.15880 =
         0.15880   -0.04273    0.04273    0.04273
HKLF    4

REM  F4132 in F4(1)32
REM R1 =  0.0842 for    4234 Fo > 4sig(Fo)  and  0.1165 for all    6774 data
REM    265 parameters refined using    340 restraints

END

WGHT      0.1690    104.5226

REM Highest difference peak  0.801,  deepest hole -0.448,  1-sigma level  0.058
Q1    1   0.3872  0.6559  0.1222  11.00000  0.05    0.61
Q2    1   0.3847  0.6511  0.1222  11.00000  0.05    0.58
Q3    1   0.3504  0.6496  0.1496  10.33333  0.05    0.44
Q4    1   0.4102  0.6189  0.1181  11.00000  0.05    0.39
Q5    1   0.5004  0.7285  0.2057  11.00000  0.05    0.22
;
_shelx_res_checksum              45437
_shelx_fab_file
;
    3    3    3     91.92    106.93
    2    2    4   2675.28     -2.12
    2    4    4     -1.13   2295.34
    1    3    5    525.33   -457.16
    3    3    5   -200.33    206.87
    1    5    5    124.78   -121.12
    3    5    5   -117.90   -102.77
    0    2    6   -192.18      6.91
    2    4    6   -433.23     -1.57
    0    4    6    116.75     -3.07
    0    6    6   2387.38    -12.09
    2    6    6     -3.50    519.70
    4    6    6    -26.65    -12.32
    6    6    6     -6.16    138.09
    1    1    7   -200.05    -71.20
    1    3    7    901.28    512.40
    3    3    7    100.47     97.72
    3    5    7   -181.54   -240.51
    1    5    7   -178.52     -6.36
    5    5    7    -22.93    -50.05
    1    7    7   -190.54    196.34
    3    7    7    183.47    183.97
    5    7    7   -170.28    185.37
    7    7    7     15.53      0.88
    0    2    8    123.38     -1.25
    2    2    8    350.74     -4.65
    0    4    8   -201.10     -1.98
    4    6    8   -365.14    -21.91
    2    6    8    267.06   -141.55
    0    6    8   -291.15      1.88
    0    8    8   -246.27     -9.18
    6    8    8     10.33   -656.94
    1    1    9     12.08    -17.42
    1    3    9   -175.63    218.82
    3    3    9   -114.38    142.59
    3    5    9    173.95   -297.74
    1    5    9    202.96     58.51
    5    5    9    -47.07     25.20
    5    7    9    -70.76     15.88
    3    7    9    132.16     28.72
    1    7    9    -38.32    217.43
    7    7    9    -18.77     17.55
    1    9    9    -72.93     81.00
    3    9    9      4.55     -2.57
    5    9    9    101.40    -92.19
    7    9    9     39.02     52.61
    9    9    9   -106.54    109.30
    0    2   10   -356.20      2.53
    2    2   10      3.85   -202.01
    2    4   10     63.94   -140.40
    0    4   10     59.19      2.57
    4    4   10     -5.58   -215.67
    4    6   10    231.27    193.20
    2    6   10    259.04    113.55
    0    6   10    567.36     10.13
    6    8   10    292.34   -114.32
    4    8   10   -158.38    343.63
    2    8   10    268.47    -42.93
    0    8   10    -71.60     -4.55
    8    8   10     -1.44    -58.31
    0   10   10   -154.94      1.97
    2   10   10     11.75     84.03
    4   10   10   -143.23     -4.07
    6   10   10     -4.63   -102.32
    8   10   10     25.60     -1.92
   10   10   10      6.48   -631.18
    1    1   11    207.31    192.58
    1    3   11     30.41    138.36
    3    3   11    -55.81    -19.64
    3    5   11    240.86    298.11
    1    5   11     16.50    -50.51
    5    5   11      4.73     -2.17
    5    7   11    -89.35    185.35
    3    7   11   -353.25    151.99
    1    7   11   -240.41     44.42
    7    7   11    -74.85    -74.37
    7    9   11   -314.30    -17.16
    5    9   11    -93.53    105.65
    3    9   11     12.07    -82.29
    1    9   11    -47.68    154.33
    9    9   11    186.99    175.97
    1   11   11    -14.63     15.55
    3   11   11    156.94    154.78
    5   11   11     82.75    -80.98
    7   11   11    -48.59    -45.83
    9   11   11    133.08   -124.68
   11   11   11    -26.51    -41.82
    0    2   12    348.50     -7.16
    2    2   12   -363.32      6.44
    2    4   12      8.80    -93.74
    0    4   12    173.70      0.99
    4    4   12     87.20    -16.18
    4    6   12    -21.93      9.17
    2    6   12   -143.75    -35.19
    0    6   12    110.76     -0.38
    6    6   12    392.08     -3.63
    6    8   12   -109.05    -42.87
    4    8   12     65.26     79.62
    2    8   12    -47.51    111.77
    0    8   12   -205.95      9.75
    8    8   12    109.87      1.50
    8   10   12    -61.81   -104.22
    6   10   12    203.71    191.97
    4   10   12     54.68    172.25
    2   10   12    -82.96    134.33
    0   10   12    -56.84      9.41
   10   10   12    122.31      7.98
    0   12   12    304.38    -16.12
    2   12   12     -8.53    140.77
    4   12   12   -105.49    -15.63
    6   12   12     -2.96    -75.68
    8   12   12     65.12      4.65
   10   12   12     -2.55    198.39
   12   12   12    -70.60     -7.01
    1    1   13    -10.79     30.19
    1    3   13   -151.06    -48.51
    3    3   13     35.28    -51.64
    3    5   13    -10.30     -3.61
    1    5   13     87.43    103.39
    5    5   13    -89.96     85.33
    5    7   13     20.69   -124.92
    3    7   13     80.60   -120.07
    1    7   13   -115.81    101.34
    7    7   13    138.22   -133.65
    7    9   13    -50.56    -42.05
    5    9   13   -273.33    -84.51
    3    9   13    -87.67    -37.90
    1    9   13    -15.77     74.85
    9    9   13   -147.63    143.21
    9   11   13    -35.41     51.70
    7   11   13    -44.63    -85.96
    5   11   13     33.67     92.20
    3   11   13    -34.33    125.99
    1   11   13   -114.42      7.64
   11   11   13     63.78    -64.70
    1   13   13    -25.02     21.72
    3   13   13     40.29     32.02
    5   13   13     24.32    -40.55
    7   13   13    123.88     92.73
    9   13   13    -11.25     13.05
   11   13   13    -81.76    -90.60
   13   13   13     23.73    -26.00
    0    2   14     75.93    -70.17
    2    2   14      1.48     58.36
    2    4   14    -28.98     -2.17
    0    4   14   -265.77      1.99
    4    4   14     -0.39     -2.92
    4    6   14    183.63   -130.13
    2    6   14    111.14    116.85
    0    6   14    -63.96    -10.50
    6    6   14      7.75    260.07
    6    8   14    -17.86     -2.81
    4    8   14      7.47   -155.20
    2    8   14    106.16     59.92
    0    8   14   -155.03     -5.82
    8    8   14     -1.40    -25.74
    8   10   14    -14.70    -80.40
    6   10   14    -63.72    119.89
    4   10   14    -56.99   -184.90
    2   10   14     62.30    -97.54
    0   10   14    -61.65     -0.78
   10   10   14      3.36     52.18
   10   12   14     28.45     22.99
    8   12   14    203.53    -32.47
    6   12   14    -18.13     68.95
    4   12   14     83.58   -119.08
    2   12   14    139.10      9.39
    0   12   14    108.82     -3.22
   12   12   14      2.47     54.24
    0   14   14    134.70    -11.22
    2   14   14      7.11   -170.74
    4   14   14    -32.35     -0.08
    6   14   14     -1.89    -21.30
    8   14   14     41.99    -14.35
   10   14   14      3.63    -58.64
   12   14   14     96.07      5.70
   14   14   14     -9.72     24.68
    1    1   15      0.47      3.86
    1    3   15     29.10    -23.41
    3    3   15    -79.27    -86.32
    3    5   15     22.38     98.93
    1    5   15    -20.38    134.80
    5    5   15    -80.41    -77.50
    5    7   15    105.47     45.92
    3    7   15    -34.27     37.06
    1    7   15     14.35    -56.42
    7    7   15    200.49    210.07
    7    9   15   -120.94   -117.43
    5    9   15    -55.86     69.89
    3    9   15    -31.72     60.40
    1    9   15    -31.86    -91.40
    9    9   15      9.69      7.97
    9   11   15     39.63    -16.19
    7   11   15     45.65      8.34
    5   11   15    -50.81   -246.20
    3   11   15     92.60     27.81
    1   11   15   -108.63     30.69
   11   11   15    -94.44    -92.71
   11   13   15   -190.88     33.79
    9   13   15    -20.07   -161.42
    7   13   15     20.41    -27.77
    5   13   15    135.39    -17.69
    3   13   15     28.05     88.07
    1   13   15     41.91   -119.80
   13   13   15     11.56     10.15
    1   15   15     27.17    -36.75
    3   15   15    -70.66    -74.83
    5   15   15    -11.05      4.34
    7   15   15    -18.58    -15.49
    9   15   15    -32.91     24.82
   11   15   15     -8.80    -21.42
   13   15   15    -16.13     14.71
   15   15   15    -68.66    -60.46
    0    0   16    152.07     14.79
    0    2   16    120.97      5.99
    2    2   16    401.43     -2.88
    2    4   16    104.93    223.09
    0    4   16    -63.22      6.00
    4    4   16   -121.93    -36.75
    4    6   16    -82.46     80.87
    2    6   16     16.47     87.17
    0    6   16     58.94     -0.27
    6    6   16    156.83      2.34
    6    8   16    -29.01    -19.84
    4    8   16     85.70    152.01
    2    8   16    -29.00     27.22
    0    8   16    -83.03     64.47
    8    8   16    136.91     -1.25
    8   10   16   -216.39    -50.40
    6   10   16     84.22   -123.11
    4   10   16     61.11    -36.79
    2   10   16    -93.84     72.63
    0   10   16   -141.83     -0.93
   10   10   16   -141.03     -0.85
   10   12   16     -1.39    -48.03
    8   12   16     19.17     27.21
    6   12   16    -79.65      0.23
    4   12   16      5.17     32.28
    2   12   16     75.46     -6.65
    0   12   16     58.42      2.98
   12   12   16     48.06     -8.28
   12   14   16     95.54     17.42
   10   14   16     40.43      0.80
    8   14   16     52.46     38.07
    6   14   16     27.75    -83.98
    4   14   16    199.93      2.55
    2   14   16     67.40      9.55
    0   14   16    147.65     -3.53
   14   14   16   -117.92     -4.71
    0   16   16     66.24     10.12
    2   16   16      0.44     30.85
    4   16   16     60.89     -7.69
    6   16   16      3.24     -2.49
    8   16   16    -33.45      3.25
   10   16   16      7.65   -106.94
   12   16   16    -67.51    -10.02
   14   16   16     -9.62    -31.17
   16   16   16     10.84    -10.67
    1    1   17     96.30    -98.10
    1    3   17    133.30   -102.93
    3    3   17    -70.45     65.55
    1    5   17    -76.59   -108.79
    3    5   17   -234.13    124.05
    5    5   17    -46.00     45.58
    5    7   17    -11.61    -84.95
    3    7   17    -60.04     58.81
    1    7   17    -46.65     79.68
    7    7   17     71.35    -69.30
    7    9   17     51.72   -184.03
    5    9   17    128.55     62.32
    3    9   17    126.18    107.99
    1    9   17    157.69    -23.05
    9    9   17    127.87   -122.19
    9   11   17     30.33     17.03
    7   11   17    -28.87     18.96
    5   11   17    125.97     29.84
    3   11   17   -119.90     12.04
    1   11   17    100.62    -81.22
   11   11   17    -16.49      7.29
   11   13   17     -6.97    -24.81
    9   13   17   -105.21    -79.17
    7   13   17     57.58     -6.28
    5   13   17     51.58     14.71
    3   13   17    -86.26     90.93
    1   13   17    105.27     10.64
   13   13   17     14.89    -16.01
   13   15   17      5.58     50.33
   11   15   17    -16.25     97.02
    9   15   17     56.91    -78.80
    7   15   17     40.55     34.19
    5   15   17     46.98      2.51
    3   15   17     18.44     24.85
    1   15   17     10.95     54.99
   15   15   17     31.45    -29.02
    1   17   17      5.27     -5.21
    3   17   17   -137.32   -130.79
    5   17   17   -108.77    108.06
    7   17   17      3.25      4.51
    9   17   17    -39.58     43.12
   11   17   17      4.90      3.88
   13   17   17     51.34    -49.88
   15   17   17    -13.66    -19.64
   17   17   17   -104.84    118.49
    0    2   18     -5.92     -5.90
    2    2   18    -13.34    183.25
    2    4   18     22.24      9.09
    0    4   18     45.61     -0.84
    4    4   18     10.68    263.02
    4    6   18    100.70    -63.03
    2    6   18    153.24     25.96
    0    6   18    -62.17     -3.41
    6    6   18     -3.04    -12.01
    6    8   18    -62.03    -52.61
    4    8   18    120.88    195.23
    2    8   18    194.66     12.03
    0    8   18     69.11     -0.60
    8    8   18     -1.66    121.27
    8   10   18     86.75    142.44
    6   10   18    -36.38     58.15
    4   10   18     63.47    -55.98
    2   10   18     64.79     -7.42
    0   10   18      3.72     11.81
   10   10   18     -5.20    -34.45
   10   12   18     36.44    -15.58
    8   12   18    -39.56    -64.69
    6   12   18    -34.68    -44.57
    4   12   18    -27.17    -50.33
    2   12   18   -145.57      5.91
    0   12   18    -13.01      3.82
   12   12   18      2.01    -58.76
   12   14   18    -45.29    -76.93
   10   14   18    110.58      0.34
    8   14   18     54.34    -19.97
    6   14   18    -55.38      6.20
    4   14   18     44.58     25.19
    2   14   18     33.08    -88.99
    0   14   18     68.07     -2.43
   14   14   18      0.48    -76.53
   14   16   18    -13.57     -9.25
   12   16   18     68.19    -40.99
   10   16   18     94.37    -63.31
    8   16   18     33.77    -47.98
    6   16   18    102.11     49.09
    4   16   18    -18.73     59.08
    2   16   18     18.21     16.61
    0   16   18     66.72      0.15
   16   16   18     -6.73     91.99
    0   18   18    -39.68      1.79
    2   18   18      1.08     91.92
    4   18   18     65.05      6.39
    6   18   18     -2.89     58.39
    8   18   18    -28.05     -1.54
   10   18   18      9.05    -29.39
   12   18   18    -54.18     -7.08
   14   18   18     -0.16     42.58
   16   18   18     38.91    -14.47
   18   18   18    -12.10    -60.96
    1    1   19    -18.52     -9.31
    1    3   19     50.52    -28.58
    3    3   19    -32.95    -27.91
    3    5   19     12.39     80.10
    1    5   19    -20.99    -20.45
    5    5   19      3.36      1.92
    5    7   19   -117.23     -9.49
    3    7   19     69.48     13.80
    1    7   19     -1.62     73.86
    7    7   19     42.79     36.15
    7    9   19    -30.91    -11.31
    5    9   19     25.83     35.92
    3    9   19    -36.25    -81.19
    1    9   19    -34.16    112.19
    9    9   19    -10.93      7.08
    9   11   19    -55.77     -0.12
    7   11   19     34.57   -106.09
    5   11   19   -113.49    -83.19
    3   11   19     38.99    -80.72
    1   11   19     -5.92    138.88
   11   11   19    -57.80    -60.20
   11   13   19     90.82    -30.85
    9   13   19    -27.25    -34.74
    7   13   19      5.08     39.07
    5   13   19    -92.14     -8.85
    3   13   19     64.07    -83.68
    1   13   19     16.29    -18.40
   13   13   19     27.65     24.41
   13   15   19     66.66    -44.19
   11   15   19    -74.15     52.42
    9   15   19     37.71     -5.90
    7   15   19     47.34    143.59
    5   15   19     -5.59    -54.78
    3   15   19     -2.54      5.39
    1   15   19     50.74    -26.44
   15   15   19    -42.67    -48.68
   15   17   19     59.23    -10.42
   13   17   19    -23.42    -31.63
   11   17   19    108.03    -17.09
    9   17   19    -30.56      4.61
    7   17   19     17.20    -64.06
    5   17   19     32.31     82.11
    3   17   19    -20.11     28.37
    1   17   19     41.59     -3.25
   17   17   19    -17.73    -13.85
    1   19   19    -42.80     45.80
    3   19   19     -9.23    -11.08
    5   19   19     -7.70      7.58
    7   19   19     24.75     26.76
    9   19   19      9.03     -4.62
   11   19   19    -85.76    -88.04
   13   19   19    -13.89     14.59
   15   19   19     14.94      3.45
   17   19   19     23.18    -18.78
   19   19   19    -39.07    -55.49
    0    0   20    138.85    -10.13
    0    2   20    -40.44      1.60
    2    2   20     10.77      3.89
    2    4   20    -70.46    126.23
    0    4   20    -73.04     10.14
    4    4   20    -54.72     -0.44
    4    6   20   -134.08     67.64
    2    6   20    -62.44     49.67
    0    6   20    -22.71      5.32
    6    6   20   -181.80     -6.70
    6    8   20     47.15     18.09
    4    8   20      9.97    115.25
    2    8   20    -26.14     47.68
    0    8   20     26.10      7.95
    8    8   20     63.50     -0.09
    8   10   20     26.09     79.38
    6   10   20     32.40    -71.56
    4   10   20     79.31    -29.18
    2   10   20      0.89     19.88
    0   10   20     87.78     -5.10
   10   10   20     94.22     -1.23
   10   12   20    -22.24     -6.32
    8   12   20     58.46    -24.77
    6   12   20     -1.87     79.26
    4   12   20     43.41     -3.20
    2   12   20     48.41    -16.90
    0   12   20      7.96    -10.45
   12   12   20    -48.09     -4.15
   12   14   20    -13.97    -33.78
   10   14   20     12.72     43.46
    8   14   20     21.69      8.28
    6   14   20    -49.68     82.18
    4   14   20     68.63    -25.56
    2   14   20     70.11     15.86
    0   14   20     -0.74     -1.48
   14   14   20      3.14    -58.61
   14   16   20     57.43     20.99
   12   16   20     16.99     83.99
   10   16   20    -76.41    -34.21
    8   16   20     14.70    -22.25
    6   16   20     35.05      0.20
    4   16   20     21.84     15.83
    2   16   20    -81.68    -30.06
    0   16   20    -96.76      2.33
   16   16   20    -44.32     -0.70
   16   18   20     -3.82    -18.10
   14   18   20      0.11     -0.66
   12   18   20      2.31      5.88
   10   18   20      8.35     27.62
    8   18   20    -18.72    -26.42
    6   18   20    -24.99    -31.26
    4   18   20    -35.35     14.90
    2   18   20      4.44    -11.70
    0   18   20    -32.82     -2.24
   18   18   20     95.34      0.29
    0   20   20     46.67      2.28
    2   20   20     -1.62    -80.26
    4   20   20    -10.99     -5.00
    6   20   20      4.40    -55.77
    8   20   20    -14.71     -2.42
   10   20   20      4.32     16.35
   12   20   20     24.03     -0.10
   14   20   20      1.54    -13.58
   16   20   20    -35.28     -6.41
   18   20   20      3.82     28.35
   20   20   20    -15.86     -4.26
    1    1   21    -66.53     76.60
    1    3   21    -56.43    -16.40
    3    3   21    -16.25     14.23
    3    5   21      9.99     61.47
    1    5   21    -15.60     40.78
    5    5   21     25.00    -51.34
    5    7   21      2.18     -5.91
    3    7   21    -23.45    -35.97
    1    7   21     32.61     51.16
    7    7   21     69.04    -38.06
    7    9   21    -90.63     36.84
    5    9   21     23.21    -56.74
    3    9   21    174.25    -41.16
    1    9   21     67.79     29.42
    9    9   21     17.11    -13.63
    9   11   21    -42.72     19.85
    7   11   21    -76.83      8.83
    5   11   21     -7.78     12.25
    3   11   21   -115.18    -62.06
    1   11   21     78.68     -5.03
   11   11   21     21.63    -24.87
   11   13   21    -79.00    -14.92
    9   13   21    -32.14     42.39
    7   13   21    -69.76     10.61
    5   13   21    -39.97    -24.75
    3   13   21      6.56     30.95
    1   13   21   -125.67     10.21
   13   13   21    -37.30     28.72
   13   15   21    -54.35    -17.35
   11   15   21    -12.69     17.52
    9   15   21    -10.95     -8.99
    7   15   21     25.29    -27.04
    5   15   21    -53.27      1.44
    3   15   21     15.98      8.04
    1   15   21    -71.25    -26.84
   15   15   21     49.08    -38.46
   15   17   21    -59.81      5.69
   13   17   21    143.79   -124.73
   11   17   21    -68.89    -41.02
    9   17   21     89.42      1.91
    7   17   21    -39.10     51.54
    5   17   21     20.55    -59.57
    3   17   21    -57.44     40.00
    1   17   21    -16.84     -6.35
   17   17   21     16.87    -12.30
   17   19   21      5.67      7.01
   15   19   21     21.21    -36.51
   13   19   21    -42.07     32.10
   11   19   21    101.76    -40.92
    9   19   21     -6.13     54.92
    7   19   21     -4.18    -55.71
    5   19   21      8.40     21.73
    3   19   21    -25.57     -1.83
    1   19   21     16.48    -77.44
   19   19   21      5.87     -3.05
    1   21   21      1.26      2.31
    3   21   21     30.38     32.49
    5   21   21     10.38    -11.40
    7   21   21      9.31     10.54
    9   21   21    -53.09     52.50
   11   21   21      0.94     -0.62
   13   21   21    -22.29     16.48
   15   21   21     -7.96     -2.92
   17   21   21      6.79     -9.08
   19   21   21     -8.85     -8.22
   21   21   21     32.67    -23.38
    0    2   22    -75.78     24.63
    2    2   22     -3.05     48.68
    2    4   22   -121.80     46.82
    0    4   22    103.97     -2.09
    4    4   22     -1.05     70.44
    4    6   22     47.51     22.23
    2    6   22    -35.68     27.93
    0    6   22    100.24      2.07
    6    6   22      1.25     25.22
    6    8   22     27.15    -46.19
    4    8   22    -51.96     46.42
    2    8   22   -103.95     30.39
    0    8   22     -0.34      8.55
    8    8   22      1.63    -43.12
    8   10   22    -56.04    -39.32
    6   10   22     14.09     22.56
    4   10   22    -32.14     13.64
    2   10   22    -19.07     19.03
    0   10   22    120.04     32.85
   10   10   22      1.29     -3.10
   10   12   22    -22.71    -18.39
    8   12   22     -4.58    -83.69
    6   12   22     28.41      9.52
    4   12   22     -4.53     53.11
    2   12   22    -13.25    -30.52
    0   12   22    -13.27     -2.45
   12   12   22     -0.41    -95.38
   12   14   22      3.86      0.40
   10   14   22     11.40     -0.38
    8   14   22    -22.24    -16.14
    6   14   22     35.55    -78.67
    4   14   22    -61.48     66.75
    2   14   22    -21.67    -92.78
    0   14   22      3.14      3.50
   14   14   22      3.86     94.35
   14   16   22    -40.81     -6.30
   12   16   22     52.84     22.01
   10   16   22    -82.74    -25.49
    8   16   22     74.21    -10.89
    6   16   22     68.80     28.07
    4   16   22    -35.82     42.46
    2   16   22     64.30    -26.18
    0   16   22     85.91      2.78
   16   16   22     -2.22      6.70
   16   18   22     25.30     -4.10
   14   18   22      3.95      6.07
   12   18   22     41.89      8.01
   10   18   22    -23.43     30.29
    8   18   22    -36.27    -72.19
    6   18   22     56.30      3.91
    4   18   22    -11.71      4.16
    2   18   22    -20.76    -34.69
    0   18   22      5.58     -7.01
   18   18   22      4.54     10.24
   18   20   22    -42.18     32.38
   16   20   22    -39.67      2.25
   14   20   22     15.63      2.83
   12   20   22      2.74     28.06
   10   20   22    -31.35     85.32
    8   20   22    -44.47     28.89
    6   20   22    -93.77     43.59
    4   20   22    -67.66    -38.10
    2   20   22    -18.98     -0.95
    0   20   22     -4.69      2.32
   20   20   22     -2.10     13.38
    0   22   22      6.37      1.57
    2   22   22      1.37     18.27
    4   22   22     12.55      1.05
    6   22   22     -8.57    -37.10
    8   22   22    -13.70     -1.48
   10   22   22      1.66    -76.34
   12   22   22     33.00      2.48
   14   22   22      0.33     -1.42
   16   22   22      0.76      2.54
   18   22   22     -2.77     -1.06
   20   22   22     58.03      0.87
   22   22   22      3.71    -48.51
    1    1   23     51.30     55.03
    1    3   23     33.53    -27.83
    3    3   23     32.28     40.06
    3    5   23     28.20     77.14
    1    5   23     22.70    -19.64
    5    5   23     19.29     14.80
    5    7   23     39.76    -57.85
    3    7   23    -20.38      7.63
    1    7   23    -29.45     21.54
    7    7   23    -33.02    -24.55
    7    9   23    -66.16     42.52
    5    9   23     59.71    -24.46
    3    9   23     20.93      6.41
    1    9   23     55.14      8.31
    9    9   23     31.77     30.33
    9   11   23    100.27    -34.88
    7   11   23      4.16     -5.59
    5   11   23    -42.90    -20.67
    3   11   23     60.05    113.93
    1   11   23     78.23     -5.06
   11   11   23     29.52     32.33
   11   13   23     33.37    -74.10
    9   13   23    -56.96    -14.02
    7   13   23    -48.60     -6.83
    5   13   23    -46.54     -8.99
    3   13   23    -32.40     11.15
    1   13   23    -64.18     -6.53
   13   13   23    -87.15    -89.78
   13   15   23    -50.98    -12.04
   11   15   23    -72.17    -35.28
    9   15   23     -6.38    -78.37
    7   15   23    -86.59     26.37
    5   15   23    -38.10     55.92
    3   15   23    -25.91     -2.21
    1   15   23    -32.00     63.16
   15   15   23    -16.62      7.41
   15   17   23    -33.40    -23.04
   13   17   23   -127.51    -11.01
   11   17   23     33.68      3.25
    9   17   23    -78.67      6.42
    7   17   23    -26.46      8.24
    5   17   23     45.62     24.64
    3   17   23     49.02    -22.33
    1   17   23     -3.11      7.58
   17   17   23    -31.48    -33.77
   17   19   23     40.52    -21.40
   15   19   23    -64.09     73.44
   13   19   23      0.53    -15.99
   11   19   23     37.40      3.20
    9   19   23    -35.30    -59.52
    7   19   23    -21.70     -2.15
    5   19   23     24.20     23.94
    3   19   23    -51.86     39.57
    1   19   23     -2.89     17.31
   19   19   23      5.85     11.67
   19   21   23      7.18     10.08
   17   21   23     15.21     -6.44
   15   21   23     -4.86      2.27
   13   21   23    -59.30     -4.71
   11   21   23      3.31    -42.16
    9   21   23     12.42     -2.57
    7   21   23     -9.30     69.24
    5   21   23    -82.33     -4.91
    3   21   23     40.20     12.66
    1   21   23    -58.76     33.50
   21   21   23     -1.93     -4.43
    1   23   23     -6.65      4.58
    3   23   23    -24.03    -24.37
    5   23   23     18.87    -16.40
    7   23   23    -25.61    -20.37
    9   23   23      2.53     -4.55
   11   23   23      5.37      5.32
   13   23   23     22.94    -22.12
   15   23   23     35.09     24.97
   17   23   23     15.59    -16.89
   19   23   23    -20.58    -13.47
   21   23   23    -16.60     15.02
   23   23   23     14.33     15.89
    0    0   24    115.39    -18.81
    0    2   24    -90.50     -3.28
    2    2   24    -19.29     13.24
    2    4   24    -33.30    132.06
    0    4   24     17.37     -1.29
    4    4   24     22.81      2.06
    4    6   24    -16.24    -25.21
    2    6   24     13.60     -8.73
    0    6   24     21.08     -1.54
    6    6   24     17.95     -6.07
    6    8   24   -102.40      8.52
    4    8   24    -32.80     30.47
    2    8   24    -63.54     14.32
    0    8   24    -19.01     -2.53
    8    8   24     73.08      2.48
    8   10   24     -8.60    -54.40
    6   10   24     43.21     15.88
    4   10   24    -35.28    -10.46
    2   10   24     11.15     37.83
    0   10   24    -20.44     -0.27
   10   10   24    -47.99      8.63
   10   12   24      6.89    -59.64
    8   12   24    -24.92     17.12
    6   12   24     34.80     -5.31
    4   12   24    -33.68     17.07
    2   12   24     70.33     60.92
    0   12   24    -42.25      3.54
   12   12   24    -90.80     -4.14
   12   14   24     -2.90     14.33
   10   14   24    -10.99    -30.51
    8   14   24    -17.79     31.57
    6   14   24    -58.04      0.27
    4   14   24    -96.28    -22.94
    2   14   24      8.60     55.81
    0   14   24    -23.38     -2.56
   14   14   24     24.04     -0.25
   14   16   24     33.07    -51.34
   12   16   24     23.93     29.57
   10   16   24     17.62    -48.58
    8   16   24    -12.10     -5.93
    6   16   24     39.52     10.43
    4   16   24     52.34    -26.07
    2   16   24     15.52     39.08
    0   16   24    -19.75     -3.52
   16   16   24     58.04     -8.41
   16   18   24     46.03      6.40
   14   18   24      9.37      9.49
   12   18   24     54.81     22.15
   10   18   24     -9.46     -5.53
    8   18   24     63.56    -12.87
    6   18   24     51.55     16.67
    4   18   24    -28.97     32.39
    2   18   24    -24.96    -47.01
    0   18   24    114.42     -0.74
   18   18   24    -81.29      5.76
   18   20   24    -24.03     -1.30
   16   20   24    -12.19     27.09
   14   20   24     14.64    -13.03
   12   20   24     39.99    -14.35
   10   20   24      5.03      9.72
    8   20   24    -24.32     -4.84
    6   20   24     22.73      5.27
    4   20   24    -39.59    -10.15
    2   20   24    -11.64    -54.73
    0   20   24    -31.86     -3.91
   20   20   24     18.86     -5.27
   20   22   24     10.17     -1.09
   18   22   24    -50.81     30.83
   16   22   24    -21.68    -49.77
   14   22   24     -6.71      6.86
   12   22   24    -11.53      5.51
   10   22   24     30.98     33.44
    8   22   24    -14.40    -53.50
    6   22   24     16.95     11.90
    4   22   24    -23.87     11.49
    2   22   24      0.25     23.31
    0   22   24     -5.07      2.18
   22   22   24     -6.86     -0.14
    0   24   24    -43.92      2.59
    2   24   24     -5.38     10.26
    4   24   24     49.18      6.15
    6   24   24      1.78     17.39
    8   24   24      3.78      1.83
   10   24   24      0.98    -35.92
   12   24   24    -82.57     -0.27
   14   24   24     -1.72     12.22
   16   24   24    -24.09      4.90
   18   24   24      5.36    -23.87
   20   24   24     19.92     -2.73
   22   24   24     -2.81     -9.46
   24   24   24    -83.56      0.93
    1    1   25    -20.00     19.32
    1    3   25     -0.67     33.95
    3    3   25     12.78    -24.81
    3    5   25     55.69    -69.29
    1    5   25     11.13     -0.40
    5    5   25     28.59    -32.61
    5    7   25    -36.46     80.99
    3    7   25     44.05      8.47
    1    7   25    128.75     35.02
    7    7   25     14.91    -15.47
    7    9   25     18.61    -30.39
    5    9   25    -41.19    -28.83
    3    9   25    -42.34     30.24
    1    9   25   -138.69      1.73
    9    9   25    -11.93     25.16
    9   11   25     17.46     18.02
    7   11   25      1.61    -28.55
    5   11   25    -38.11     11.95
    3   11   25     23.76     24.85
    1   11   25     58.02    -42.38
   11   11   25    -32.74     16.47
   11   13   25    -17.77     56.15
    9   13   25    -45.07     -0.14
    7   13   25    -12.89    -25.89
    5   13   25     85.72     38.52
    3   13   25      9.24     66.27
    1   13   25    -50.54    -48.92
   13   13   25     -5.50      1.21
   13   15   25    -33.97     22.13
   11   15   25     -2.51    -31.47
    9   15   25    -65.05    -62.31
    7   15   25     15.49     64.65
    5   15   25   -102.19    -31.60
    3   15   25     37.83      2.04
    1   15   25    -70.00     41.50
   15   15   25      8.94    -11.58
   15   17   25    -28.80    -32.82
   13   17   25     -4.01    -68.53
   11   17   25    -15.42     26.58
    9   17   25    -14.28    -16.40
    7   17   25      2.87     29.81
    5   17   25      6.95      3.44
    3   17   25    -33.42    -30.12
    1   17   25      2.05    -10.93
   17   17   25    -21.04     17.52
   17   19   25      5.52     16.13
   15   19   25    -17.10    -66.39
   13   19   25    -34.31     -7.09
   11   19   25     12.91    -14.81
    9   19   25    -71.06     22.39
    7   19   25    -29.53     14.73
    5   19   25    -71.89     -9.16
    3   19   25     25.05     27.96
    1   19   25    -13.36     -1.19
   19   19   25     12.91    -13.77
   19   21   25     14.74    -16.97
   17   21   25     -7.00      7.05
   15   21   25    -27.02    -16.30
   13   21   25     62.70     14.30
   11   21   25    -22.95     21.79
    9   21   25    -38.79     66.26
    7   21   25     -3.06     23.47
    5   21   25     32.75     -1.28
    3   21   25      2.06      2.67
    1   21   25    -19.68     43.14
   21   21   25    -21.64     16.17
   21   23   25     12.08    -15.41
   19   23   25    -11.81      5.58
   17   23   25     -8.81     -3.16
   15   23   25    -16.97      2.40
   13   23   25      4.91     29.27
   11   23   25    -57.79     -5.76
    9   23   25     48.88      1.57
    7   23   25    -37.49     35.14
    5   23   25     11.50     21.48
    3   23   25     -0.33      2.04
    1   23   25      4.35      3.39
   23   23   25      0.46     -0.99
    1   25   25    -30.76     31.00
    3   25   25     23.66     25.00
    5   25   25      2.07     -2.36
    7   25   25     -9.76     -8.79
    9   25   25     25.24    -24.92
   11   25   25     15.49     17.58
   13   25   25      3.00     -3.97
   15   25   25     -2.23     -0.69
   17   25   25      8.01     -6.21
   19   25   25      7.40      8.27
   21   25   25    -22.64     25.90
   23   25   25      1.46     -2.03
   25   25   25     32.42    -34.15
    0    2   26      8.11     -2.51
    2    2   26     -5.97     43.36
    2    4   26    -12.16    -40.34
    0    4   26    -30.49    -12.05
    4    4   26    -23.60     -0.11
    4    6   26      9.79     16.90
    2    6   26    -68.63    120.26
    0    6   26      9.91     -9.21
    6    6   26      2.52     89.60
    6    8   26     50.00    -27.03
    4    8   26     68.96    -56.32
    2    8   26     28.30     19.19
    0    8   26      7.29      0.32
    8    8   26     -1.92      8.71
    8   10   26     40.14    -55.47
    6   10   26     11.39     17.19
    4   10   26    -10.23    -45.50
    2   10   26     -1.96     21.84
    0   10   26    -14.39      2.69
   10   10   26     -2.62     -5.81
   10   12   26    -20.05     -6.36
    8   12   26     50.86    -24.90
    6   12   26     18.90     -3.71
    4   12   26    -10.01    -25.01
    2   12   26    -29.85    -10.98
    0   12   26     41.30     -1.47
   12   12   26      3.60     68.66
   12   14   26      9.02     21.92
   10   14   26    -14.84    -31.91
    8   14   26    -31.74     15.19
    6   14   26      0.63     -0.79
    4   14   26    -24.33      8.02
    2   14   26     -1.15    -30.14
    0   14   26     12.57      0.88
   14   14   26      0.78    -71.44
   14   16   26     28.58     41.75
   12   16   26    -20.37    -16.32
   10   16   26     53.92      2.31
    8   16   26    -17.34     28.59
    6   16   26   -124.18     -0.88
    4   16   26     23.93    -37.87
    2   16   26    -48.99    -19.85
    0   16   26    -29.58      1.28
   16   16   26      2.37    -10.98
   16   18   26     -5.60      8.34
   14   18   26     -5.40    -35.88
   12   18   26    -23.29     14.07
   10   18   26     18.24    -18.36
    8   18   26      1.05     65.12
    6   18   26     35.68      4.93
    4   18   26     20.53     -3.99
    2   18   26    -14.61     -9.89
    0   18   26     -4.57      0.41
   18   18   26     -3.77      0.02
   18   20   26      9.91     19.37
   16   20   26     17.07      3.99
   14   20   26    -28.13     16.47
   12   20   26     45.65    -17.28
   10   20   26    -17.23    -10.10
    8   20   26     67.85    -38.58
    6   20   26     49.58    -13.64
    4   20   26     10.91    -31.72
    2   20   26    -12.23     10.23
    0   20   26      5.94      1.47
   20   20   26      0.47     19.76
   20   22   26    -51.14     -5.85
   18   22   26     -6.42    -44.25
   16   22   26      3.07     31.44
   14   22   26     -9.97     28.85
   12   22   26     22.47    -38.87
   10   22   26     12.85     18.70
    8   22   26    -18.99    -23.95
    6   22   26    -20.65     14.12
    4   22   26    -20.78     -2.06
    2   22   26    -44.30    -16.22
    0   22   26    -75.92     24.45
   22   22   26      5.38    -20.59
   22   24   26    -40.66      6.57
   20   24   26    -20.97    -31.14
   18   24   26     -6.08    -16.00
   16   24   26    -19.50      6.75
   14   24   26     36.36      2.90
   12   24   26     27.55     15.73
   10   24   26     -5.43     21.95
    8   24   26    -17.65    -32.24
    6   24   26    -13.75      7.52
    4   24   26     -7.00      6.40
    2   24   26    -19.86    -12.32
    0   24   26     -9.96    -18.16
   24   24   26      5.71     13.87
    0   26   26     37.09      1.58
    2   26   26      1.05    -36.10
    4   26   26     -0.90      0.13
    6   26   26      0.23    -50.04
    8   26   26      3.34      1.58
   10   26   26      4.71     32.80
   12   26   26     10.72      1.23
   14   26   26     -1.22    -15.63
   16   26   26     22.96      0.19
   18   26   26      3.51    -48.11
   20   26   26    -61.83      3.54
   22   26   26     -0.34      9.11
   24   26   26    -29.69     -7.58
   26   26   26     11.95     -8.17
    1    1   27     -6.59      1.84
    1    3   27     99.87     24.90
    3    3   27      8.02      3.88
    3    5   27    -19.60      8.44
    1    5   27    -19.16     47.42
    5    5   27     28.42     23.04
    5    7   27      3.31    -38.05
    3    7   27    -43.24    -54.35
    1    7   27      2.67      8.95
    7    7   27    -46.24    -44.33
    7    9   27    -34.60      0.23
    5    9   27    -14.56     13.89
    3    9   27      3.53     17.58
    1    9   27    -45.75    -30.64
    9    9   27     41.53     43.97
    9   11   27     12.44    100.86
    7   11   27    -63.64     70.57
    5   11   27    -87.07     -5.32
    3   11   27    -40.25     31.52
    1   11   27    -18.74      8.11
   11   11   27    -23.22    -26.69
   11   13   27    -10.56    -22.75
    9   13   27      8.86    -26.35
    7   13   27     -0.06    -51.22
    5   13   27     24.17      8.64
    3   13   27     -1.61     36.11
    1   13   27    -38.06    -52.98
   13   13   27     23.19     26.21
   13   15   27    -29.83     15.12
   11   15   27    -17.54     -6.79
    9   15   27     14.80     -2.66
    7   15   27     -8.49     -0.84
    5   15   27      0.22    -73.37
    3   15   27     -9.88    -22.04
    1   15   27     71.75    -47.26
   15   15   27    -30.87    -33.71
   15   17   27     -4.31    -10.22
   13   17   27      1.06    -12.35
   11   17   27     23.91    -46.75
    9   17   27    -56.47      5.80
    7   17   27     33.62    -34.61
    5   17   27     -7.68      9.03
    3   17   27    -45.08     13.12
    1   17   27     18.04    -34.13
   17   17   27    -10.98     -7.26
   17   19   27    -32.58     -5.15
   15   19   27    -39.52     52.98
   13   19   27      6.45     -3.38
   11   19   27     -7.22     -4.34
    9   19   27     30.60    -20.62
    7   19   27     -8.88     -0.91
    5   19   27     12.33     12.87
    3   19   27    -13.87     23.14
    1   19   27     10.85    -28.76
   19   19   27     28.54     26.41
   19   21   27     -0.86      0.81
   17   21   27    -29.02     29.43
   15   21   27     -4.78      7.12
   13   21   27     12.95     43.03
   11   21   27      9.35     -3.16
    9   21   27     -3.93     26.42
    7   21   27    -37.96     -7.97
    5   21   27    -42.46     27.58
    3   21   27    -16.48    -32.59
    1   21   27    -28.33    -13.07
   21   21   27     32.03     29.05
   21   23   27     19.30     76.40
   19   23   27     -7.97    -12.69
   17   23   27      6.57      3.82
   15   23   27    -14.24      6.48
   13   23   27      4.36     12.22
   11   23   27     -2.98     25.69
    9   23   27    -42.54     27.43
    7   23   27    -50.23      1.60
    5   23   27    -35.80     17.60
    3   23   27    -18.90     -9.61
    1   23   27    -21.62     13.45
   23   23   27     29.89     29.92
   23   25   27     -7.46     11.35
   21   25   27     28.09     25.21
   19   25   27    -32.41     14.57
   17   25   27    -10.00      2.12
   15   25   27    -39.23    -21.10
   13   25   27      3.20     46.90
   11   25   27     18.31     29.85
    9   25   27    -17.45      6.49
    7   25   27    -36.94    -35.90
    5   25   27      7.15     -5.70
    3   25   27     22.13    -16.73
    1   25   27     11.62    -51.96
   25   25   27     11.59      9.36
    1   27   27      4.46     -6.21
    3   27   27     29.63     23.61
    5   27   27    -16.23     15.95
    7   27   27     26.99     20.67
    9   27   27    -34.19     33.69
   11   27   27     11.98     11.94
   13   27   27    -12.75     14.53
   15   27   27      3.20      1.00
   17   27   27     10.84    -10.97
   19   27   27     12.92     11.19
   21   27   27     34.03    -37.59
   23   27   27    -20.19    -18.44
   25   27   27     29.40    -30.22
   27   27   27    -60.06    -63.10
    0    0   28    -45.62     18.09
    0    2   28    -75.68      3.97
    2    2   28     -3.36     -4.85
    2    4   28    -11.10     39.72
    0    4   28     26.62     28.43
    4    4   28    -11.51      6.52
    4    6   28     -7.09    106.39
    2    6   28     -4.44     27.22
    0    6   28     38.69     -3.24
    6    6   28     48.92     -0.43
    6    8   28    -16.25    -13.53
    4    8   28    -25.30     14.39
    2    8   28    -11.28    -72.08
    0    8   28    -41.15      9.91
    8    8   28    -48.28      1.49
    8   10   28    -13.00     55.90
    6   10   28    -44.98    -34.80
    4   10   28     53.43     63.71
    2   10   28      4.31     93.81
    0   10   28   -103.31     -3.60
   10   10   28     50.73      1.94
   10   12   28     33.41     37.73
    8   12   28     -7.87     98.37
    6   12   28     18.89    -29.20
    4   12   28    -31.14     -2.30
    2   12   28     46.99    -55.18
    0   12   28     28.02      1.02
   12   12   28     26.16     -4.17
   12   14   28     12.34    -22.58
   10   14   28     -3.49    -18.96
    8   14   28     11.87    -34.69
    6   14   28    -72.09     36.80
    4   14   28     28.25    -16.87
    2   14   28    -39.00     -4.56
    0   14   28     28.59     -1.34
   14   14   28     25.58      0.75
   14   16   28     20.63    -17.58
   12   16   28     20.03    -62.00
   10   16   28     26.22     57.42
    8   16   28     -7.12     16.98
    6   16   28    -13.74      4.81
    4   16   28     12.58      0.18
    2   16   28     -9.33     53.70
    0   16   28    -25.76      3.34
   16   16   28      9.90      3.79
   16   18   28    -48.37      0.03
   14   18   28    -18.06     26.49
   12   18   28    -15.54     -5.39
   10   18   28     22.64     29.20
    8   18   28     31.47    -30.45
    6   18   28     14.81    -14.80
    4   18   28    -37.63     -8.99
    2   18   28     -0.30      7.33
    0   18   28     -7.48      0.25
   18   18   28     -2.96     -1.51
   18   20   28    -14.08    -18.85
   16   20   28    -34.53     -0.82
   14   20   28    -16.12      6.31
   12   20   28     -5.35    -30.21
   10   20   28      9.77     -1.91
    8   20   28    -18.83     30.07
    6   20   28    -18.38      5.95
    4   20   28      4.99      2.40
    2   20   28    -11.71    -10.39
    0   20   28    -42.09      3.11
   20   20   28    -12.27     -1.37
   20   22   28     -2.95    -30.78
   18   22   28    -27.55    -35.84
   16   22   28     -4.83    -34.48
   14   22   28     13.37      0.75
   12   22   28    -24.21     23.15
   10   22   28      9.85     14.88
    8   22   28      5.00    -26.91
    6   22   28    -26.39     12.44
    4   22   28      9.43    -84.47
    2   22   28      4.01     45.16
    0   22   28    -26.41     -1.70
   22   22   28     46.28     -0.50
   22   24   28     19.43     14.88
   20   24   28    -25.54     16.19
   18   24   28     28.56      2.58
   16   24   28     10.45      9.96
   14   24   28     10.02    -30.01
   12   24   28      5.08    -28.75
   10   24   28    -36.06     34.33
    8   24   28     16.32    -11.47
    6   24   28     -9.87     -8.78
    4   24   28      8.64    -59.47
    2   24   28     -5.57    -31.56
    0   24   28     15.25      0.01
   24   24   28      3.12     -4.89
   24   26   28    -61.14     17.75
   22   26   28     -7.50    -39.87
   20   26   28    -26.52      4.34
   18   26   28    -17.66      6.11
   16   26   28     33.54    -17.57
   14   26   28    -17.05     -1.33
   12   26   28     15.45     34.27
   10   26   28      0.74     10.42
    8   26   28    -12.20     31.45
    6   26   28    -57.68    -52.96
    4   26   28    -19.65    -13.67
    2   26   28    -12.74     -2.16
    0   26   28      7.98      2.28
   26   26   28    -23.32     -0.56
    0   28   28    -37.39      0.54
    2   28   28      2.45     -3.54
    4   28   28    -69.20    -12.66
    6   28   28     -1.48     -2.80
    8   28   28    -18.15      6.10
   10   28   28     -2.31      5.26
   12   28   28     45.79     -1.50
   14   28   28     10.35     72.82
   16   28   28      3.95      1.26
   18   28   28     -0.54     17.53
   20   28   28     -7.61     -4.03
   22   28   28      1.81      0.82
   24   28   28    -35.12     -0.89
   26   28   28     -0.71    -15.37
   28   28   28      4.32     -8.66
    1    1   29      9.88    -10.86
    1    3   29      2.67     10.38
    3    3   29    -19.48     22.57
    3    5   29    -48.42    -28.59
    1    5   29      3.71     25.68
    5    5   29     -2.50     -6.16
    5    7   29     17.33    -24.72
    3    7   29    -48.13     24.44
    1    7   29     -8.57     30.74
    7    7   29     28.01    -22.01
    7    9   29     -9.13    -31.43
    5    9   29     40.43     57.36
    3    9   29    -72.58     73.29
    1    9   29    -15.23     41.29
    9    9   29     19.37    -16.46
    9   11   29    -16.70    -17.18
    7   11   29     42.34      6.14
    5   11   29    -18.61    -33.19
    3   11   29    -21.78    -15.55
    1   11   29      0.57    -13.21
   11   11   29     -3.95      3.66
   11   13   29      5.36      5.81
    9   13   29    -17.27    -68.94
    7   13   29     -6.96     11.92
    5   13   29     36.56      5.76
    3   13   29    -19.34     29.92
    1   13   29     57.55     36.33
   13   13   29    -18.42     17.72
   13   15   29    -21.20    -20.73
   11   15   29    -21.68    -56.46
    9   15   29    -14.56    -24.42
    7   15   29     -3.94     -7.87
    5   15   29    -13.59      6.85
    3   15   29     -5.88     29.24
    1   15   29     -8.35     37.76
   15   15   29      3.67     -5.27
   15   17   29      3.72    -10.19
   13   17   29     -5.09     -3.28
   11   17   29      8.56     26.29
    9   17   29     -2.33    -13.87
    7   17   29    -33.25    -26.78
    5   17   29    -10.21     -8.40
    3   17   29    -27.35    -55.37
    1   17   29      8.36    -17.37
   17   17   29    -10.73     11.19
   17   19   29     -2.28     -8.88
   15   19   29     32.50    -12.51
   13   19   29     35.18     39.92
   11   19   29     23.82     -8.35
    9   19   29    -10.51     21.40
    7   19   29     -3.93    -13.52
    5   19   29     42.72     58.98
    3   19   29    -15.95     -7.12
    1   19   29      9.73      3.36
   19   19   29     -3.22      1.65
   19   21   29    -14.41     14.92
   17   21   29     -7.62    -34.89
   15   21   29      6.93     19.68
   13   21   29     21.75    -55.18
   11   21   29    -16.24     28.82
    9   21   29    -10.82    -55.85
    7   21   29    -23.30    -11.47
    5   21   29     39.66    -32.78
    3   21   29    -14.06    -16.75
    1   21   29    -12.08      6.96
   21   21   29    -26.77     29.13
   21   23   29    -11.16     33.36
   19   23   29    -18.11      8.81
   17   23   29    -14.25     41.81
   15   23   29     19.41    -14.37
   13   23   29    -43.39     37.19
   11   23   29      0.73      4.53
    9   23   29    -23.66      0.58
    7   23   29     -9.86     -1.22
    5   23   29      0.42     42.12
    3   23   29    -46.27     -3.69
    1   23   29     11.49     -3.56
   23   23   29      1.56     -0.68
   23   25   29     19.33    -31.73
   21   25   29     -8.87     10.34
   19   25   29      0.71     21.21
   17   25   29      5.93    -20.24
   15   25   29      2.15      5.11
   13   25   29    -27.91     31.37
   11   25   29      9.43    -17.58
    9   25   29      4.49      7.56
    7   25   29     -0.98    -16.65
    5   25   29    -38.69     -1.50
    3   25   29      2.90    -25.49
    1   25   29    -20.79      5.42
   25   25   29     23.28    -24.39
   25   27   29    -46.39     38.76
   23   27   29    -28.17    -20.68
   21   27   29      5.52    -36.08
   19   27   29    -10.66    -18.44
   17   27   29     -2.10      2.73
   15   27   29      5.17    -32.96
   13   27   29      1.94     16.81
   11   27   29    -36.01     -5.84
    9   27   29    -15.60    -10.32
    7   27   29      1.29    -22.17
    5   27   29     -5.87      8.42
    3   27   29      4.52     -0.19
    1   27   29     -2.46      0.80
   27   27   29     -4.49      2.91
    1   29   29      8.97     -6.77
    3   29   29    -14.63    -13.32
    5   29   29    -25.01     22.53
    7   29   29     -2.79     -5.05
    9   29   29     -4.76      0.89
   11   29   29      0.07      1.19
   13   29   29    -17.62     16.05
   15   29   29      4.41     -6.11
   17   29   29     17.29     -9.20
   19   29   29    -11.46     -4.35
   21   29   29    -10.45      9.67
   23   29   29     -8.60    -10.81
   25   29   29      9.16     -1.64
   27   29   29      2.11     -2.92
   29   29   29    -22.65     11.86
    0    2   30    -10.93      2.58
    2    2   30    -51.58     70.91
    2    4   30    -18.56     16.10
    0    4   30    -61.68     -0.16
    4    4   30      1.22     83.54
    4    6   30    -59.13     30.89
    2    6   30    -60.87     33.06
    0    6   30    -40.86     -3.41
    6    6   30     -1.24     20.04
    6    8   30    -12.55    112.08
    4    8   30    -21.56    144.65
    2    8   30     59.78     20.10
    0    8   30     -8.88      4.21
    8    8   30     -2.53     15.60
    8   10   30    -33.14     17.92
    6   10   30      2.17    -66.97
    4   10   30     -4.04     64.60
    2   10   30     25.51     28.42
    0   10   30    -77.59     -2.86
   10   10   30      1.88    -18.39
   10   12   30    -16.26    -49.51
    8   12   30    -42.22     56.31
    6   12   30     49.93     21.67
    4   12   30    -43.28     40.89
    2   12   30      1.61    -10.18
    0   12   30    -46.34     -0.22
   12   12   30      1.17     13.67
   12   14   30     17.76     50.30
   10   14   30     33.12     14.21
    8   14   30      9.29     18.58
    6   14   30     11.16     52.03
    4   14   30    -29.27     23.87
    2   14   30     14.99     -1.56
    0   14   30     -3.92     -1.17
   14   14   30     -0.16     20.09
   14   16   30    -33.80    -20.57
   12   16   30    -11.02      4.21
   10   16   30     -9.06     -1.63
    8   16   30     46.38    -74.40
    6   16   30     29.66     16.65
    4   16   30     21.39     25.68
    2   16   30    -15.79     -0.67
    0   16   30    -22.08      6.17
   16   16   30      0.46     40.41
   16   18   30     17.68    -11.76
   14   18   30    -30.60     30.62
   12   18   30     12.49     11.16
   10   18   30      7.47     -5.06
    8   18   30    -19.58      4.61
    6   18   30     24.39      6.03
    4   18   30      8.81     10.64
    2   18   30    -24.20     24.60
    0   18   30     19.11      0.70
   18   18   30      0.49     10.64
   18   20   30     20.65     15.24
   16   20   30     -2.56      1.87
   14   20   30      4.47    -29.11
   12   20   30     -1.63      0.50
   10   20   30    -53.02      7.90
    8   20   30    -33.06     22.49
    6   20   30     50.06    -11.19
    4   20   30     28.85     10.82
    2   20   30      2.68     -4.96
    0   20   30    -11.27     -3.62
   20   20   30      5.05      0.27
   20   22   30    -48.27    -17.35
   18   22   30      9.14    -10.37
   16   22   30     -4.44     18.42
   14   22   30     22.85     15.54
   12   22   30    -27.44     -7.57
   10   22   30     -6.46      6.70
    8   22   30     -7.80      2.98
    6   22   30    -49.90    -26.10
    4   22   30     21.31    -14.99
    2   22   30    -17.04    -37.70
    0   22   30    -15.65     -3.40
   22   22   30      0.73     11.80
   22   24   30    -31.30      5.71
   20   24   30    -28.92    -63.02
   18   24   30     -6.96    -25.58
   16   24   30     22.42    -13.99
   14   24   30     28.35      1.59
   12   24   30    -18.22     35.54
   10   24   30      6.21    -18.87
    8   24   30    -24.81     33.14
    6   24   30     17.99    -30.20
    4   24   30    -26.40     37.25
    2   24   30    -15.34      2.46
    0   24   30    -57.62     -0.86
   24   24   30      2.91      4.11
   24   26   30     30.76     33.23
   22   26   30     66.89     46.38
   20   26   30     -1.10    -13.36
   18   26   30      7.08    -14.58
   16   26   30     -9.68    -21.10
   14   26   30     17.10     -1.14
   12   26   30     26.91    -17.82
   10   26   30     10.25      3.37
    8   26   30      7.88    -16.83
    6   26   30     18.04     16.65
    4   26   30     41.92     31.10
    2   26   30      6.13      2.72
    0   26   30    -44.35    -41.71
   26   26   30     -0.94     -1.14
   26   28   30    -15.07    -13.65
   24   28   30     -5.08     24.67
   22   28   30    -39.51    -25.73
   20   28   30     17.51      7.12
   18   28   30     11.17     12.60
   16   28   30      8.07    -17.48
   14   28   30     -1.68     -5.96
   12   28   30     19.70     -2.69
   10   28   30     31.73      1.00
    8   28   30     -5.99     25.30
    6   28   30     27.52    -18.18
    4   28   30     24.42      2.30
    2   28   30    -12.66    -19.30
    0   28   30     14.05     10.17
   28   28   30      1.99      5.72
    0   30   30     17.95     -5.45
    2   30   30      2.40      6.48
    4   30   30      0.06      6.22
    6   30   30     -0.97     22.26
    8   30   30      0.93     -3.11
   10   30   30      0.51     13.52
   12   30   30    -25.27      0.54
   14   30   30     -2.74     -5.12
   16   30   30     20.03     -4.29
   18   30   30      0.20     33.03
   20   30   30     25.49      6.73
   22   30   30    -15.95    -17.76
   24   30   30     20.85     -1.16
   26   30   30      2.05     -0.23
   28   30   30    -13.36      4.34
   30   30   30     -7.46     25.17
    1    1   31      0.85     -2.78
    1    3   31     58.95    -23.86
    3    3   31     -9.27     -9.11
    3    5   31      1.09     15.13
    1    5   31    -41.79     16.64
    5    5   31    -24.96    -32.66
    5    7   31      6.79    -34.60
    3    7   31     -9.06      5.00
    1    7   31     20.98      1.04
    7    7   31    -24.49    -17.12
    7    9   31      7.81    -26.79
    5    9   31    -52.94    -25.60
    3    9   31     -3.88      1.63
    1    9   31    -24.62     34.53
    9    9   31     27.25     30.85
    9   11   31     14.28     -8.13
    7   11   31      1.24      3.04
    5   11   31    -39.04     11.88
    3   11   31     37.36    -44.55
    1   11   31    -11.90     51.58
   11   11   31     -3.91     -1.60
   11   13   31      4.63    -15.31
    9   13   31     21.62    -13.64
    7   13   31     33.74    -56.32
    5   13   31    -35.39    -21.11
    3   13   31     62.47      7.90
    1   13   31     11.46     26.77
   13   13   31     -2.32     -7.32
   13   15   31    -29.53    -44.50
   11   15   31    -14.12    -15.91
    9   15   31      1.14    -37.15
    7   15   31     54.92     38.44
    5   15   31     31.08    -28.31
    3   15   31    -16.36     -5.02
    1   15   31      4.33      9.46
   15   15   31      2.32     -0.38
   15   17   31     -4.05    -20.07
   13   17   31     -0.64    -17.96
   11   17   31     14.76    -46.60
    9   17   31      9.92    -12.67
    7   17   31     11.23     -5.82
    5   17   31     12.68     13.93
    3   17   31     11.82      7.88
    1   17   31     -1.67     24.12
   17   17   31     -9.62      3.77
   17   19   31     -8.23      4.02
   15   19   31      0.02      9.67
   13   19   31     52.29    -60.95
   11   19   31     -0.35    -49.98
    9   19   31     40.55    -32.01
    7   19   31    -40.88     -0.90
    5   19   31     -5.40     44.31
    3   19   31    -51.45      1.17
    1   19   31      9.31     -5.37
   19   19   31      3.56      1.32
   19   21   31      7.71     18.72
   17   21   31     -7.84     14.71
   15   21   31      0.95     16.37
   13   21   31      6.68     30.44
   11   21   31    -35.88    -35.68
    9   21   31     31.79     22.04
    7   21   31     29.10    -11.72
    5   21   31    -22.43     -5.51
    3   21   31     -2.72      9.20
    1   21   31      0.37      9.81
   21   21   31     -0.04      2.74
   21   23   31    -13.20     -1.25
   19   23   31     -5.08     -9.34
   17   23   31     14.97    -27.75
   15   23   31    -22.73      7.59
   13   23   31     23.00     -5.08
   11   23   31     15.16     14.12
    9   23   31    -16.85    -37.55
    7   23   31     16.53    -26.35
    5   23   31     10.44     -2.22
    3   23   31     12.92     -8.48
    1   23   31    -23.43    -30.84
   23   23   31      4.62      6.42
   23   25   31     73.21     11.08
   21   25   31      3.38     18.35
   19   25   31     21.41    -48.17
   17   25   31     23.07      1.61
   15   25   31     -1.17      0.95
   13   25   31    -33.57     14.66
   11   25   31      9.58    -52.17
    9   25   31     -7.62      0.93
    7   25   31    -21.14    -12.81
    5   25   31    -12.07     -7.71
    3   25   31      3.54      4.91
    1   25   31      7.52     -2.10
   25   25   31    -26.76    -27.52
   25   27   31     -4.29     10.76
   23   27   31    -45.85     -0.51
   21   27   31     15.54     12.13
   19   27   31     17.37     -9.21
   17   27   31     -9.73     -4.10
   15   27   31    -18.49      4.78
   13   27   31    -19.54     -3.09
   11   27   31    -38.40     13.09
    9   27   31    -37.36    -11.60
    7   27   31    -25.44     -6.34
    5   27   31      0.54      0.25
    3   27   31     -9.99      3.61
    1   27   31      3.32    -25.89
   27   27   31     -5.09     -9.55
   27   29   31    -49.05    -16.03
   25   29   31      7.96    -39.73
   23   29   31    -25.74    -22.94
   21   29   31    -33.35     -6.88
   19   29   31      4.64    -18.38
   17   29   31    -12.04    -43.27
   15   29   31      6.19    -25.37
   13   29   31    -31.84     -2.49
   11   29   31    -14.87    -20.81
    9   29   31    -14.98    -16.09
    7   29   31     -3.31     32.38
    5   29   31     -6.29    -12.90
    3   29   31    -10.59     -2.42
    1   29   31      5.85      1.71
   29   29   31     -5.84     -8.32
    1   31   31      7.32     -4.64
    3   31   31    -18.33      6.46
    5   31   31     12.38     -9.86
    7   31   31     16.03     15.92
    9   31   31      0.89      1.76
   11   31   31     17.09     16.45
   13   31   31     21.24    -19.23
   15   31   31    -30.33    -28.44
   17   31   31     17.90    -21.97
   19   31   31     21.62     25.03
   21   31   31     18.56     21.95
   23   31   31      2.85      3.19
   25   31   31     11.25     -9.53
   27   31   31     26.65     22.23
   29   31   31      2.55     -3.97
   31   31   31     25.34     22.78
    0    0   32     75.77     -1.72
    0    2   32    -30.18     -1.24
    2    2   32      7.66     10.77
    2    4   32    -90.49     44.81
    0    4   32    -78.69     -4.30
    4    4   32     23.87     -8.51
    4    6   32    -10.66     48.13
    2    6   32    -27.91     28.92
    0    6   32    -59.70     -0.98
    6    6   32    -12.55      1.30
    6    8   32     10.31     53.69
    4    8   32    -43.11    -48.14
    2    8   32    -26.55    -52.24
    0    8   32     39.36    -10.02
    8    8   32      9.34     -2.69
    8   10   32    -61.21     56.70
    6   10   32     -0.47     10.60
    4   10   32    -41.68     16.80
    2   10   32    -41.93     33.85
    0   10   32     -3.11      2.45
   10   10   32    -24.03      1.29
   10   12   32    -19.00    -11.42
    8   12   32     -9.75     31.00
    6   12   32    -63.68     29.26
    4   12   32     -1.08    -14.19
    2   12   32     12.69     40.55
    0   12   32    -12.06     -4.29
   12   12   32    -28.16     -3.27
   12   14   32     27.04     27.99
   10   14   32     25.30      0.37
    8   14   32     -7.19     18.43
    6   14   32    -38.34     12.87
    4   14   32     14.58    -36.51
    2   14   32     -6.29    -12.68
    0   14   32     47.76      0.87
   14   14   32      0.73      0.71
   14   16   32    -11.68      8.90
   12   16   32    -16.30     -9.73
   10   16   32     -6.34    -13.05
    8   16   32     29.48     54.44
    6   16   32    -38.60     -6.73
    4   16   32     34.88     -1.58
    2   16   32    -13.02     28.32
    0   16   32    -10.25      3.77
   16   16   32    -11.88      8.61
   16   18   32     20.65     45.47
   14   18   32      7.83    -36.70
   12   18   32     36.61      6.90
   10   18   32      4.05     -7.03
    8   18   32     24.48     -1.09
    6   18   32     35.78     15.99
    4   18   32      2.84     17.57
    2   18   32     24.91    -44.69
    0   18   32     18.75     -0.51
   18   18   32     21.07      1.83
   18   20   32    -42.32      3.92
   16   20   32    -47.22    -10.43
   14   20   32    -33.40     -0.54
   12   20   32     24.73     33.69
   10   20   32      1.13      4.57
    8   20   32     13.37      1.09
    6   20   32     27.23    -15.41
    4   20   32      2.28    -27.38
    2   20   32    -10.58    -34.18
    0   20   32     32.75      1.89
   20   20   32     -6.34     -1.12
   20   22   32     43.29     12.14
   18   22   32    -28.90      3.01
   16   22   32    -41.14    -52.73
   14   22   32    -51.21    -34.04
   12   22   32      1.46    -10.88
   10   22   32     20.22      6.25
    8   22   32    -26.37     45.45
    6   22   32    -11.16    -33.10
    4   22   32      8.44     44.31
    2   22   32     19.33      2.63
    0   22   32     10.17      6.12
   22   22   32      2.64     -3.65
   22   24   32     11.14      6.81
   20   24   32      9.83    -20.86
   18   24   32     31.84     12.76
   16   24   32     -5.46    -27.11
   14   24   32      0.57     -4.20
   12   24   32    -19.09     -1.42
   10   24   32      4.95    -13.62
    8   24   32     16.98    -13.82
    6   24   32    -21.32     41.65
    4   24   32     15.46    -36.67
    2   24   32     17.47      2.63
    0   24   32    -13.80     -5.96
   24   24   32     -7.92     15.73
   24   26   32     24.76    -13.79
   22   26   32      2.50      0.93
   20   26   32     21.98      8.97
   18   26   32     36.16     14.41
   16   26   32     25.19     15.09
   14   26   32    -18.81    -11.87
   12   26   32     10.86    -10.53
   10   26   32    -10.74    -24.02
    8   26   32     -3.63     11.52
    6   26   32     17.43     15.21
    4   26   32     -8.44     -4.96
    2   26   32    -19.45      2.37
    0   26   32    -30.78      5.03
   26   26   32      2.59      4.15
   26   28   32     13.32      3.49
   24   28   32     -0.58     -0.03
   22   28   32    -27.79    -28.31
   20   28   32     -3.00     44.20
   18   28   32    -19.65    -22.03
   16   28   32     -6.57      9.24
   14   28   32     10.79    -14.11
   12   28   32      6.55    -11.75
   10   28   32     41.30      9.82
    8   28   32     32.38     -2.65
    6   28   32      6.45     14.01
    4   28   32      1.05     -3.33
    2   28   32      2.78     46.51
    0   28   32     -6.25      5.38
   28   28   32     -2.53      6.11
   28   30   32    -24.77     -1.19
   26   30   32     -3.37    -12.37
   24   30   32     24.12    -16.84
   22   30   32     -7.63      0.48
   20   30   32     27.64      4.86
   18   30   32      4.97      8.55
   16   30   32     -6.08     18.01
   14   30   32      7.02     -0.78
   12   30   32      8.33     20.40
   10   30   32     35.26      1.69
    8   30   32     28.76    -23.27
    6   30   32     10.91      4.01
    4   30   32     31.22     12.50
    2   30   32      0.89    -14.14
    0   30   32      3.87      0.49
   30   30   32     -7.74     -0.76
    0   32   32     37.70     16.15
    2   32   32     -0.45      5.58
    4   32   32     -2.07     -4.61
    6   32   32     11.67      1.81
    8   32   32     21.90      2.55
   10   32   32    -12.79    -26.16
   12   32   32    -33.37     -5.03
   14   32   32     -1.67    -16.32
   16   32   32     -6.22      2.46
   18   32   32     -5.27     -6.44
   20   32   32     40.67      2.15
   22   32   32      1.77      6.33
   24   32   32    -13.97      2.55
   26   32   32     -4.61      8.54
   28   32   32     20.89     -2.78
    1    1   33      3.95    -10.08
    1    3   33     25.93     19.38
    3    3   33     12.83    -16.90
    3    5   33    -15.17     -4.24
    1    5   33     29.97    -58.04
    5    5   33     36.30    -34.50
    5    7   33     -4.17      1.58
    3    7   33     -5.74     -4.17
    1    7   33    -12.19     -7.75
    7    7   33      1.84     -1.62
    7    9   33     17.44    -51.83
    5    9   33     30.90     31.92
    3    9   33      5.14      1.55
    1    9   33     12.66    -77.40
    9    9   33    -19.24     18.44
    9   11   33     -3.15      3.15
    7   11   33     -6.80     -9.21
    5   11   33      9.93     15.14
    3   11   33     -5.95     -7.52
    1   11   33      4.63     -2.85
   11   11   33     22.29    -23.72
   11   13   33      5.90    -15.22
    9   13   33     59.40     42.79
    7   13   33     19.69     -4.71
    5   13   33     46.03     48.27
    3   13   33     13.25    -41.65
    1   13   33     -2.74      9.48
   13   13   33     17.43    -28.32
   13   15   33     18.05      9.94
   11   15   33     24.78     -5.90
    9   15   33     28.51     -9.46
    7   15   33     19.08     -4.31
    5   15   33     -4.45      1.25
    3   15   33     41.31    -32.99
    1   15   33     17.70     25.78
   15   15   33     17.16    -15.17
   15   17   33      0.58    -32.22
   13   17   33     -9.92    -23.66
   11   17   33     19.03     -1.63
    9   17   33     -6.94      3.74
    7   17   33    -37.44     15.33
    5   17   33    -25.29     -5.32
    3   17   33     -3.72      4.56
    1   17   33    -18.48     -4.97
   17   17   33     23.17    -26.00
   17   19   33     -6.62    -15.13
   15   19   33      3.48     -3.27
   13   19   33     19.33      7.65
   11   19   33      5.61     -7.50
    9   19   33     22.53     25.22
    7   19   33    -12.34    -34.66
    5   19   33    -58.05     10.75
    3   19   33    -33.06    -29.08
    1   19   33    -20.37     28.03
   19   19   33    -16.56     19.42
   19   21   33    -21.54     22.73
   17   21   33     -5.12     -3.32
   15   21   33    -23.05    -16.40
   13   21   33    -12.85    -19.85
   11   21   33    -18.45      3.48
    9   21   33     -6.77    -14.90
    7   21   33     31.22     23.36
    5   21   33      1.51     -3.11
    3   21   33     12.78      7.17
    1   21   33      7.22     -1.70
   21   21   33     -3.30     -1.13
   21   23   33      8.98    -15.43
   19   23   33      5.34      0.44
   17   23   33      1.22     19.03
   15   23   33      0.87     11.19
   13   23   33     39.65      4.67
   11   23   33     -7.25    -18.55
    9   23   33    -49.28    -54.51
    7   23   33     -0.53    -36.50
    5   23   33    -17.06     -9.32
    3   23   33      5.61     -6.10
    1   23   33     40.12    -11.50
   23   23   33      7.99     -8.65
   23   25   33      3.65      2.99
   21   25   33    -10.19    -22.55
   19   25   33     -5.37     -5.86
   17   25   33      5.22      3.49
   15   25   33     18.33    -24.44
   13   25   33     -4.87    -20.75
   11   25   33     -8.51      6.11
    9   25   33     -3.69     -3.17
    7   25   33     -3.06     36.85
    5   25   33    -14.23    -31.92
    3   25   33     10.83     -4.61
    1   25   33      0.77    -20.13
   25   25   33     12.91    -21.67
   25   27   33     25.78      1.63
   23   27   33     -8.51     -0.22
   21   27   33    -15.51    -16.35
   19   27   33     27.75    -11.65
   17   27   33    -42.99    -20.29
   15   27   33      3.78     -7.54
   13   27   33     -6.58     12.36
   11   27   33     -4.26      8.48
    9   27   33      7.95      7.38
    7   27   33    -12.12      7.57
    5   27   33      9.39    -40.88
    3   27   33     23.88     18.06
    1   27   33      4.55    -27.00
   27   27   33     25.89    -23.11
   27   29   33     -0.57     15.57
   25   29   33     28.70      2.94
   23   29   33     12.91     25.01
   21   29   33     -7.59     11.95
   19   29   33     -4.45     -6.13
   17   29   33      9.37     -8.91
   15   29   33      0.05    -21.52
   13   29   33     -7.09    -11.25
   11   29   33    -19.51      2.07
    9   29   33     -6.30    -11.13
    7   29   33     -3.44      5.71
    5   29   33    -14.22    -17.56
    3   29   33     -2.84     -7.40
    1   29   33     12.69     -9.01
   29   29   33     -3.48      2.05
   27   31   33     -5.05    -19.39
   25   31   33     18.20     29.48
   23   31   33      7.58     12.28
   21   31   33     30.95      9.75
   19   31   33     18.80     29.76
   17   31   33     13.57     -0.60
   15   31   33     -2.05      1.23
   13   31   33    -20.70      9.71
   11   31   33    -12.07    -13.05
    9   31   33      2.32      0.44
    7   31   33    -18.91     -4.82
    5   31   33    -33.86     16.73
    3   31   33      0.43     23.21
    1   31   33     -6.28     25.02
    1   33   33      3.89     -6.03
    3   33   33     -4.16     -2.59
    5   33   33      4.69     -2.68
    7   33   33     -0.94      1.24
    9   33   33      8.93     -9.95
   11   33   33    -16.07    -10.96
   13   33   33    -10.58     12.13
   15   33   33     -1.15     -1.77
   17   33   33      6.01     -1.60
   19   33   33    -24.03    -16.85
   21   33   33     -4.38      5.19
   23   33   33      8.66      7.66
   25   33   33     -0.88     16.80
    0    2   34     30.68      4.18
    2    2   34    -26.05     56.03
    2    4   34    -75.01    -33.96
    0    4   34    -34.77      2.96
    4    4   34     -5.28     14.79
    4    6   34     -5.74    -12.16
    2    6   34   -120.71    170.56
    0    6   34     -7.41      4.39
    6    6   34      3.14     22.90
    6    8   34     -3.78    -52.60
    4    8   34    -28.41      5.79
    2    8   34     -5.41    -17.98
    0    8   34    -30.64     -0.89
    8    8   34     -4.10     -4.32
    8   10   34     -1.01    -39.10
    6   10   34    -12.77     10.62
    4   10   34      9.23     -7.65
    2   10   34     44.81     21.89
    0   10   34     35.08      3.16
   10   10   34     -0.85    -25.74
   10   12   34     11.42     73.12
    8   12   34    -31.07     -8.21
    6   12   34     -7.94     20.70
    4   12   34    -31.10     21.79
    2   12   34    -52.96    -16.10
    0   12   34     12.66    -23.89
   12   12   34     -1.18     12.21
   12   14   34    -10.46    -66.01
   10   14   34    -31.63     20.35
    8   14   34     17.87    -58.68
    6   14   34    -39.83     21.73
    4   14   34      0.75     25.62
    2   14   34    -32.09    -14.67
    0   14   34    -22.08      1.07
   14   14   34      3.26    -20.73
   14   16   34    -19.70      5.87
   12   16   34     37.63      8.61
   10   16   34      5.64    -26.47
    8   16   34     -4.28     -5.16
    6   16   34    -15.58     -9.32
    4   16   34     43.05    -15.19
    2   16   34      1.58     18.09
    0   16   34     43.28     -0.74
   16   16   34     -1.48    -27.74
   16   18   34    -22.68    -13.49
   14   18   34      2.35     10.80
   12   18   34      0.27     -7.12
   10   18   34    -15.82     -7.94
    8   18   34      9.13     -0.19
    6   18   34     20.63      3.02
    4   18   34    -14.80    -18.22
    2   18   34     -8.19     16.54
    0   18   34      9.51      3.14
   18   18   34     -1.69     22.21
   18   20   34    -12.96    -51.80
   16   20   34     21.20    -20.48
   14   20   34      0.08      1.03
   12   20   34     11.23     21.37
   10   20   34      1.52     12.55
    8   20   34    -29.46    -24.93
    6   20   34     13.24      1.97
    4   20   34    -12.80     -1.18
    2   20   34     20.26      7.54
    0   20   34      9.95      2.17
   20   20   34     -2.41     40.08
   20   22   34    -14.78      9.16
   18   22   34     14.64     11.90
   16   22   34     12.34      2.39
   14   22   34    -12.54     -8.29
   12   22   34      7.64    -13.52
   10   22   34     -1.59     -0.70
    8   22   34      2.37    -19.82
    6   22   34     43.64      2.96
    4   22   34     -5.36     11.76
    2   22   34     11.88    -14.35
    0   22   34     52.11      0.78
   22   22   34     11.08    -23.82
   22   24   34     -2.75     25.24
   20   24   34     -0.29    -20.19
   18   24   34     -0.32    -28.59
   16   24   34    -18.58    -21.62
   14   24   34     10.62     -7.17
   12   24   34     -3.32    -13.76
   10   24   34     -8.25     -3.14
    8   24   34      7.75    -11.92
    6   24   34     38.52    -11.77
    4   24   34     18.23     -0.58
    2   24   34    -32.54      1.94
    0   24   34    -17.40     -1.11
   24   24   34     -0.01      6.06
   24   26   34      8.79    -10.61
   22   26   34      7.54    -13.68
   20   26   34      6.58     -3.51
   18   26   34    -10.30    -22.12
   16   26   34    -10.86    -19.25
   14   26   34     21.01     -8.34
   12   26   34     -6.18     -5.06
   10   26   34      7.48     12.48
    8   26   34     -2.68    -26.86
    6   26   34     24.07     27.23
    4   26   34    -20.82    -10.45
    2   26   34      8.43      2.27
    0   26   34    -27.43     -2.02
   26   26   34      2.46     17.74
   26   28   34     -8.46     25.78
   24   28   34     -3.67      6.62
   22   28   34     39.93      8.00
   20   28   34      2.15     -5.75
   18   28   34      9.32    -23.20
   16   28   34     -4.27     -1.19
   14   28   34    -19.95     15.16
   12   28   34     -2.55      0.02
   10   28   34    -20.10     -2.25
    8   28   34      8.76      4.63
    6   28   34    -40.26    -19.21
    4   28   34     15.26    -23.23
    2   28   34     30.56     -7.74
    0   28   34      4.42     -2.70
   28   28   34      0.03     -0.12
   28   30   34    -33.31     21.24
   26   30   34     34.39    -17.60
   24   30   34     27.08     27.79
   22   30   34     10.55      1.72
   20   30   34     -7.66    -24.04
   18   30   34    -12.29      4.72
   16   30   34    -19.26      0.82
   14   30   34     13.37    -39.32
   12   30   34     24.91      7.53
   10   30   34     -4.60     -4.05
    8   30   34    -16.99      2.36
    6   30   34      3.87     13.28
    4   30   34      9.40      7.41
    2   30   34     22.60      9.09
    0   30   34    -15.82      5.45
   26   32   34     16.17     10.67
   24   32   34     12.73    -26.98
   22   32   34     18.19     -6.28
   20   32   34     -4.41     13.93
   18   32   34      4.30     37.46
   16   32   34     -3.79    -14.26
   14   32   34      1.70     -7.50
   12   32   34     34.04    -17.60
   10   32   34     -6.04      8.44
    8   32   34     24.40      7.00
    6   32   34      5.91      6.01
    4   32   34     -2.04     13.91
    2   32   34      5.61     13.81
    0   32   34     -4.43     -1.91
    0   34   34     96.86     -0.28
    2   34   34      6.96    -31.63
    4   34   34    -19.77     -1.44
    6   34   34     -2.77      2.89
    8   34   34      5.06     -5.11
   10   34   34      3.06    -18.08
   12   34   34      2.75      2.42
   14   34   34     -0.25      2.94
   16   34   34    -16.92      1.59
   18   34   34      1.67     -0.76
   20   34   34    -32.51      4.24
   22   34   34     -1.64     13.47
   24   34   34     10.22     -3.16
    1    1   35     16.74     20.06
    1    3   35     -0.72    -33.99
    3    3   35     16.13     -6.47
    3    5   35     44.42    -12.01
    1    5   35    -11.43    -11.84
    5    5   35    -28.12    -29.75
    5    7   35     41.59     12.10
    3    7   35     -7.98     33.85
    1    7   35    -21.15     15.25
    7    7   35     -1.79     -8.00
    7    9   35     -8.16      4.66
    5    9   35    -34.25     14.91
    3    9   35     24.21      8.69
    1    9   35     40.50    -12.13
    9    9   35     27.45     25.32
    9   11   35      7.79    -16.54
    7   11   35      6.58    -11.78
    5   11   35      8.02    -15.88
    3   11   35     35.83     17.69
    1   11   35    -46.54      0.71
   11   11   35     11.56     15.90
   11   13   35    -15.40     -5.70
    9   13   35    -15.91      3.38
    7   13   35    -23.61     17.29
    5   13   35      5.96     -6.04
    3   13   35    -32.88     10.13
    1   13   35     -3.60      8.99
   13   13   35     -5.79     -8.96
   13   15   35    -19.24     16.59
   11   15   35      4.19      0.43
    9   15   35      2.49    -34.90
    7   15   35     12.78     -8.46
    5   15   35      7.66     23.65
    3   15   35     -5.80    -15.28
    1   15   35      2.90     20.66
   15   15   35      7.07     13.93
   15   17   35    -11.15    -22.76
   13   17   35     29.96     -6.58
   11   17   35     33.59     -3.55
    9   17   35     -2.94     15.14
    7   17   35      2.33     -4.72
    5   17   35     19.02     24.15
    3   17   35    -12.10    -22.08
    1   17   35     -8.86     13.70
   17   17   35     12.67      3.35
   17   19   35      0.07     14.22
   15   19   35      4.85     14.82
   13   19   35      7.32     -7.47
   11   19   35    -31.93    -26.11
    9   19   35      3.99     10.06
    7   19   35     20.35     -6.84
    5   19   35     -8.26    -11.91
    3   19   35     30.05      9.25
    1   19   35    -12.89      9.66
   19   19   35     -9.34     -7.97
   19   21   35    -34.66    -27.19
   17   21   35     27.20     -2.38
   15   21   35      2.56     46.63
   13   21   35    -13.34    -11.80
   11   21   35     -5.14    -38.44
    9   21   35    -25.66     -2.51
    7   21   35     -2.11     10.09
    5   21   35    -29.74      7.90
    3   21   35     -1.88    -17.60
    1   21   35    -26.83      6.17
   21   21   35      3.15      0.16
   21   23   35      3.05     18.85
   19   23   35    -18.19    -15.05
   17   23   35     -6.74     -2.80
   15   23   35     -4.77     25.16
   13   23   35    -14.83      6.30
   11   23   35     -4.58     21.61
    9   23   35    -38.09    -31.33
    7   23   35     -4.73      9.65
    5   23   35      4.41    -13.58
    3   23   35      4.48     22.21
    1   23   35     -8.96     -8.05
   23   23   35     -1.58     25.74
   23   25   35     16.01     -8.33
   21   25   35     10.98     -2.66
   19   25   35     -2.68    -15.48
   17   25   35     -5.41    -10.17
   15   25   35     26.82     25.32
   13   25   35    -16.99    -25.19
   11   25   35      0.80     42.42
    9   25   35     -5.50      4.50
    7   25   35    -22.14      7.92
    5   25   35     21.01    -31.77
    3   25   35    -22.95    -12.88
    1   25   35     20.35    -15.38
   25   25   35     -7.60     -8.46
   25   27   35     -7.59     -8.57
   23   27   35     27.81      1.14
   21   27   35      7.41     12.38
   19   27   35     14.96     -8.34
   17   27   35     22.91     -6.46
   15   27   35    -11.59      1.19
   13   27   35     -4.41    -10.53
   11   27   35     -1.76     18.05
    9   27   35      3.82    -21.98
    7   27   35    -29.89     -5.84
    5   27   35    -21.88     14.25
    3   27   35     15.82      3.23
    1   27   35     -3.84     -3.11
   27   27   35     33.19     28.46
   27   29   35      1.95     11.53
   25   29   35     16.16     13.21
   23   29   35     20.88     10.02
   21   29   35     -4.26     -1.02
   19   29   35      5.54     23.89
   17   29   35      3.26    -12.63
   15   29   35    -10.69     -9.18
   13   29   35     -0.42    -10.76
   11   29   35    -14.13     11.86
    9   29   35    -11.65     26.47
    7   29   35    -15.99      4.77
    5   29   35     19.44     11.84
    3   29   35     -4.15      4.65
    1   29   35     14.05      4.38
   25   31   35      1.88     -9.95
   23   31   35     14.68     -4.73
   21   31   35      7.53      3.89
   19   31   35     14.57    -19.15
   17   31   35      5.44     -4.16
   15   31   35     -8.00    -22.26
   13   31   35     -1.58      6.48
   11   31   35      4.40      1.21
    9   31   35     18.36     16.09
    7   31   35    -23.65      5.80
    5   31   35     -0.10    -18.63
    3   31   35     22.78    -34.55
    1   31   35      2.12     13.71
   23   33   35     23.83     -0.95
   21   33   35     -0.74     14.53
   19   33   35      1.00     -2.25
   17   33   35     16.44    -17.31
   15   33   35      6.57     -0.30
   13   33   35      1.06     -1.35
   11   33   35      3.14     -3.56
    9   33   35      6.11     28.04
    7   33   35     18.19     -7.03
    5   33   35      3.08      7.05
    3   33   35     -0.91    -37.15
    1   33   35    -25.13     33.12
    1   35   35      3.71     -3.06
    3   35   35    -13.67    -24.13
    5   35   35     -4.47      1.72
    7   35   35      9.65      6.43
    9   35   35      4.84     -3.11
   11   35   35      6.57     11.79
   13   35   35     -3.54      4.45
   15   35   35     -8.57     -8.40
   17   35   35      2.54     -3.65
   19   35   35     -2.83     -5.79
    0    0   36   -154.30      2.60
    0    2   36    -45.78     -9.64
    2    2   36    -16.13      8.11
    2    4   36     14.89     39.70
    0    4   36     80.50     10.97
    4    4   36    -24.61      8.05
    4    6   36    -25.53     -6.11
    2    6   36     10.11    -77.93
    0    6   36     19.89     -0.62
    6    6   36      2.53     -5.27
    6    8   36    -15.04      6.66
    4    8   36    -19.83     -1.45
    2    8   36    -23.27      0.42
    0    8   36     -2.31      6.82
    8    8   36    -12.17      0.19
    8   10   36     24.96     11.81
    6   10   36    -52.05    -53.32
    4   10   36     23.00     25.14
    2   10   36     -3.44    -26.45
    0   10   36    -36.98      1.51
   10   10   36      0.17      1.79
   10   12   36     13.90      6.19
    8   12   36     17.50    -95.24
    6   12   36    -17.59      3.07
    4   12   36    -22.73    -25.03
    2   12   36     -7.97     11.36
    0   12   36     -6.59      1.51
   12   12   36     30.56     -1.94
   12   14   36     14.92     18.29
   10   14   36     24.60    -14.27
    8   14   36    -25.03     26.42
    6   14   36      7.46     20.30
    4   14   36    -33.58      0.76
    2   14   36     20.70     12.94
    0   14   36     -3.40     -2.03
   14   14   36      5.83      0.52
   14   16   36     40.72    -17.28
   12   16   36     26.27    -28.83
   10   16   36     33.90      4.07
    8   16   36     13.02    -10.23
    6   16   36     14.03     -9.07
    4   16   36    -12.77     -3.91
    2   16   36    -12.28    -18.76
    0   16   36     -5.95     -0.83
   16   16   36      4.45      0.12
   16   18   36     -7.42     18.76
   14   18   36    -20.33      4.31
   12   18   36    -14.27    -19.24
   10   18   36     -7.38    -24.12
    8   18   36    -15.05    -14.60
    6   18   36     -4.82    -11.53
    4   18   36      3.37    -28.73
    2   18   36     10.10      2.52
    0   18   36     17.54     -6.34
   18   18   36    -29.10      3.60
   18   20   36    -29.41     -5.45
   16   20   36     -6.66      0.35
   14   20   36      0.45     -1.27
   12   20   36     -8.13    -17.71
   10   20   36    -36.40     -8.61
    8   20   36      8.36     -8.22
    6   20   36     14.44    -21.58
    4   20   36     -8.02     14.85
    2   20   36     32.91    -24.70
    0   20   36    -10.97      9.34
   20   20   36     -1.49      0.14
   20   22   36      8.38     14.63
   18   22   36    -13.14      0.71
   16   22   36      6.05     -2.58
   14   22   36    -22.68    -10.09
   12   22   36     13.98    -23.55
   10   22   36      0.53     -8.92
    8   22   36     20.61      5.24
    6   22   36     -0.96    -13.40
    4   22   36     -8.54      1.91
    2   22   36    -19.00     11.23
    0   22   36    -10.52      4.79
   22   22   36     -1.52      0.19
   22   24   36     18.92     -2.02
   20   24   36     14.04    -22.80
   18   24   36     29.86    -16.44
   16   24   36     -1.54    -25.46
   14   24   36      9.05    -13.42
   12   24   36    -31.14    -11.77
   10   24   36     14.74    -27.89
    8   24   36     -3.28     -6.27
    6   24   36     35.17    -11.87
    4   24   36     -1.07      6.23
    2   24   36      0.46    -10.34
    0   24   36     19.88      2.41
   24   24   36    -11.37     -1.29
   24   26   36      7.00    -16.96
   22   26   36      0.39     11.21
   20   26   36     -4.87     -9.70
   18   26   36      0.54      0.44
   16   26   36    -24.05     -5.31
   14   26   36     -7.35    -29.55
   12   26   36     22.25    -13.83
   10   26   36     17.19    -15.76
    8   26   36     14.25     -7.86
    6   26   36    -10.23     -0.93
    4   26   36     -5.03     34.16
    2   26   36     -2.83     -5.75
    0   26   36      9.82     -3.66
   26   26   36      5.87      1.24
   26   28   36     16.62      5.47
   24   28   36      0.27      2.11
   22   28   36     13.36    -10.12
   20   28   36     -7.89     21.12
   18   28   36     -3.14     10.26
   16   28   36      7.89    -24.42
   14   28   36     10.97     -9.55
   12   28   36    -13.28     -3.60
   10   28   36      7.46    -11.13
    8   28   36     18.84      7.61
    6   28   36     22.39    -13.80
    4   28   36    -20.55      9.58
    2   28   36    -23.81    -46.12
    0   28   36    -17.91      4.73
   28   28   36     -7.44     -0.31
   26   30   36      4.81     -9.77
   24   30   36      9.00     10.17
   22   30   36     -2.46     -2.43
   20   30   36    -13.43     -2.34
   18   30   36     -7.88     11.17
   16   30   36     -8.29    -28.84
   14   30   36    -14.02     21.94
   12   30   36     -7.31     -7.38
   10   30   36     -3.31      0.20
    8   30   36     10.98     -5.94
    6   30   36     18.75    -14.40
    4   30   36    -15.59     -5.00
    2   30   36      3.43     -7.54
    0   30   36      8.73     -0.85
   22   32   36     -0.29      1.56
   20   32   36     16.20     -4.46
   18   32   36      3.99     10.66
   16   32   36     -3.18    -10.23
   14   32   36    -15.51     -9.27
   12   32   36     11.37      2.07
   10   32   36    -16.34     28.76
    8   32   36     -9.93     -0.95
    6   32   36     18.34    -15.58
    4   32   36      9.48     -6.14
    2   32   36    -26.30     54.55
    0   32   36    -35.11    -10.15
   20   34   36     -5.41      9.04
   18   34   36      5.42    -11.12
   16   34   36      4.58     -6.87
   14   34   36     -6.00     -3.58
   12   34   36      0.46     -2.70
   10   34   36      2.58     -9.27
    8   34   36      0.04      5.31
    6   34   36     -0.41     -7.11
    4   34   36      8.57     34.17
    2   34   36    -11.51     21.70
    0   34   36     15.91     -5.77
    0   36   36     32.56    -34.34
    2   36   36    -23.00    -44.91
    4   36   36    -25.76     -2.49
    6   36   36     10.46    -30.57
    8   36   36    -22.17      2.56
   10   36   36     -0.05     13.94
   12   36   36      0.80     -0.51
   14   36   36      0.88      3.96
   16   36   36      9.75     -1.26
    1    1   37      3.56     -4.67
    1    3   37    -25.36     25.39
    3    3   37     11.58     -9.72
    3    5   37    -10.09    -30.48
    1    5   37     24.37     -1.93
    5    5   37     -3.10     11.00
    5    7   37     17.77    -51.17
    3    7   37    -13.44     18.41
    1    7   37     17.82     30.42
    7    7   37      6.34      6.14
    7    9   37     -4.32      4.51
    5    9   37    -12.07      3.96
    3    9   37     -5.36    -31.42
    1    9   37     11.98     -9.39
    9    9   37      8.99     -5.88
    9   11   37    -13.19    -13.42
    7   11   37    -13.12     10.59
    5   11   37      8.87    -16.69
    3   11   37      6.19     44.76
    1   11   37     17.05    -14.44
   11   11   37     -8.62     -6.39
   11   13   37      3.68     -7.44
    9   13   37      2.61     -1.34
    7   13   37     -1.83     18.98
    5   13   37    -32.93    -17.83
    3   13   37     20.42     -1.77
    1   13   37      9.59     -1.53
   13   13   37     -2.06      3.27
   13   15   37      3.47     -0.38
   11   15   37     10.76     -3.81
    9   15   37     29.73     19.34
    7   15   37     12.39     20.28
    5   15   37     -6.72     -2.01
    3   15   37      1.77     23.29
    1   15   37     -7.53    -48.09
   15   15   37     -4.97     -0.17
   15   17   37    -11.59     17.01
   13   17   37      8.85     -2.84
   11   17   37    -19.86     19.55
    9   17   37      4.00     -1.35
    7   17   37      3.09     21.16
    5   17   37     -6.47      4.37
    3   17   37    -10.92    -24.48
    1   17   37    -15.15    -37.43
   17   17   37      5.77     -1.77
   17   19   37     -1.84     13.99
   15   19   37      0.63    -22.37
   13   19   37     -7.24     -6.83
   11   19   37    -34.26    -13.19
    9   19   37    -18.10     12.31
    7   19   37      0.38    -18.56
    5   19   37     -7.06      3.77
    3   19   37    -28.06     38.05
    1   19   37    -23.27      7.52
   19   19   37    -10.89      4.66
   19   21   37     -1.49     15.11
   17   21   37      5.92      3.92
   15   21   37      5.71      4.82
   13   21   37      4.77     16.94
   11   21   37     11.86     -6.35
    9   21   37    -15.49    -18.54
    7   21   37    -12.57      8.05
    5   21   37      2.79      8.28
    3   21   37      3.90     -0.52
    1   21   37     -5.47    -33.48
   21   21   37     11.67    -10.20
   21   23   37      8.79    -18.13
   19   23   37      7.78     20.40
   17   23   37     17.71    -13.20
   15   23   37      7.03     -5.74
   13   23   37    -27.92    -16.88
   11   23   37      8.20    -10.16
    9   23   37      3.64     -5.97
    7   23   37     -7.15    -15.21
    5   23   37     22.04    -20.19
    3   23   37      6.46      3.85
    1   23   37      2.17      3.37
   23   23   37      5.12     -8.17
   23   25   37     -5.58     17.52
   21   25   37      1.63     12.78
   19   25   37     -0.29      1.71
   17   25   37      5.94     -4.33
   15   25   37     -6.19     -8.88
   13   25   37    -17.09      4.12
   11   25   37     -0.09     27.64
    9   25   37     -3.44     -7.76
    7   25   37    -27.26     22.18
    5   25   37     -9.26     -4.55
    3   25   37     23.79     -5.84
    1   25   37     -4.41    -16.13
   25   25   37      8.63     -5.24
   25   27   37      7.77      4.97
   23   27   37      7.26     -5.40
   21   27   37     18.43      1.55
   19   27   37     -6.65      5.81
   17   27   37    -29.82    -22.56
   15   27   37      3.59     12.89
   13   27   37     -5.43     -4.50
   11   27   37    -10.24     -5.32
    9   27   37     24.29     -6.10
    7   27   37     -7.08      4.17
    5   27   37      2.88      8.97
    3   27   37     10.85      1.47
    1   27   37    -25.23     -1.83
   27   27   37     11.74    -20.66
   25   29   37     -2.60    -17.94
   23   29   37     16.62     -1.04
   21   29   37     -0.32    -11.68
   19   29   37     19.21     -5.56
   17   29   37     15.62      6.74
   15   29   37    -15.95     -2.60
   13   29   37     14.65    -13.15
   11   29   37    -22.17     -9.02
    9   29   37    -11.42     -3.56
    7   29   37     14.56    -13.04
    5   29   37      7.01     29.57
    3   29   37     -5.06    -27.30
    1   29   37    -15.66     -5.40
   23   31   37    -23.70     -1.94
   21   31   37      4.48     -9.37
   19   31   37     23.85      3.52
   17   31   37      5.46     10.67
   15   31   37      1.19     -9.53
   13   31   37     10.67      4.44
   11   31   37     10.11      7.21
    9   31   37      5.30     -9.15
    7   31   37     27.93      1.48
    5   31   37    -10.77     15.29
    3   31   37    -20.52    -16.43
    1   31   37     -8.37     48.86
   19   33   37     13.93     -5.62
   17   33   37     13.63     -8.62
   15   33   37     14.53     -2.41
   13   33   37      1.36     -5.77
   11   33   37      3.69     -2.40
    9   33   37     -7.21     -3.21
    7   33   37     12.81    -18.62
    5   33   37      2.99     14.50
    3   33   37     17.60      5.90
    1   33   37     25.72     23.30
   17   35   37     -8.27     -1.52
   15   35   37     -1.89     -5.29
   13   35   37    -16.75     -2.40
   11   35   37     -0.94      2.63
    9   35   37     -5.65    -15.58
    7   35   37     31.93     -8.35
    5   35   37    -44.09     12.41
    3   35   37    -31.19     12.64
    1   35   37    -13.36     -2.63
    1   37   37      2.67     -7.58
    3   37   37     25.15     23.71
    5   37   37      0.47      0.18
    7   37   37     10.70     10.34
    9   37   37     16.93    -15.23
   11   37   37      8.21    -12.63
    0    2   38     20.00    -10.63
    2    2   38     -2.37     78.19
    2    4   38    -37.41     19.92
    0    4   38    -15.80     -2.02
    4    4   38     -4.59     27.14
    4    6   38     22.38    -39.07
    2    6   38      3.88    -11.05
    0    6   38     25.66      4.18
    6    6   38     13.56     -9.07
    6    8   38    -12.38    -31.81
    4    8   38     48.72     24.49
    2    8   38     -6.74    -12.37
    0    8   38    -12.06      1.64
    8    8   38      2.22    -34.81
    8   10   38     27.34     59.07
    6   10   38     29.51     22.52
    4   10   38    -11.28    -26.00
    2   10   38      6.24      6.74
    0   10   38     15.45      2.51
   10   10   38    -10.84     36.55
   10   12   38     17.64    -24.02
    8   12   38    -11.29     22.31
    6   12   38    -31.14      4.38
    4   12   38     -1.74      8.41
    2   12   38    -15.44     -5.40
    0   12   38      7.83     -0.61
   12   12   38      4.24    -18.97
   12   14   38     13.69     14.02
   10   14   38     12.82    -15.94
    8   14   38    -14.27     26.91
    6   14   38      3.54    -34.62
    4   14   38      5.86    -17.80
    2   14   38     -0.42      3.85
    0   14   38     10.61     -1.80
   14   14   38     -0.01     -1.61
   14   16   38    -18.12    -10.78
   12   16   38     48.85    -11.33
   10   16   38     14.84    -23.00
    8   16   38     13.08    -11.93
    6   16   38     16.63    -12.85
    4   16   38    -21.74      0.48
    2   16   38     -3.53      8.04
    0   16   38    -10.44      4.77
   16   16   38     -0.37     -2.56
   16   18   38    -10.59    -14.78
   14   18   38     14.80     -4.65
   12   18   38    -31.81    -18.93
   10   18   38     32.45    -30.95
    8   18   38     16.60     -2.36
    6   18   38    -10.55     -0.39
    4   18   38      4.93     15.33
    2   18   38     -1.39      1.78
    0   18   38    -10.69     -3.38
   18   18   38     -1.91     13.18
   18   20   38     -2.30     50.74
   16   20   38      4.32     -0.40
   14   20   38    -35.36    -16.90
   12   20   38     16.53     -3.89
   10   20   38     -3.02     -8.12
    8   20   38      8.74    -16.84
    6   20   38    -16.60      2.87
    4   20   38      9.48    -15.41
    2   20   38    -15.18      4.86
    0   20   38      4.23      2.84
   20   20   38      0.72     16.91
   20   22   38    -35.60     21.61
   18   22   38     16.53     -2.39
   16   22   38      6.29     -9.03
   14   22   38     -6.50     -9.61
   12   22   38     10.78    -15.76
   10   22   38     18.77    -29.96
    8   22   38      5.44      2.57
    6   22   38     13.51     13.60
    4   22   38     -5.74      8.14
    2   22   38     27.72     -8.02
    0   22   38     29.96      1.81
   22   22   38      0.22    -25.80
   22   24   38    -31.12     23.39
   20   24   38    -18.59      4.80
   18   24   38      0.40    -12.55
   16   24   38      7.24    -13.88
   14   24   38     18.79    -18.97
   12   24   38     -3.49     -4.93
   10   24   38      0.65     -9.69
    8   24   38    -10.38    -13.07
    6   24   38     22.40      5.30
    4   24   38     18.61      9.76
    2   24   38     -5.42    -23.41
    0   24   38     -1.95     -3.97
   24   24   38      4.42     -0.90
   24   26   38    -25.86     -0.12
   22   26   38    -19.18      7.64
   20   26   38    -23.25      7.31
   18   26   38     22.47     -7.54
   16   26   38     -1.97     -9.20
   14   26   38    -14.04    -46.35
   12   26   38     10.77      4.39
   10   26   38     -5.43     -9.24
    8   26   38     -8.58     -5.01
    6   26   38    -35.13    -37.43
    4   26   38     -7.53    -30.69
    2   26   38    -12.56     -0.98
    0   26   38    -36.55      0.94
   26   26   38     -5.01    -15.01
   24   28   38     -0.88      7.65
   22   28   38     11.97      8.05
   20   28   38     23.49     13.24
   18   28   38     -2.66    -17.45
   16   28   38     11.42    -23.03
   14   28   38     -5.68     11.51
   12   28   38     -3.37    -24.15
   10   28   38      6.22      0.70
    8   28   38      4.88     -1.11
    6   28   38      2.53    -14.11
    4   28   38      8.09     -1.83
    2   28   38    -37.96     12.58
    0   28   38    -18.34      2.25
   22   30   38    -15.21     13.18
   20   30   38     14.59      3.32
   18   30   38    -12.67     -5.25
   16   30   38    -13.03      2.52
   14   30   38     -2.35     15.01
   12   30   38     -8.99      0.54
   10   30   38     20.96    -19.67
    8   30   38     -6.35    -16.42
    6   30   38      1.33     35.01
    4   30   38    -23.56    -13.54
    2   30   38    -32.37     27.87
    0   30   38     30.90     -0.37
   20   32   38    -15.61      2.79
   18   32   38    -17.68     -2.98
   16   32   38    -11.67     -7.77
   14   32   38     -1.20     -0.33
   12   32   38    -12.92    -11.95
   10   32   38    -15.81    -15.53
    8   32   38      5.88     -5.55
    6   32   38    -22.20     17.77
    4   32   38     13.33     -2.93
    2   32   38     33.19     -2.58
    0   32   38      4.56     -1.08
   16   34   38     10.13      9.43
   14   34   38      3.84     -2.84
   12   34   38      5.39      1.23
   10   34   38      8.65      3.24
    8   34   38    -26.09     15.47
    6   34   38    -33.11    -15.30
    4   34   38     12.73    -18.09
    2   34   38      7.77     20.53
    0   34   38    -19.94      0.67
   12   36   38    -17.89      1.03
   10   36   38     14.71    -34.74
    8   36   38      4.25     -7.17
    6   36   38      7.90      7.29
    4   36   38     -5.83     19.85
    2   36   38     12.03     20.40
    0   36   38    -20.30     -1.34
    0   38   38    -26.83     -3.58
    1    1   39    -15.13     -9.14
    1    3   39      7.33     -4.32
    3    3   39    -29.53    -16.72
    3    5   39      1.21     -9.75
    1    5   39      6.98    -15.89
    5    5   39     16.54    -10.36
    5    7   39     22.42      0.46
    3    7   39    -26.28     27.82
    1    7   39     24.84     26.36
    7    7   39      9.61      6.20
    7    9   39    -15.42     35.46
    5    9   39     20.64     21.81
    3    9   39     -6.41     20.93
    1    9   39      7.36    -24.46
    9    9   39     29.09     30.61
    9   11   39     15.32      0.39
    7   11   39      6.77     -4.28
    5   11   39    -46.23      9.63
    3   11   39     -1.24      3.91
    1   11   39     -9.49      3.47
   11   11   39     10.86     11.13
   11   13   39      7.82     -3.04
    9   13   39     -5.20      2.67
    7   13   39     22.58      6.92
    5   13   39     12.99    -25.01
    3   13   39      5.49     25.24
    1   13   39      3.91    -25.37
   13   13   39     -2.24     40.48
   13   15   39      6.91    -16.48
   11   15   39    -10.05     -8.76
    9   15   39     -6.80    -13.63
    7   15   39     -3.13     -8.97
    5   15   39      0.08     21.98
    3   15   39      2.14    -13.23
    1   15   39     24.29      2.29
   15   15   39      4.99      8.56
   15   17   39     -6.66      3.42
   13   17   39      9.90     -9.96
   11   17   39      4.77      1.25
    9   17   39      2.10    -30.19
    7   17   39     -9.94     36.04
    5   17   39    -20.19    -15.99
    3   17   39    -13.01     16.43
    1   17   39     26.14     -8.29
   17   17   39     -2.68     -6.00
   17   19   39    -16.86     18.05
   15   19   39    -10.98    -15.94
   13   19   39     -9.01     -7.66
   11   19   39    -12.15      5.44
    9   19   39     -8.29     -9.73
    7   19   39      0.12      8.34
    5   19   39     28.72      9.53
    3   19   39    -15.01      8.97
    1   19   39     -8.53     -8.02
   19   19   39     19.34     14.89
   19   21   39     20.34      2.24
   17   21   39     -4.77     -7.79
   15   21   39     -1.75    -27.11
   13   21   39    -13.75      5.10
   11   21   39    -30.05    -11.21
    9   21   39    -22.06    -19.89
    7   21   39    -10.36     22.37
    5   21   39     22.67     17.85
    3   21   39    -10.29    -23.77
    1   21   39     10.54     -3.89
   21   21   39     -6.92     21.10
   21   23   39     -0.09      3.40
   19   23   39     25.60      6.31
   17   23   39    -12.69    -20.29
   15   23   39    -19.10    -11.15
   13   23   39     17.86    -14.39
   11   23   39      2.70     22.77
    9   23   39     -4.51      0.26
    7   23   39      5.83     11.21
    5   23   39      2.39     -6.21
    3   23   39    -24.15     19.90
    1   23   39      6.23     -7.08
   23   23   39     24.07      9.15
   23   25   39      2.01      6.72
   21   25   39      5.68    -30.23
   19   25   39     26.83    -13.32
   17   25   39    -37.28      7.51
   15   25   39      3.64    -22.09
   13   25   39      3.69    -22.86
   11   25   39     -2.38    -41.35
    9   25   39    -27.16      9.80
    7   25   39      0.35    -13.46
    5   25   39     15.25     -2.08
    3   25   39     -2.11      0.58
    1   25   39     16.14      2.70
   25   25   39      6.97      5.04
   25   27   39      2.50      6.04
   23   27   39     -5.18    -21.33
   21   27   39      0.02      3.53
   19   27   39    -27.03    -27.55
   17   27   39     -2.68     -6.99
   15   27   39      8.60     -2.33
   13   27   39    -11.75     10.86
   11   27   39    -12.41      4.34
    9   27   39     -1.86     -0.77
    7   27   39      7.11     -2.07
    5   27   39     -1.76     -1.91
    3   27   39      2.10     15.72
    1   27   39     -2.66     -6.63
   21   29   39     11.46     -6.63
   19   29   39     -1.20     -5.53
   17   29   39      7.68    -17.40
   15   29   39      8.07      7.03
   13   29   39      2.70      6.10
   11   29   39     -7.22      6.25
    9   29   39     -3.80     -1.31
    7   29   39      7.96      7.66
    5   29   39      2.02    -10.74
    3   29   39     -0.61    -19.82
    1   29   39      6.93      8.57
   19   31   39     14.27     -1.25
   17   31   39      0.81      3.88
   15   31   39      1.56    -21.68
   13   31   39    -11.29      8.77
   11   31   39      5.62    -21.79
    9   31   39     20.25     10.60
    7   31   39      3.23     -1.90
    5   31   39     -9.93      4.89
    3   31   39     -4.35      1.89
    1   31   39     12.16     -2.90
   15   33   39     -3.47     -6.85
   13   33   39     -9.97      1.30
   11   33   39     13.67     -3.57
    9   33   39     -6.56     10.73
    7   33   39     -6.60     -5.54
    5   33   39     17.88     24.19
    3   33   39      6.38    -22.73
    1   33   39    -22.34     13.00
   11   35   39      9.03     -8.85
    9   35   39      7.41    -14.31
    7   35   39     28.20     -3.18
    5   35   39      9.77    -14.27
    3   35   39     16.68      2.57
    1   35   39    -19.49     16.14
    0    0   40   -112.83     28.59
    0    2   40      5.29     -2.78
    2    2   40     27.24     46.63
    2    4   40     -4.91    -12.95
    0    4   40     12.77     11.17
    4    4   40     32.51     -6.61
    4    6   40      2.60     14.10
    2    6   40     -6.89      9.15
    0    6   40     13.98      5.63
    6    6   40    -26.64     -1.55
    6    8   40     35.46    -18.17
    4    8   40     -8.69     -2.12
    2    8   40     34.56     -2.26
    0    8   40     28.79     -0.13
    8    8   40    -11.02      3.82
    8   10   40      6.51      4.61
    6   10   40      9.13    -23.59
    4   10   40     14.41     -7.78
    2   10   40      7.93      8.72
    0   10   40    -31.90      0.97
   10   10   40     -3.01     -3.73
   10   12   40     10.93    -24.45
    8   12   40     13.72     45.91
    6   12   40      8.96      3.17
    4   12   40    -24.20      3.02
    2   12   40     -4.44     13.67
    0   12   40     -1.17     -1.93
   12   12   40    -14.60      4.53
   12   14   40     30.71    -14.25
   10   14   40     32.64     10.72
    8   14   40     24.79    -18.65
    6   14   40     -1.50     -0.59
    4   14   40      6.09     -3.54
    2   14   40      2.41      3.17
    0   14   40    -26.52     -0.80
   14   14   40      3.56     -0.36
   14   16   40      0.31    -41.74
   12   16   40     -9.24      9.41
   10   16   40      6.72     29.56
    8   16   40      5.84     -5.54
    6   16   40     -3.17     -8.11
    4   16   40     -5.39      7.42
    2   16   40      4.93    -42.37
    0   16   40     13.48      1.78
   16   16   40    -20.50      0.33
   16   18   40     -4.85    -20.28
   14   18   40      4.95      9.44
   12   18   40      9.25      6.27
   10   18   40     19.59     -4.34
    8   18   40     20.61     -7.63
    6   18   40    -13.94      3.91
    4   18   40     19.36    -20.10
    2   18   40     12.07      2.44
    0   18   40     33.31     -3.75
   18   18   40    -38.12     -0.68
   18   20   40     12.66    -18.28
   16   20   40    -16.08      5.66
   14   20   40     36.28     -3.97
   12   20   40     -5.35     -7.25
   10   20   40      4.27      6.28
    8   20   40     -3.57     -2.41
    6   20   40     -1.66     -3.72
    4   20   40      4.98    -16.18
    2   20   40     10.19    -23.72
    0   20   40    -17.37     -4.56
   20   20   40    -28.61      1.12
   20   22   40     -7.38      3.47
   18   22   40     -0.54     -1.16
   16   22   40    -28.12    -10.72
   14   22   40     12.13      1.27
   12   22   40      5.16    -11.49
   10   22   40     20.36      2.35
    8   22   40    -19.32      9.37
    6   22   40     -4.47      8.50
    4   22   40      8.44    -35.59
    2   22   40    -18.18     31.27
    0   22   40     34.26     -3.45
   22   22   40    -26.16     -1.11
   22   24   40     14.36     14.94
   20   24   40     -9.85    -10.13
   18   24   40    -10.96    -20.25
   16   24   40    -19.00     12.61
   14   24   40     25.31     -7.58
   12   24   40    -24.19     24.36
   10   24   40     -0.33    -14.73
    8   24   40     31.23     -5.99
    6   24   40     17.23     -4.04
    4   24   40    -15.44     14.66
    2   24   40     22.29     -0.09
    0   24   40      2.56      0.37
   24   24   40    -15.91     -2.09
   24   26   40     -1.51      3.31
   22   26   40     -6.64      8.95
   20   26   40     -2.60     14.53
   18   26   40    -17.06     -8.54
   16   26   40      7.83    -10.44
   14   26   40      5.98     -0.01
   12   26   40      2.70     -9.77
   10   26   40    -17.47      1.44
    8   26   40     13.03    -44.55
    6   26   40     -6.74      6.81
    4   26   40      2.49    -18.19
    2   26   40     14.47     21.58
    0   26   40      2.10     -1.81
   22   28   40    -15.79      5.89
   20   28   40    -10.93      5.22
   18   28   40    -10.74    -10.03
   16   28   40     -5.83      9.62
   14   28   40    -21.76    -31.28
   12   28   40     16.65    -15.46
   10   28   40     -8.36      8.15
    8   28   40    -23.78     -2.45
    6   28   40      4.79    -21.04
    4   28   40     -5.06      0.17
    2   28   40    -10.39      1.59
    0   28   40    -22.31      0.89
   18   30   40      2.40      3.91
   16   30   40     -8.61     -9.69
   14   30   40     19.47    -21.00
   12   30   40     14.91      9.08
   10   30   40     -2.87      3.23
    8   30   40      6.73    -14.68
    6   30   40      5.21      3.06
    4   30   40      4.16     -2.24
    2   30   40    -11.93    -15.88
    0   30   40    -14.85     -2.42
   16   32   40      4.67    -15.96
   14   32   40      0.10     -5.93
   12   32   40    -14.58     -8.18
   10   32   40     -4.08      5.50
    8   32   40     16.63    -15.87
    6   32   40     22.73     20.74
    4   32   40     -6.04    -20.01
    2   32   40    -32.04     -2.80
    0   32   40     -2.31     -5.61
   10   34   40    -31.89     -3.22
    8   34   40    -10.67     15.85
    6   34   40    -22.68    -23.29
    4   34   40    -27.56      5.10
    2   34   40     -9.86     -7.35
    0   34   40     21.12     -7.60
    1    1   41     11.29     -7.84
    1    3   41    -21.44     18.96
    3    3   41     -7.05     -4.78
    3    5   41    -22.59     -1.32
    1    5   41     15.63     27.41
    5    5   41    -39.91     39.54
    5    7   41     14.67      2.71
    3    7   41     -7.07     -2.25
    1    7   41     12.84     -4.20
    7    7   41     12.99     -3.85
    7    9   41     -5.93    -14.65
    5    9   41     -5.61     42.53
    3    9   41     25.82    -17.53
    1    9   41     18.97      7.83
    9    9   41     -7.71      8.18
    9   11   41      5.53     21.16
    7   11   41    -21.85     -3.56
    5   11   41    -16.24     31.45
    3   11   41     24.36     28.74
    1   11   41     26.91     -6.82
   11   11   41    -18.90     19.49
   11   13   41     19.77    -27.99
    9   13   41    -22.97    -19.65
    7   13   41    -26.83      5.57
    5   13   41     -6.74      1.41
    3   13   41     12.51     -3.20
    1   13   41     23.97     30.24
   13   13   41     -0.68     -5.24
   13   15   41     -4.13     30.37
   11   15   41      8.80     31.79
    9   15   41     -1.19     -5.74
    7   15   41    -11.01    -21.96
    5   15   41     12.89     -4.65
    3   15   41      6.98     14.12
    1   15   41      9.07    -17.41
   15   15   41    -17.74     17.97
   15   17   41      3.63     12.73
   13   17   41     -3.08      7.31
   11   17   41      8.59     21.06
    9   17   41     -5.13    -15.10
    7   17   41     -0.39     14.88
    5   17   41      8.10     19.41
    3   17   41     14.86    -17.02
    1   17   41      7.38     14.98
   17   17   41     18.45    -19.03
   17   19   41     -8.15    -19.15
   15   19   41     -6.01     -7.41
   13   19   41     -6.82      8.63
   11   19   41     23.99      9.11
    9   19   41      4.72     10.03
    7   19   41     -0.68     -8.88
    5   19   41     47.21      5.86
    3   19   41     16.39      9.61
    1   19   41     25.63     10.63
   19   19   41     15.00     -1.84
   19   21   41      0.16    -26.59
   17   21   41     -4.63    -30.83
   15   21   41      0.90     17.13
   13   21   41      1.80     -5.18
   11   21   41    -22.32    -12.94
    9   21   41    -11.27    -18.17
    7   21   41    -17.31      5.13
    5   21   41      7.97      8.74
    3   21   41      1.31      2.06
    1   21   41      2.22      0.96
   21   21   41    -17.44     16.99
   21   23   41    -26.60     29.46
   19   23   41    -21.54    -10.56
   17   23   41    -23.44    -32.21
   15   23   41      5.94     -9.42
   13   23   41     -8.94     -9.36
   11   23   41     -5.49     -8.52
    9   23   41    -18.06      7.59
    7   23   41     10.79      6.83
    5   23   41      0.43      4.35
    3   23   41     -8.38     -8.39
    1   23   41     24.79      3.99
   23   23   41     -7.61      4.63
   23   25   41     -7.48      8.59
   21   25   41    -13.23      4.72
   19   25   41     12.14    -15.64
   17   25   41     20.37      2.64
   15   25   41    -16.95      8.42
   13   25   41      6.25     -5.22
   11   25   41     -4.67    -17.52
    9   25   41    -13.17      4.34
    7   25   41      2.87    -15.90
    5   25   41      4.23     14.49
    3   25   41     29.50    -13.50
    1   25   41      8.29    -10.46
   21   27   41     35.21      4.24
   19   27   41      5.96     -8.94
   17   27   41      7.32    -25.85
   15   27   41    -32.17     -3.20
   13   27   41    -20.84      4.25
   11   27   41     -7.43      2.45
    9   27   41      5.16     -1.94
    7   27   41      4.62     -0.31
    5   27   41    -11.50      2.89
    3   27   41     13.88     -7.72
    1   27   41    -11.72    -20.67
   19   29   41      0.28    -15.20
   17   29   41     14.01    -10.52
   15   29   41    -12.31     -0.98
   13   29   41     -8.75     10.82
   11   29   41      2.73      0.66
    9   29   41      1.35      3.59
    7   29   41    -16.87      5.56
    5   29   41     12.74    -10.41
    3   29   41     -3.58      6.65
    1   29   41     -2.24    -23.64
   15   31   41     -3.54     -2.35
   13   31   41      3.89     15.86
   11   31   41     -8.79     -8.22
    9   31   41      9.48      6.13
    7   31   41      3.67      4.32
    5   31   41     15.09      0.12
    3   31   41    -13.79    -15.91
    1   31   41     30.05     -7.69
    9   33   41     14.14     20.64
    7   33   41     10.66      7.47
    5   33   41    -22.66     13.82
    3   33   41    -15.26     18.50
    1   33   41    -14.11    -25.90
    0    2   42    -10.39     -7.53
    2    2   42    -23.48      2.09
    2    4   42     18.05     45.77
    0    4   42     31.81     -2.00
    4    4   42      1.89     -4.41
    4    6   42      3.30     38.12
    2    6   42     15.53     -1.64
    0    6   42     11.35     -7.33
    6    6   42      1.63      7.78
    6    8   42      2.76     23.26
    4    8   42     24.12      1.90
    2    8   42      5.87     30.74
    0    8   42      7.46     -1.97
    8    8   42     -2.27     -6.60
    8   10   42    -33.98     16.57
    6   10   42     21.73    -47.53
    4   10   42    -54.94     10.15
    2   10   42      1.04      5.45
    0   10   42    -10.17      1.06
   10   10   42     -0.99     -3.91
   10   12   42     12.32      3.65
    8   12   42     -7.29      1.34
    6   12   42     -7.03     31.53
    4   12   42      8.25     -8.67
    2   12   42     61.94     -8.72
    0   12   42     15.71      0.18
   12   12   42     -1.60     -4.54
   12   14   42     40.55    -24.26
   10   14   42     33.88    -14.90
    8   14   42     27.05     17.92
    6   14   42     -1.12      1.54
    4   14   42     -0.44      7.22
    2   14   42     13.18     23.07
    0   14   42     28.70     -7.33
   14   14   42      6.89    -18.75
   14   16   42      9.90     -5.47
   12   16   42     -3.78    -20.65
   10   16   42     -7.49      9.79
    8   16   42     15.96    -24.68
    6   16   42     -3.66     30.55
    4   16   42     -9.18     11.60
    2   16   42     -8.21     16.55
    0   16   42    -33.73     -1.12
   16   16   42     -1.35     35.89
   16   18   42     11.04     28.07
   14   18   42      3.70     -5.38
   12   18   42    -10.14    -11.20
   10   18   42     -6.50     -7.24
    8   18   42    -12.71      1.62
    6   18   42     23.88      3.00
    4   18   42    -51.00    -10.18
    2   18   42    -28.49     -8.88
    0   18   42      9.46      0.35
   18   18   42      0.86    -12.86
   18   20   42      0.48    -11.64
   16   20   42    -13.32     -7.96
   14   20   42     -4.99      4.85
   12   20   42      1.07     -4.41
   10   20   42     -2.78    -11.21
    8   20   42     -4.01    -14.39
    6   20   42     21.41      1.32
    4   20   42     -1.21    -12.92
    2   20   42     17.42     -8.91
    0   20   42     12.93     -1.10
   20   20   42     -0.40      2.47
   20   22   42    -19.05     -4.62
   18   22   42      6.75    -16.15
   16   22   42     -7.98     15.06
   14   22   42     17.38      1.04
   12   22   42     -2.02     -5.06
   10   22   42     -0.61     23.47
    8   22   42      4.14      8.31
    6   22   42     19.19    -25.78
    4   22   42     19.73      4.74
    2   22   42     11.29     -8.06
    0   22   42      2.55     -0.32
   22   22   42     -0.41     -4.08
   22   24   42    -19.48     -7.26
   20   24   42     -9.39    -13.31
   18   24   42    -25.88      0.62
   16   24   42      9.65     -6.53
   14   24   42     12.74     -9.72
   12   24   42      8.43     -7.65
   10   24   42     11.60      7.02
    8   24   42      6.88      7.86
    6   24   42      3.30     -2.20
    4   24   42      8.59     -7.12
    2   24   42      8.84    -18.34
    0   24   42      7.27    -36.80
   20   26   42     -2.54     18.13
   18   26   42     -0.41     11.58
   16   26   42      9.44    -26.70
   14   26   42     -4.41    -21.39
   12   26   42      8.01     12.96
   10   26   42    -28.26     -4.78
    8   26   42      3.24     26.99
    6   26   42     20.76     -1.43
    4   26   42      5.08      3.93
    2   26   42     47.02    -21.78
    0   26   42    -34.57     -1.32
   18   28   42      5.11    -13.61
   16   28   42     -6.55     13.73
   14   28   42    -23.06      5.24
   12   28   42     -7.76     -3.87
   10   28   42     23.54    -10.02
    8   28   42      9.44      3.98
    6   28   42     -7.04      1.03
    4   28   42     11.59     -6.12
    2   28   42    -26.34     10.44
    0   28   42     11.60     -1.70
   14   30   42     -8.87     -7.80
   12   30   42     -0.10    -12.99
   10   30   42      1.62     14.12
    8   30   42    -12.17     -0.39
    6   30   42     -2.05    -35.41
    4   30   42     -0.83     -2.71
    2   30   42     16.30     29.70
    0   30   42    -29.84     -2.30
   10   32   42    -18.06      7.72
    8   32   42      2.90      2.36
    6   32   42    -23.53    -29.74
    4   32   42     -2.18      3.89
    2   32   42     10.41     -5.51
    0   32   42     35.64     -0.80
    1    1   43     21.18     20.76
    1    3   43     -2.69     24.27
    3    3   43    -24.50    -22.72
    3    5   43    -24.89     -6.08
    1    5   43    -11.70     18.77
    5    5   43     11.89      9.78
    5    7   43     10.62     51.35
    3    7   43     22.69    -21.95
    1    7   43      9.99     16.00
    7    7   43     30.23     27.50
    7    9   43     -8.82     -4.22
    5    9   43      1.94     17.09
    3    9   43     -0.98     34.58
    1    9   43     21.14    -20.34
    9    9   43     -6.93     -2.42
    9   11   43     -3.54     12.31
    7   11   43    -10.59     39.92
    5   11   43    -42.43    -13.11
    3   11   43      0.26     -8.12
    1   11   43      4.75     16.47
   11   11   43    -12.55     -0.51
   11   13   43    -22.14    -19.98
    9   13   43     25.42     12.28
    7   13   43      1.18    -15.86
    5   13   43     -0.57     -5.34
    3   13   43     -1.18      9.99
    1   13   43     20.16     -0.28
   13   13   43      3.92      4.93
   13   15   43     -0.93    -15.86
   11   15   43      3.37     11.72
    9   15   43     -0.23    -11.87
    7   15   43     -8.12      2.88
    5   15   43     -6.50      0.33
    3   15   43     24.11     14.76
    1   15   43     48.78     23.32
   15   15   43      3.18      5.10
   15   17   43     -3.21     -1.75
   13   17   43     -4.93    -11.21
   11   17   43     -4.31     -6.21
    9   17   43      9.80    -20.72
    7   17   43     -3.13    -19.64
    5   17   43    -41.96     22.29
    3   17   43     43.37     35.30
    1   17   43     20.07      6.07
   17   17   43     10.99      5.22
   17   19   43    -23.21      4.04
   15   19   43     22.21    -23.37
   13   19   43      5.10    -27.47
   11   19   43     13.88     -9.54
    9   19   43     24.00     20.26
    7   19   43     -5.55     12.08
    5   19   43      4.20     12.66
    3   19   43      4.30      3.31
    1   19   43      5.86     22.41
   19   19   43      2.95     10.04
   19   21   43     29.13     11.27
   17   21   43    -19.59     19.06
   15   21   43     11.36     -5.67
   13   21   43    -15.80     -1.17
   11   21   43    -10.01     -1.45
    9   21   43     18.65     11.55
    7   21   43     16.85     -9.71
    5   21   43     16.31      7.98
    3   21   43     41.11     35.50
    1   21   43     16.37      9.38
   21   21   43      5.08      2.93
   21   23   43     -1.72     12.29
   19   23   43     -6.04     23.86
   17   23   43     12.89    -20.12
   15   23   43      2.56    -14.08
   13   23   43     -2.89     -3.56
   11   23   43    -11.52    -16.96
    9   23   43    -14.70     21.00
    7   23   43      9.92      7.14
    5   23   43     10.56      7.49
    3   23   43     45.88    -11.65
    1   23   43     18.12     -4.01
   19   25   43    -12.25     -0.08
   17   25   43     12.83     19.74
   15   25   43      5.44    -32.03
   13   25   43      1.89     20.79
   11   25   43     -6.04     10.73
    9   25   43    -12.11      8.10
    7   25   43     -3.70     12.00
    5   25   43    -18.40     25.85
    3   25   43      8.44    -15.86
    1   25   43      9.68      9.59
   17   27   43     12.47      3.80
   15   27   43    -13.08    -20.33
   13   27   43      2.39     -4.02
   11   27   43     -9.07      9.92
    9   27   43     -3.69     -3.52
    7   27   43      5.80    -10.09
    5   27   43      7.27      2.89
    3   27   43     10.54    -28.15
    1   27   43     32.60      0.11
   13   29   43     16.84    -22.35
   11   29   43     -6.80      6.94
    9   29   43     -0.91     -9.58
    7   29   43      8.70     13.57
    5   29   43      7.63     -2.48
    3   29   43     -8.20     23.22
    1   29   43     -2.05    -15.24
    7   31   43      1.63     15.95
    5   31   43     -1.19    -16.12
    3   31   43      5.85     14.21
    1   31   43    -26.70     14.50
    0    0   44    -58.54     -4.46
    0    2   44    -54.44    -28.44
    2    2   44      2.91     27.64
    2    4   44    -36.08    -21.41
    0    4   44     14.47     10.89
    4    4   44     -5.89      3.84
    4    6   44     28.88    -19.60
    2    6   44     -4.88      4.68
    0    6   44     -4.88     -3.18
    6    6   44    -13.09     -4.98
    6    8   44    -19.22    -14.16
    4    8   44     -5.88      0.69
    2    8   44    -13.40     -9.80
    0    8   44     15.48     -2.49
    8    8   44      7.32    -13.00
    8   10   44    -17.30     14.97
    6   10   44     15.86      2.01
    4   10   44      0.15     32.22
    2   10   44    -14.52     11.04
    0   10   44     33.30      3.63
   10   10   44     11.10     -0.11
   10   12   44      4.98    -12.89
    8   12   44     -0.18     26.22
    6   12   44      3.26      6.72
    4   12   44      3.85     33.58
    2   12   44     -5.44    -24.66
    0   12   44    -22.21     -0.85
   12   12   44     21.60      0.79
   12   14   44     -8.67    -21.27
   10   14   44      6.53     10.90
    8   14   44     11.31     11.07
    6   14   44    -31.82     18.98
    4   14   44      4.62    -27.55
    2   14   44    -24.47     -8.90
    0   14   44    -29.65      2.27
   14   14   44      5.14      4.93
   14   16   44     14.29    -22.29
   12   16   44     19.19      2.77
   10   16   44     18.15     18.83
    8   16   44     -1.82     13.40
    6   16   44     24.34     -3.18
    4   16   44    -15.63     -6.64
    2   16   44     15.44    -27.87
    0   16   44     17.91     -0.54
   16   16   44     20.04     -0.75
   16   18   44     -5.03    -11.14
   14   18   44      5.10    -19.37
   12   18   44     19.68     -6.49
   10   18   44      5.34     -9.64
    8   18   44     -6.90     -3.35
    6   18   44      9.67      2.64
    4   18   44    -12.55    -15.21
    2   18   44     14.14    -17.28
    0   18   44     26.87      1.40
   18   18   44     17.23      0.73
   18   20   44    -19.23      1.10
   16   20   44      4.92    -25.11
   14   20   44     -8.47      4.16
   12   20   44     18.90      9.19
   10   20   44      6.08      8.64
    8   20   44    -13.63      2.90
    6   20   44    -14.15     20.33
    4   20   44    -16.58     -5.44
    2   20   44     -9.40    -23.42
    0   20   44    -35.39      3.29
   20   20   44    -20.99     -2.60
   20   22   44     -9.92     11.72
   18   22   44     -9.21      2.94
   16   22   44     15.42     -4.27
   14   22   44     -4.39      8.96
   12   22   44     -8.70     -3.23
   10   22   44     -2.33      3.25
    8   22   44     -0.78    -14.61
    6   22   44     18.07    -18.12
    4   22   44      8.40      5.50
    2   22   44     -5.10      5.45
    0   22   44     21.98      0.65
   18   24   44    -11.62      3.06
   16   24   44    -16.66     10.85
   14   24   44    -33.13      8.71
   12   24   44     21.18      1.23
   10   24   44      3.08    -20.60
    8   24   44      7.38     -3.55
    6   24   44     13.79      1.32
    4   24   44     38.26     26.22
    2   24   44    -10.57     16.71
    0   24   44      3.67     -1.21
   16   26   44     -3.12    -30.09
   14   26   44     -3.24    -13.18
   12   26   44     -7.94     26.42
   10   26   44    -17.52    -21.70
    8   26   44     -1.06      0.10
    6   26   44     12.88      5.25
    4   26   44     12.16     -3.05
    2   26   44    -24.20      3.29
    0   26   44    -26.08     -1.04
   12   28   44      9.08     -3.53
   10   28   44     14.77     -0.28
    8   28   44     -4.10     -4.38
    6   28   44      7.49     -5.68
    4   28   44    -10.65     10.75
    2   28   44     35.07     -8.19
    0   28   44     29.70     -1.06
    6   30   44      3.87     17.47
    4   30   44     33.70     -1.36
    2   30   44    -17.63    -14.06
    0   30   44     32.12      1.99
    1    1   45    -17.11     19.83
    1    3   45    -15.00     14.09
    3    3   45     -3.63     13.45
    3    5   45     14.86     -6.92
    1    5   45    -17.31     -2.96
    5    5   45     -9.77     10.92
    5    7   45     -4.41      7.36
    3    7   45    -22.74      3.01
    1    7   45     33.72      0.09
    7    7   45    -10.28      9.29
    7    9   45     22.61     15.38
    5    9   45    -19.97     -7.21
    3    9   45    -19.07     20.19
    1    9   45      3.36     -9.88
    9    9   45    -19.76     66.67
    9   11   45      1.05    -15.37
    7   11   45      6.79     10.59
    5   11   45     18.41    -17.80
    3   11   45     -3.11    -12.08
    1   11   45     -4.23      4.82
   11   11   45      3.49     -4.02
   11   13   45     -9.61     28.60
    9   13   45     -3.66      0.75
    7   13   45      5.35     11.38
    5   13   45      5.44    -18.32
    3   13   45     -6.11      5.45
    1   13   45     24.73      8.89
   13   13   45    -46.37    -11.86
   13   15   45      9.99      7.92
   11   15   45     -1.63     -6.41
    9   15   45    -25.64    -10.23
    7   15   45    -18.87      0.19
    5   15   45    -22.07     10.62
    3   15   45      2.11    -10.36
    1   15   45     -8.72     -6.17
   15   15   45     -2.80      4.42
   15   17   45     -6.15      6.08
   13   17   45     25.26     11.97
   11   17   45      9.04     26.32
    9   17   45     -2.91     -9.15
    7   17   45     16.13    -11.25
    5   17   45      1.84     -0.42
    3   17   45      9.42     -0.97
    1   17   45      6.92      6.72
   17   17   45      8.16      2.01
   17   19   45     -1.13    -16.44
   15   19   45      1.23     10.10
   13   19   45     15.30      7.52
   11   19   45      6.88     -0.24
    9   19   45    -17.55     10.35
    7   19   45     24.02      2.43
    5   19   45     -1.11     22.93
    3   19   45    -14.61     11.80
    1   19   45     52.93      0.68
   19   19   45      6.99     -9.67
   19   21   45      3.21    -33.26
   17   21   45    -32.56    -14.35
   15   21   45      2.90    -21.77
   13   21   45      5.83     -1.03
   11   21   45     32.05      6.14
    9   21   45     -1.40     -2.10
    7   21   45     -1.40     10.67
    5   21   45     19.42     22.34
    3   21   45     -2.05     -7.42
    1   21   45     31.72     -3.08
   17   23   45     31.11     15.41
   15   23   45      7.83     -1.54
   13   23   45     -3.08     21.43
   11   23   45     -0.67    -28.37
    9   23   45     -3.71      0.69
    7   23   45      7.64      0.03
    5   23   45      0.24    -12.11
    3   23   45     18.74      8.12
    1   23   45     17.94    -27.23
   15   25   45     -1.55     -3.28
   13   25   45     11.31     23.84
   11   25   45      8.34    -17.87
    9   25   45     13.94     -6.12
    7   25   45      8.89     -6.48
    5   25   45      5.56     18.48
    3   25   45     12.83      4.19
    1   25   45     18.88     27.81
   11   27   45      6.34     -2.66
    9   27   45      0.22      1.05
    7   27   45      2.83     10.08
    5   27   45     -1.21     13.73
    3   27   45     -3.36     -7.69
    1   27   45     20.04    -11.12
    3   29   45     -8.62    -12.43
    1   29   45     15.52      2.73
    0    2   46      7.45     12.46
    2    2   46     -3.29      3.40
    2    4   46    -34.55     13.52
    0    4   46      6.89     -0.54
    4    4   46     -1.15      7.11
    4    6   46     24.88      4.98
    2    6   46     -6.74     -7.60
    0    6   46      3.73      4.64
    6    6   46      4.01      8.63
    6    8   46     -7.19     11.08
    4    8   46     -2.79    -10.54
    2    8   46    -13.42      7.58
    0    8   46     -5.80      0.38
    8    8   46      6.52     -2.39
    8   10   46     -8.95     12.89
    6   10   46     14.13     -1.94
    4   10   46    -12.28      9.79
    2   10   46      7.56     -5.58
    0   10   46      5.70      3.00
   10   10   46     -6.99     -8.38
   10   12   46     38.32    -15.26
    8   12   46     11.40    -13.84
    6   12   46      6.76      2.46
    4   12   46     -2.50     -3.99
    2   12   46    -22.14    -25.99
    0   12   46    -20.45     -0.14
   12   12   46      2.22      1.33
   12   14   46      6.80      0.91
   10   14   46     24.07     15.44
    8   14   46     18.09     21.21
    6   14   46    -17.73     -2.26
    4   14   46    -11.00     18.11
    2   14   46     10.99     16.71
    0   14   46     13.39     -0.07
   14   14   46      0.46      7.20
   14   16   46      7.22      3.58
   12   16   46     16.64     -2.41
   10   16   46      7.35     -1.05
    8   16   46     13.29     -4.91
    6   16   46     -4.08     13.60
    4   16   46      6.04    -11.73
    2   16   46    -29.08     24.69
    0   16   46     -1.15     -1.13
   16   16   46      6.77      1.76
   16   18   46      7.94     -8.87
   14   18   46      4.94     12.77
   12   18   46    -23.29      1.19
   10   18   46     -8.77    -19.05
    8   18   46     -1.37     -4.35
    6   18   46     -8.93    -25.65
    4   18   46      6.99     -0.12
    2   18   46     -7.51      1.40
    0   18   46    -38.10      0.67
   18   18   46      0.97     27.21
   18   20   46     11.39     13.56
   16   20   46      0.78     -6.44
   14   20   46     15.35     -1.99
   12   20   46     -8.30     -7.14
   10   20   46      4.11     -6.56
    8   20   46      7.24    -19.94
    6   20   46     16.61      2.69
    4   20   46     17.65      6.64
    2   20   46     -3.93      3.93
    0   20   46    -15.41      2.93
   16   22   46     -2.83     -2.01
   14   22   46      6.39    -14.00
   12   22   46     14.79    -11.45
   10   22   46     -7.46      7.32
    8   22   46      9.24     -7.77
    6   22   46    -16.46    -17.22
    4   22   46      3.83     -6.42
    2   22   46    -24.86    -12.24
    0   22   46      2.37      1.60
   14   24   46     -7.92     16.89
   12   24   46      5.18     -8.54
   10   24   46    -17.39      2.91
    8   24   46     -1.52     21.46
    6   24   46     -9.06      0.36
    4   24   46     20.38     -7.02
    2   24   46    -12.09    -23.10
    0   24   46     22.70     -9.26
    8   26   46     11.66      2.98
    6   26   46     11.81     10.05
    4   26   46      1.61    -12.73
    2   26   46     35.70      0.58
    0   26   46    -10.64     13.76
    1    1   47     12.22      4.17
    1    3   47    -39.64    -17.38
    3    3   47      4.00      5.64
    3    5   47      5.71     29.77
    1    5   47      7.33      4.33
    5    5   47      2.38      4.27
    5    7   47    -16.75     -1.07
    3    7   47     16.55     -9.63
    1    7   47    -21.34     -3.84
    7    7   47    -10.28    -11.95
    7    9   47     -5.83     18.83
    5    9   47     -1.76     17.05
    3    9   47     -0.51      4.64
    1    9   47     -5.74     11.15
    9    9   47     -7.00    -14.69
    9   11   47    -14.75    -18.10
    7   11   47    -19.18      4.78
    5   11   47     10.20      5.55
    3   11   47     21.04     -4.00
    1   11   47     -1.04      0.12
   11   11   47     15.15     17.71
   11   13   47     -0.15     11.79
    9   13   47      3.46     -3.02
    7   13   47    -39.43    -40.36
    5   13   47    -14.55      3.61
    3   13   47     -8.95    -15.58
    1   13   47     -0.94     10.22
   13   13   47    -26.15    -15.23
   13   15   47     -8.87      4.09
   11   15   47      1.48    -28.47
    9   15   47     -0.73    -10.78
    7   15   47     16.39     13.75
    5   15   47      3.73     -3.25
    3   15   47      5.16      2.93
    1   15   47      6.13    -12.62
   15   15   47      8.20      8.86
   15   17   47    -11.11     -6.84
   13   17   47     12.52    -26.30
   11   17   47      3.00     10.55
    9   17   47     18.38     -4.42
    7   17   47      1.38    -10.34
    5   17   47     -6.53     13.41
    3   17   47      8.92     12.01
    1   17   47      7.28     28.20
   17   17   47      6.20     -4.18
   17   19   47     19.83     14.90
   15   19   47     22.76     16.67
   13   19   47     -4.20     -6.71
   11   19   47    -16.55    -19.88
    9   19   47     10.82     -1.92
    7   19   47     -3.02     -7.49
    5   19   47     -1.27      3.39
    3   19   47     -6.92      7.46
    1   19   47     -2.00     11.91
   15   21   47    -11.05    -12.48
   13   21   47     11.85      7.84
   11   21   47      8.57     11.91
    9   21   47     19.67    -11.00
    7   21   47      3.03      3.59
    5   21   47      3.97     11.41
    3   21   47     10.52     17.30
    1   21   47     22.11    -15.88
   11   23   47     -0.31     11.35
    9   23   47    -11.89     24.07
    7   23   47     -4.74      6.13
    5   23   47     -4.35      6.40
    3   23   47     16.41     -5.48
    1   23   47      9.83      3.69
    7   25   47     -0.35      2.55
    5   25   47     -1.29    -11.22
    3   25   47      9.04     -3.46
    1   25   47     29.39     -2.20
    0    0   48     53.28      7.46
    0    2   48    -18.91     -7.49
    2    2   48     -1.57     -1.43
    2    4   48    -15.92    -27.06
    0    4   48     -2.82     22.39
    4    4   48     13.39      6.14
    4    6   48    -17.96     13.55
    2    6   48      6.39    -10.10
    0    6   48    -10.62     -2.75
    6    6   48     47.31    -20.99
    6    8   48     -5.99     -0.53
    4    8   48    -20.39     27.39
    2    8   48      8.38     11.28
    0    8   48    -40.18      2.35
    8    8   48     12.92      1.60
    8   10   48     -4.01     -4.66
    6   10   48    -10.14      1.65
    4   10   48    -29.75    -15.35
    2   10   48      1.90      9.61
    0   10   48    -12.50      1.01
   10   10   48     32.40     -0.45
   10   12   48      2.84    -15.45
    8   12   48     15.94      8.21
    6   12   48     11.23     14.56
    4   12   48     -9.26      6.38
    2   12   48    -10.46      6.69
    0   12   48     26.62     -7.46
   12   12   48     15.57      3.26
   12   14   48      4.21     -8.45
   10   14   48     -7.99     17.49
    8   14   48      8.99    -23.34
    6   14   48     -8.16     10.08
    4   14   48     -1.85     -9.54
    2   14   48    -11.90      1.72
    0   14   48      4.57     -1.46
   14   14   48     -0.80      0.29
   14   16   48     -1.59     12.79
   12   16   48      6.41     -7.56
   10   16   48     -0.11     -5.27
    8   16   48     -6.58    -10.89
    6   16   48      1.69     -9.96
    4   16   48      4.22     -1.33
    2   16   48     -1.58     -3.55
    0   16   48      0.88      2.13
   16   16   48     -0.30      0.59
   16   18   48     -2.80     11.70
   14   18   48      1.57     -5.60
   12   18   48      0.18     11.99
   10   18   48     -4.26     10.97
    8   18   48     -3.13      5.18
    6   18   48     -4.72      4.28
    4   18   48     -2.08    -10.67
    2   18   48    -13.22    -17.28
    0   18   48     27.66     -8.82
   12   20   48     -6.01    -12.62
   10   20   48    -29.17     -8.54
    8   20   48     13.73    -14.18
    6   20   48     -1.17    -16.77
    4   20   48     13.89     -5.34
    2   20   48     13.53      3.87
    0   20   48    -11.89      1.88
   10   22   48     13.32     -2.35
    8   22   48      8.82     -1.21
    6   22   48     17.60      3.29
    4   22   48      4.24      2.26
    2   22   48    -14.39     32.75
    0   22   48      1.90     -0.30
    2   24   48    -17.45      9.24
    0   24   48    -31.26     -2.71
    1    1   49    -22.11     20.58
    1    3   49      2.70    -21.13
    3    3   49     -2.37      8.00
    3    5   49     -6.94     -2.74
    1    5   49    -11.71    -37.17
    5    5   49     21.21    -18.27
    5    7   49     12.01    -13.16
    3    7   49    -13.38      5.60
    1    7   49     27.07     14.34
    7    7   49    -10.91     13.24
    7    9   49     -2.15      3.18
    5    9   49     -8.61     -1.87
    3    9   49     -3.21    -13.44
    1    9   49     -5.26    -13.85
    9    9   49      4.38      2.73
    9   11   49    -17.66    -16.59
    7   11   49      5.04     10.59
    5   11   49      2.60     -6.92
    3   11   49      1.33      5.49
    1   11   49      1.15      8.65
   11   11   49      3.62     -3.59
   11   13   49     -5.94     -7.68
    9   13   49     -6.70     32.77
    7   13   49     -0.27    -23.54
    5   13   49     18.91    -25.46
    3   13   49     12.07      6.24
    1   13   49      4.51     -0.43
   13   13   49     -9.20     11.01
   13   15   49     -0.05     11.25
   11   15   49    -19.54    -10.19
    9   15   49    -18.35      6.48
    7   15   49     -2.57      1.96
    5   15   49      5.41     -6.95
    3   15   49      1.71    -17.16
    1   15   49     -7.93    -23.14
   15   15   49     -8.24      7.11
   13   17   49     29.76      1.96
   11   17   49      7.19      6.37
    9   17   49     17.67     13.15
    7   17   49     -2.18     -0.10
    5   17   49    -11.19     -2.98
    3   17   49      5.38     11.53
    1   17   49      4.47      1.40
   11   19   49     14.57      3.25
    9   19   49     22.78      1.50
    7   19   49    -13.23      0.36
    5   19   49     29.23     14.32
    3   19   49     -9.54     12.79
    1   19   49     15.13     -3.64
    5   21   49    -15.74      0.23
    3   21   49     10.27    -25.85
    1   21   49     11.50      1.34
    0    2   50     12.84     -0.83
    2    2   50      1.01     13.67
    2    4   50     14.31      7.81
    0    4   50    -26.49     -8.38
    4    4   50     -3.04      8.56
    4    6   50    -22.75     10.30
    2    6   50    -15.98      5.32
    0    6   50    -12.15      1.94
    6    6   50      2.15     13.34
    6    8   50     14.41     -1.03
    4    8   50     -7.06     -2.08
    2    8   50     -4.27     -1.76
    0    8   50    -19.32      0.07
    8    8   50     -1.58     11.27
    8   10   50      4.58      1.96
    6   10   50     23.24     -0.13
    4   10   50      3.37    -12.84
    2   10   50     -6.08     -1.48
    0   10   50     -5.51      2.08
   10   10   50      8.62     -8.93
   10   12   50     -3.82     -0.57
    8   12   50      9.03      2.82
    6   12   50     -7.13     15.90
    4   12   50      3.86     -9.91
    2   12   50      2.81      0.41
    0   12   50      3.86     -0.05
   12   12   50     -2.35      3.77
   12   14   50     -0.69      4.65
   10   14   50     -6.50    -12.44
    8   14   50      5.94     -5.52
    6   14   50    -19.56    -14.75
    4   14   50     -6.93    -19.81
    2   14   50     -0.81     -5.91
    0   14   50     -6.01     -3.61
   10   16   50    -14.10      8.53
    8   16   50     12.60    -17.46
    6   16   50     -5.12    -19.70
    4   16   50      4.44      6.76
    2   16   50      4.76     -3.05
    0   16   50      3.28      0.23
    8   18   50     12.04      2.32
    6   18   50     13.08    -12.33
    4   18   50     11.32     12.38
    2   18   50      3.17     17.05
    0   18   50     -1.53      0.98
    1    1   51    -37.89     -3.36
    1    3   51     36.44      3.97
    3    3   51     19.94     18.09
    3    5   51     -4.92    -10.93
    1    5   51    -10.73    -25.04
    5    5   51      5.26      3.38
    5    7   51      5.47      3.95
    3    7   51     -5.73     18.38
    1    7   51     10.80      1.29
    7    7   51    -15.04    -12.59
    7    9   51     -0.08     22.11
    5    9   51      9.20     -6.57
    3    9   51      5.61     -4.52
    1    9   51     -2.95    -12.27
    9    9   51     -5.75     -7.03
    9   11   51    -11.72    -12.29
    7   11   51      0.51      3.25
    5   11   51    -15.30     16.50
    3   11   51     -3.40     -4.98
    1   11   51      0.21     -5.87
   11   11   51    -11.97    -12.71
    9   13   51     -7.92      5.21
    7   13   51     -5.04     -1.08
    5   13   51     -4.29      0.21
    3   13   51    -10.29      8.28
    1   13   51      0.39    -21.20
    7   15   51     16.36     14.83
    5   15   51      6.51     10.44
    3   15   51      9.08     -0.99
    1   15   51     -2.09      3.57
    0    0   52     13.10    -10.45
    0    2   52     32.32      1.96
    2    2   52      1.27      6.58
    2    4   52     -6.26     34.19
    0    4   52    -21.24     -1.69
    4    4   52     17.83    -12.30
    4    6   52    -28.87     15.79
    2    6   52    -13.38      4.01
    0    6   52    -16.77     -0.03
    6    6   52    -15.29     -1.96
    6    8   52     -5.21      1.04
    4    8   52      8.89      6.56
    2    8   52     -8.59     -5.36
    0    8   52     -5.08     -0.40
    8    8   52      3.68     -7.26
    8   10   52    -17.94     -6.13
    6   10   52      3.14      6.05
    4   10   52      1.54      1.05
    2   10   52     -4.51      6.63
    0   10   52     26.24      2.60
    6   12   52     -8.02    -15.73
    4   12   52     -1.70     -8.45
    2   12   52      1.40      5.55
    0   12   52    -14.70     -2.73
    1    1   53    -26.17      7.82
    1    3   53    -12.79     10.59
    3    3   53     41.03     -2.79
    3    5   53     -8.75    -19.77
    1    5   53    -14.15    -19.28
    5    5   53     -3.49      1.69
    5    7   53      5.53     12.04
    3    7   53    -13.44      3.38
    1    7   53    -13.99     12.66
    1    1    1    198.37   -205.40
    0    2    2   1083.00      8.23
    2    2    2     -8.80   -510.11
    1    1    3    -22.21    -31.42
    1    3    3    131.03   -157.42
    0    0    4   1334.63      8.26
    0    2    4   -317.87     -0.33
    0    4    4   -966.64      2.10
    4    4    4   -834.40      1.88
    1    1    5    268.46   -258.83
    5    5    5   -127.70    153.74
    2    2    6     -2.91    930.84
    4    4    6      4.15     12.36
    0    0    8   -773.74     -3.14
    2    4    8      6.41    -12.66
    4    4    8   1070.11      3.18
    6    6    8   -734.73      0.93
    2    8    8      9.16   -117.31
    4    8    8    169.48     -5.67
    8    8    8    381.55     -4.84
    6    6   10      4.36   -435.21
    0    0   12   1446.72     -5.93
   29   31   33    -10.44     11.14
   27   33   33     -6.06     -2.68
   29   29   35     17.97     15.60
   27   31   35     25.34    -17.69
   21   35   35    -10.60      8.02
   24   32   36      4.54      1.30
   22   34   36      7.53      7.70
   18   36   36     -0.72      1.85
   21   33   37      9.29      5.75
   13   37   37     -5.58      2.91
   26   28   38    -12.69      7.05
   24   30   38     30.37      5.65
   18   34   38      4.71      4.51
   14   36   38      7.98    -10.90
    2   38   38      3.28      7.22
    4   38   38     -7.13     -0.97
    6   38   38      0.97     -6.06
   23   29   39      7.23      0.55
   21   31   39      3.80    -18.03
   17   33   39     -3.52     14.51
   13   35   39     -5.60      0.05
    1   37   39    -13.17    -14.72
    3   37   39     -3.79     21.47
    5   37   39     14.07      3.61
   20   30   40     -6.32     17.41
   12   34   40     -8.79      6.22
    0   36   40     29.77      0.06
    2   36   40     35.41      7.00
    4   36   40      8.46    -22.87
    6   36   40     -0.29      1.11
   25   25   41      5.22     -7.67
   17   31   41     -3.65     -9.17
   11   33   41     21.18     -6.53
    1   35   41     15.72     -1.62
    3   35   41    -18.76     19.40
    5   35   41     16.33     10.33
   24   24   42     -2.62      4.41
   22   26   42    -23.32     18.64
   16   30   42      0.89    -17.75
   12   32   42     11.04     -3.65
    0   34   42     28.23     -2.36
    2   34   42      7.70     19.82
    4   34   42     18.67      5.48
   23   23   43      7.97      9.29
   21   25   43     19.73    -17.10
   15   29   43     -3.95      7.19
    9   31   43     17.85      1.91
   11   31   43     -8.85      5.14
   22   22   44      9.85     -0.80
   20   24   44     -2.29     -0.76
   18   26   44    -24.18      2.84
   14   28   44     -4.14      1.34
    8   30   44     13.35      3.66
   10   30   44      0.21      3.15
   21   21   45      0.58      0.67
   19   23   45     -4.80    -14.14
   13   27   45     -2.27     -6.39
    5   29   45      3.38     -7.29
    7   29   45     -3.07     15.14
   20   20   46     -0.09      2.96
   18   22   46    -18.40    -10.17
   10   26   46     15.16      6.91
   12   26   46     10.44      7.10
    0   28   46     19.47      2.56
    2   28   46    -10.96      5.07
    4   28   46     11.08     19.38
    6   28   46      5.86      4.20
   19   19   47      0.30     -5.10
   13   23   47     -7.68     -1.45
    9   25   47     -6.32      6.81
   14   20   48     -4.14    -21.97
   12   22   48     -3.19      0.83
    4   24   48      6.25      8.30
    6   24   48     11.05     -1.90
   15   17   49     -1.07     -9.24
   13   19   49     12.50      4.70
    7   21   49     -2.45     -4.92
    9   21   49    -13.45    -15.29
    1   23   49      4.27     -1.50
   14   14   50     -1.76     23.08
   12   16   50      5.26      0.95
   10   18   50    -10.19     -1.80
    0   20   50    -15.54     -1.23
    2   20   50      1.39      5.65
    4   20   50    -36.20      4.64
    6   20   50     -1.80      4.26
   11   13   51     -1.01     -7.01
    9   15   51      6.93    -12.62
    1   17   51      4.94     -3.99
    3   17   51     -1.03     -7.02
    5   17   51     -2.33     13.60
   10   10   52     11.44      3.78
    8   12   52    -10.15      8.41
    0   14   52     -4.38     -0.36
    2   14   52     11.02     -9.71
    4   14   52      8.76     20.51
    6   14   52      1.33      3.96
    7    7   53     -9.54      4.38
    1    9   53    -15.95      6.18
    3    9   53     -1.95      2.67
    5    9   53      2.82     14.72
    1   11   53     11.85     11.01
    0    2   54    -21.03     -0.49
    2    2   54     -0.72    -10.30
    0    4   54    -24.83     -1.34
    2    4   54     -1.70    -10.73
    0    0    0      0.00      0.00
# SQUEEZE RESULTS (Version = 230318)
# Note: Data are Listed for all Voids in the P1 Unit Cell
# i.e. Centre of Gravity, Solvent Accessible Volume,
# Recovered number of Electrons in the Void and
# Details about the Squeezed Material
loop_
  _platon_squeeze_void_nr
  _platon_squeeze_void_average_x
  _platon_squeeze_void_average_y
  _platon_squeeze_void_average_z
  _platon_squeeze_void_volume
  _platon_squeeze_void_count_electrons
  _platon_squeeze_void_content
   1 -0.002 -0.018 -0.003     56725     20990 '10[(CH3)2NH2] 18(CH3)2NCHO 31H2O'
# Missing Reflections Below sin(th)/lambda = 0.25
loop_
  _platon_missing_refln_index_h
  _platon_missing_refln_index_k
  _platon_missing_refln_index_l
  _platon_missing_refln_theta
    1    1    1     0.781
    0    2    2     1.276
    2    2    2     1.562
    1    1    3     1.496
    1    3    3     1.966
    0    0    4     1.804
    0    2    4     2.017
    0    4    4     2.552
    4    4    4     3.126
    1    1    5     2.344
    5    5    5     3.909
    2    2    6     2.993
    4    4    6     3.722
    0    0    8     3.610
    2    4    8     4.137
    4    4    8     4.423
    6    6    8     5.267
    2    8    8     5.189
    4    8    8     5.420
    8    8    8     6.261
    6    6   10     5.925
    0    0   12     5.420
_platon_squeeze_void_probe_radius                  1.20
_platon_squeeze_details
)
TITL f4132     F 41 3 2     R = 0.23
CELL   45.1476   45.1476   45.1476     90.00     90.00     90.00
SPGR F4132
# Solvent Accessible Volume =     56710
# Electrons Found in S.A.V. =     20714
# Note: Atoms in Void are Labelled as Cxxx and Qxxx for all Others
Q101 0.664 0.245 0.396 !       2.98 eA-3
C102 0.828 0.181 0.171 !       2.86 eA-3
C103 0.009 0.014 0.006 !       2.73 eA-3
C104 0.239 0.462 0.069 !       2.70 eA-3
Q105 0.484 0.334 0.082 !       2.64 eA-3
C106 0.325 0.176 0.176 !       2.33 eA-3
C107 0.750 0.238 0.247 !       2.32 eA-3
C108 0.250 0.238 0.747 !       2.32 eA-3
C109 0.039 0.414 0.210 !       2.22 eA-3
C110 0.264 0.264 0.764 !       2.11 eA-3
C111 0.073 0.249 0.432 !       2.03 eA-3
C112 0.183 0.327 0.194 !       1.88 eA-3
C113 0.070 0.243 0.335 !       1.83 eA-3
C114 0.189 0.015 0.152 !       1.81 eA-3
C115 0.574 0.091 0.242 !       1.77 eA-3
C116 0.456 0.098 0.228 !       1.72 eA-3
C117 0.824 0.499 0.188 !       1.72 eA-3
C118 0.457 0.485 0.426 !       1.72 eA-3
C119 0.727 0.227 0.227 !       1.69 eA-3
C120 0.540 0.015 0.393 !       1.67 eA-3
C121 0.296 0.367 0.266 !       1.65 eA-3
C122 0.699 0.288 0.188 !       1.64 eA-3
Q123 0.909 0.089 0.095 !       1.63 eA-3
C124 0.875 0.375 0.125 !       1.62 eA-3
C125 0.282 0.451 0.127 !       1.62 eA-3
C126 0.432 0.245 0.084 !       1.59 eA-3
C127 0.754 0.444 0.406 !       1.58 eA-3
C128 0.597 0.214 0.090 !       1.57 eA-3
C129 0.517 0.492 0.047 !       1.56 eA-3
C130 0.328 0.483 0.184 !       1.52 eA-3
C131 0.995 0.479 0.464 !       1.52 eA-3
C132 0.244 0.219 0.371 !       1.52 eA-3
C133 0.043 0.409 0.036 !       1.50 eA-3
C134 0.052 0.284 0.156 !       1.47 eA-3
Q135 0.184 0.195 0.011 !       1.47 eA-3
C136 0.436 0.064 0.064 !       1.46 eA-3
C137 0.295 0.282 0.223 !       1.46 eA-3
C138 0.802 0.089 0.021 !       1.45 eA-3
C139 0.650 0.312 0.481 !       1.45 eA-3
Q140 0.433 0.439 0.226 !       1.44 eA-3
C141 0.807 0.179 0.200 !       1.43 eA-3
C142 0.395 0.036 0.033 !       1.41 eA-3
C143 0.575 0.267 0.411 !       1.40 eA-3
C144 0.743 0.094 0.050 !       1.39 eA-3
C145 0.325 0.019 0.132 !       1.38 eA-3
C146 0.290 0.433 0.114 !       1.38 eA-3
C147 0.992 0.140 0.065 !       1.36 eA-3
C148 0.610 0.741 0.316 !       1.36 eA-3
C149 0.610 0.241 0.816 !       1.36 eA-3
C150 0.902 0.441 0.263 !       1.36 eA-3
C151 0.559 0.234 0.086 !       1.35 eA-3
C152 0.366 0.445 0.992 !       1.34 eA-3
C153 0.364 0.221 0.478 !       1.34 eA-3
C154 0.370 0.020 0.059 !       1.33 eA-3
C155 0.922 0.473 0.488 !       1.32 eA-3
C156 0.901 0.273 0.078 !       1.30 eA-3
C157 0.181 0.304 0.207 !       1.29 eA-3
C158 0.450 0.358 0.203 !       1.29 eA-3
C159 0.429 0.290 0.090 !       1.29 eA-3
Q160 0.030 0.325 0.155 !       1.29 eA-3
C161 0.163 0.163 0.060 !       1.29 eA-3
C162 0.703 0.227 0.370 !       1.29 eA-3
C163 0.393 0.075 0.781 !       1.28 eA-3
C164 0.893 0.075 0.281 !       1.28 eA-3
C165 0.352 0.285 0.309 !       1.28 eA-3
C166 0.280 0.279 0.280 !       1.27 eA-3
C167 0.188 0.308 0.234 !       1.27 eA-3
C168 0.328 0.101 0.425 !       1.27 eA-3
C169 0.341 0.097 0.375 !       1.27 eA-3
C170 0.242 0.286 0.199 !       1.26 eA-3
C171 0.744 0.070 0.122 !       1.25 eA-3
C172 0.008 0.419 0.193 !       1.24 eA-3
C173 0.482 0.058 0.066 !       1.22 eA-3
C174 0.223 0.309 0.181 !       1.22 eA-3
C175 0.928 0.492 0.334 !       1.20 eA-3
C176 0.410 0.215 0.413 !       1.20 eA-3
C177 0.238 0.028 0.087 !       1.19 eA-3
C178 0.808 0.142 0.493 !       1.19 eA-3
C179 0.218 0.203 0.755 !       1.18 eA-3
C180 0.718 0.203 0.255 !       1.18 eA-3
C181 0.715 0.167 0.310 !       1.17 eA-3
C182 0.650 0.375 0.387 !       1.16 eA-3
C183 0.652 0.373 0.406 !       1.15 eA-3
C184 0.152 0.873 0.406 !       1.15 eA-3
C185 0.280 0.268 0.316 !       1.15 eA-3
C186 0.618 0.176 0.089 !       1.15 eA-3
C187 0.172 0.360 0.953 !       1.13 eA-3
C188 0.110 0.253 0.433 !       1.12 eA-3
C189 0.504 0.472 0.082 !       1.12 eA-3
C190 0.154 0.272 0.007 !       1.10 eA-3
C191 0.918 0.168 0.875 !       1.10 eA-3
C192 0.418 0.168 0.375 !       1.10 eA-3
C193 0.918 0.668 0.375 !       1.10 eA-3
C194 0.061 0.412 0.007 !       1.10 eA-3
C195 0.506 0.348 0.724 !       1.10 eA-3
C196 0.726 0.463 0.382 !       1.09 eA-3
C197 0.512 0.044 0.956 !       1.08 eA-3
C198 0.572 0.304 0.381 !       1.07 eA-3
C199 0.626 0.063 0.205 !       1.05 eA-3
)
;
_shelx_fab_checksum              42282
loop_
_space_group_symop_operation_xyz
'x, y, z'
'-x, -y+1/2, z+1/2'
'-x+1/2, y+1/2, -z'
'x+1/2, -y, -z+1/2'
'z, x, y'
'z+1/2, -x, -y+1/2'
'-z, -x+1/2, y+1/2'
'-z+1/2, x+1/2, -y'
'y, z, x'
'-y+1/2, z+1/2, -x'
'y+1/2, -z, -x+1/2'
'-y, -z+1/2, x+1/2'
'y+3/4, x+1/4, -z+3/4'
'-y+1/4, -x+1/4, -z+1/4'
'y+1/4, -x+3/4, z+3/4'
'-y+3/4, x+3/4, z+1/4'
'x+3/4, z+1/4, -y+3/4'
'-x+3/4, z+3/4, y+1/4'
'-x+1/4, -z+1/4, -y+1/4'
'x+1/4, -z+3/4, y+3/4'
'z+3/4, y+1/4, -x+3/4'
'z+1/4, -y+3/4, x+3/4'
'-z+3/4, y+3/4, x+1/4'
'-z+1/4, -y+1/4, -x+1/4'
'x, y+1/2, z+1/2'
'-x, -y+1, z+1'
'-x+1/2, y+1, -z+1/2'
'x+1/2, -y+1/2, -z+1'
'z, x+1/2, y+1/2'
'z+1/2, -x+1/2, -y+1'
'-z, -x+1, y+1'
'-z+1/2, x+1, -y+1/2'
'y, z+1/2, x+1/2'
'-y+1/2, z+1, -x+1/2'
'y+1/2, -z+1/2, -x+1'
'-y, -z+1, x+1'
'y+3/4, x+3/4, -z+5/4'
'-y+1/4, -x+3/4, -z+3/4'
'y+1/4, -x+5/4, z+5/4'
'-y+3/4, x+5/4, z+3/4'
'x+3/4, z+3/4, -y+5/4'
'-x+3/4, z+5/4, y+3/4'
'-x+1/4, -z+3/4, -y+3/4'
'x+1/4, -z+5/4, y+5/4'
'z+3/4, y+3/4, -x+5/4'
'z+1/4, -y+5/4, x+5/4'
'-z+3/4, y+5/4, x+3/4'
'-z+1/4, -y+3/4, -x+3/4'
'x+1/2, y, z+1/2'
'-x+1/2, -y+1/2, z+1'
'-x+1, y+1/2, -z+1/2'
'x+1, -y, -z+1'
'z+1/2, x, y+1/2'
'z+1, -x, -y+1'
'-z+1/2, -x+1/2, y+1'
'-z+1, x+1/2, -y+1/2'
'y+1/2, z, x+1/2'
'-y+1, z+1/2, -x+1/2'
'y+1, -z, -x+1'
'-y+1/2, -z+1/2, x+1'
'y+5/4, x+1/4, -z+5/4'
'-y+3/4, -x+1/4, -z+3/4'
'y+3/4, -x+3/4, z+5/4'
'-y+5/4, x+3/4, z+3/4'
'x+5/4, z+1/4, -y+5/4'
'-x+5/4, z+3/4, y+3/4'
'-x+3/4, -z+1/4, -y+3/4'
'x+3/4, -z+3/4, y+5/4'
'z+5/4, y+1/4, -x+5/4'
'z+3/4, -y+3/4, x+5/4'
'-z+5/4, y+3/4, x+3/4'
'-z+3/4, -y+1/4, -x+3/4'
'x+1/2, y+1/2, z'
'-x+1/2, -y+1, z+1/2'
'-x+1, y+1, -z'
'x+1, -y+1/2, -z+1/2'
'z+1/2, x+1/2, y'
'z+1, -x+1/2, -y+1/2'
'-z+1/2, -x+1, y+1/2'
'-z+1, x+1, -y'
'y+1/2, z+1/2, x'
'-y+1, z+1, -x'
'y+1, -z+1/2, -x+1/2'
'-y+1/2, -z+1, x+1/2'
'y+5/4, x+3/4, -z+3/4'
'-y+3/4, -x+3/4, -z+1/4'
'y+3/4, -x+5/4, z+3/4'
'-y+5/4, x+5/4, z+1/4'
'x+5/4, z+3/4, -y+3/4'
'-x+5/4, z+5/4, y+1/4'
'-x+3/4, -z+3/4, -y+1/4'
'x+3/4, -z+5/4, y+3/4'
'z+5/4, y+3/4, -x+3/4'
'z+3/4, -y+5/4, x+3/4'
'-z+5/4, y+5/4, x+1/4'
'-z+3/4, -y+3/4, -x+1/4'
loop_
_atom_site_label
_atom_site_type_symbol
_atom_site_fract_x
_atom_site_fract_y
_atom_site_fract_z
_atom_site_U_iso_or_equiv
_atom_site_adp_type
_atom_site_occupancy
_atom_site_site_symmetry_order
_atom_site_calc_flag
_atom_site_refinement_flags_posn
_atom_site_refinement_flags_adp
_atom_site_refinement_flags_occupancy
Zn1 Zn 0.5000 0.5000 0.23255(3) 0.1334(8) Uani 1 2 d S TU P
Zn2 Zn 0.39710(4) 0.66089(4) 0.12550(4) 0.1484(7) Uani 1 1 d . U .
C1 C 0.5589(3) 0.5937(2) 0.0935(2) 0.118(3) Uani 1 1 d D U .
C2 C 0.51454(13) 0.59776(15) 0.12700(14) 0.124(3) Uani 1 1 d DG U .
C3 C 0.48603(15) 0.60937(14) 0.12632(13) 0.124(3) Uani 1 1 d G U .
H3 H 0.4807 0.6232 0.1114 0.148 Uiso 1 1 calc R U .
C4 C 0.46536(12) 0.60068(16) 0.14741(15) 0.119(3) Uani 1 1 d DG U .
C5 C 0.47320(14) 0.58038(17) 0.16920(14) 0.133(3) Uani 1 1 d G U .
H5 H 0.4591 0.5744 0.1836 0.160 Uiso 1 1 calc R U .
C6 C 0.50170(16) 0.56877(15) 0.16988(13) 0.130(3) Uani 1 1 d DG U .
C7 C 0.52238(11) 0.57746(15) 0.14879(14) 0.114(3) Uani 1 1 d G U .
H7 H 0.5419 0.5695 0.1493 0.137 Uiso 1 1 calc R U .
C8 C 0.4362(3) 0.6138(3) 0.1476(3) 0.129(3) Uani 1 1 d D U .
C9 C 0.5117(3) 0.5464(3) 0.1912(2) 0.126(3) Uani 1 1 d D U .
C10 C 0.3544(2) 0.8207(3) 0.1814(2) 0.113(3) Uani 1 1 d D U .
C11 C 0.39660(13) 0.78652(14) 0.18994(14) 0.113(3) Uani 1 1 d DG U .
C12 C 0.42393(15) 0.78713(15) 0.20410(15) 0.139(4) Uani 1 1 d G U .
H12 H 0.4290 0.8034 0.2164 0.167 Uiso 1 1 calc R U .
C13 C 0.44380(11) 0.76393(18) 0.20022(16) 0.142(4) Uani 1 1 d DG U .
C14 C 0.43634(12) 0.74013(15) 0.18217(16) 0.117(3) Uani 1 1 d G U .
H14 H 0.4499 0.7243 0.1795 0.140 Uiso 1 1 calc R U .
C15 C 0.40901(12) 0.73953(12) 0.16800(14) 0.108(2) Uani 1 1 d DG U .
C16 C 0.38914(10) 0.76273(15) 0.17189(13) 0.116(3) Uani 1 1 d G U .
H16 H 0.3705 0.7623 0.1622 0.139 Uiso 1 1 calc R U .
C17 C 0.4719(4) 0.7637(4) 0.2175(5) 0.204(7) Uani 1 1 d D U .
C18 C 0.3998(2) 0.7146(3) 0.1495(2) 0.126(3) Uani 1 1 d D U .
N1 N 0.5696(2) 0.60607(17) 0.0686(2) 0.121(2) Uani 1 1 d D U .
N2 N 0.53312(19) 0.6065(2) 0.1038(2) 0.133(3) Uani 1 1 d D U .
H2 H 0.5275 0.6226 0.0944 0.160 Uiso 1 1 calc R U .
N3 N 0.3414(2) 0.84381(19) 0.1947(2) 0.127(3) Uani 1 1 d D U .
N4 N 0.37917(19) 0.8092(2) 0.1950(2) 0.139(3) Uani 1 1 d D U .
H4 H 0.3845 0.8195 0.2107 0.167 Uiso 1 1 calc R U .
O1 O 0.43050(18) 0.63156(19) 0.1259(2) 0.154(3) Uani 1 1 d D U .
O2 O 0.4173(2) 0.6032(2) 0.1670(2) 0.148(3) Uani 1 1 d D U .
O3 O 0.48858(19) 0.53290(19) 0.20697(16) 0.138(3) Uani 1 1 d D U .
O4 O 0.5354(2) 0.5385(2) 0.19405(16) 0.143(3) Uani 1 1 d D U .
O5 O 0.4766(2) 0.7868(3) 0.2346(2) 0.179(4) Uani 1 1 d D U .
O6 O 0.48958(18) 0.7455(3) 0.2161(3) 0.208(6) Uani 1 1 d D U .
O7 O 0.41693(17) 0.69113(19) 0.15098(19) 0.139(2) Uani 1 1 d D U .
O8 O 0.37612(19) 0.71366(18) 0.1344(2) 0.151(3) Uani 1 1 d D U .
O9 O 0.36181(14) 0.63819(14) 0.13819(14) 0.159(4) Uani 1 3 d S TU P
loop_
_atom_site_aniso_label
_atom_site_aniso_U_11
_atom_site_aniso_U_22
_atom_site_aniso_U_33
_atom_site_aniso_U_23
_atom_site_aniso_U_13
_atom_site_aniso_U_12
Zn1 0.1485(16) 0.1828(19) 0.0688(9) 0.000 0.000 -0.0050(11)
Zn2 0.1598(13) 0.1382(11) 0.1473(12) -0.0319(9) 0.0280(10) 0.0547(9)
C1 0.162(8) 0.090(6) 0.102(7) -0.004(5) 0.043(6) 0.018(6)
C2 0.130(7) 0.119(7) 0.121(7) 0.009(5) 0.036(6) 0.024(6)
C3 0.133(7) 0.132(7) 0.107(6) -0.002(5) 0.033(5) 0.046(6)
C4 0.135(7) 0.114(7) 0.107(6) -0.019(5) 0.037(5) 0.028(5)
C5 0.120(7) 0.174(10) 0.105(7) -0.004(6) 0.014(6) -0.001(6)
C6 0.128(7) 0.195(10) 0.066(5) 0.005(5) 0.005(5) 0.002(6)
C7 0.113(6) 0.131(7) 0.097(6) -0.008(5) 0.011(5) 0.001(5)
C8 0.122(7) 0.148(9) 0.118(7) -0.022(6) 0.007(6) 0.011(6)
C9 0.143(8) 0.164(9) 0.072(5) -0.015(5) -0.004(6) 0.001(7)
C10 0.094(6) 0.131(8) 0.115(7) -0.019(5) -0.011(5) 0.016(5)
C11 0.099(6) 0.150(7) 0.090(6) -0.018(5) -0.009(5) 0.027(5)
C12 0.116(7) 0.177(10) 0.124(8) -0.026(7) -0.036(6) 0.036(6)
C13 0.107(7) 0.158(9) 0.161(10) 0.000(7) -0.031(6) 0.034(6)
C14 0.088(5) 0.138(7) 0.123(7) 0.023(5) 0.006(4) 0.036(5)
C15 0.096(5) 0.126(6) 0.101(6) 0.005(5) 0.015(4) 0.028(5)
C16 0.091(5) 0.160(8) 0.096(6) -0.034(5) -0.010(4) 0.054(5)
C17 0.175(13) 0.196(13) 0.240(16) -0.050(11) -0.095(11) 0.087(10)
C18 0.113(6) 0.164(8) 0.099(6) -0.024(6) 0.004(5) 0.070(6)
N1 0.127(7) 0.094(5) 0.141(7) 0.026(5) 0.021(5) 0.007(5)
N2 0.141(6) 0.145(7) 0.114(6) 0.011(5) 0.043(5) 0.039(6)
N3 0.116(6) 0.097(5) 0.167(8) -0.009(5) -0.051(6) 0.016(4)
N4 0.121(6) 0.148(7) 0.149(7) -0.065(6) -0.050(5) 0.036(5)
O1 0.160(6) 0.149(6) 0.153(6) -0.005(5) 0.060(5) 0.075(5)
O2 0.139(6) 0.143(6) 0.163(7) -0.025(5) 0.054(5) 0.006(5)
O3 0.152(6) 0.166(7) 0.097(5) 0.015(4) 0.001(4) 0.014(5)
O4 0.151(6) 0.186(8) 0.091(4) 0.015(5) 0.002(5) 0.010(6)
O5 0.172(9) 0.184(9) 0.180(9) -0.006(6) -0.076(7) 0.031(7)
O6 0.107(6) 0.285(12) 0.231(10) -0.092(10) -0.073(6) 0.077(7)
O7 0.121(5) 0.137(5) 0.158(6) -0.024(4) 0.015(4) 0.063(4)
O8 0.142(6) 0.140(5) 0.171(7) -0.063(5) -0.034(5) 0.053(5)
O9 0.159(4) 0.159(4) 0.159(4) -0.043(4) 0.043(4) 0.043(4)
loop_
_atom_type_symbol
_atom_type_description
_atom_type_scat_dispersion_real
_atom_type_scat_dispersion_imag
_atom_type_scat_source
C C 0.0033 0.0016 'International Tables Vol C Tables 4.2.6.8 and 6.1.1.4'
H H 0.0000 0.0000 'International Tables Vol C Tables 4.2.6.8 and 6.1.1.4'
N N 0.0061 0.0033 'International Tables Vol C Tables 4.2.6.8 and 6.1.1.4'
O O 0.0106 0.0060 'International Tables Vol C Tables 4.2.6.8 and 6.1.1.4'
Zn Zn 0.2839 1.4301 'International Tables Vol C Tables 4.2.6.8 and 6.1.1.4'
loop_
_geom_angle_atom_site_label_1
_geom_angle_atom_site_label_2
_geom_angle_atom_site_label_3
_geom_angle
_geom_angle_site_symmetry_1
_geom_angle_site_symmetry_3
O3 Zn1 O3 107.4(5) 26_654 .
O3 Zn1 O6 104.4(5) 26_654 72_565
O3 Zn1 O6 120.0(4) . 72_565
O3 Zn1 O6 120.0(4) 26_654 93_445
O3 Zn1 O6 104.4(5) . 93_445
O6 Zn1 O6 101.6(6) 72_565 93_445
O3 Zn1 C17 98.0(6) 26_654 72_565
O3 Zn1 C17 142.9(5) . 72_565
O6 Zn1 C17 24.7(5) 72_565 72_565
O6 Zn1 C17 84.8(6) 93_445 72_565
O3 Zn1 C17 142.9(5) 26_654 93_445
O3 Zn1 C17 98.0(6) . 93_445
O6 Zn1 C17 84.8(6) 72_565 93_445
O6 Zn1 C17 24.7(5) 93_445 93_445
C17 Zn1 C17 75.5(11) 72_565 93_445
O2 Zn2 O9 110.7(3) 58 .
O2 Zn2 O7 118.5(4) 58 .
O9 Zn2 O7 123.2(3) . .
O2 Zn2 O1 96.2(4) 58 .
O9 Zn2 O1 105.1(4) . .
O7 Zn2 O1 96.3(4) . .
N1 C1 N1 126.3(9) 53_554 .
N1 C1 N2 118.9(10) 53_554 .
N1 C1 N2 114.3(11) . .
C3 C2 C7 120.0 . .
C3 C2 N2 115.6(5) . .
C7 C2 N2 124.2(5) . .
C2 C3 C4 120.0 . .
C5 C4 C3 120.0 . .
C5 C4 C8 119.8(7) . .
C3 C4 C8 120.1(7) . .
C4 C5 C6 120.0 . .
C7 C6 C5 120.0 . .
C7 C6 C9 116.0(7) . .
C5 C6 C9 124.0(7) . .
C6 C7 C2 120.0 . .
O1 C8 O2 126.9(11) . .
O1 C8 C4 115.6(10) . .
O2 C8 C4 116.7(11) . .
O4 C9 O3 120.5(11) . .
O4 C9 C6 125.4(12) . .
O3 C9 C6 113.9(10) . .
N3 C10 N3 126.7(9) 11_465 .
N3 C10 N4 116.2(10) 11_465 .
N3 C10 N4 116.5(9) . .
N4 C11 C12 115.9(5) . .
N4 C11 C16 124.1(5) . .
C12 C11 C16 120.0 . .
C11 C12 C13 120.0 . .
C14 C13 C12 120.0 . .
C14 C13 C17 120.5(8) . .
C12 C13 C17 119.3(8) . .
C15 C14 C13 120.0 . .
C16 C15 C14 120.0 . .
C16 C15 C18 118.0(5) . .
C14 C15 C18 122.0(5) . .
C15 C16 C11 120.0 . .
O6 C17 O5 119.3(13) . .
O6 C17 C13 124.7(15) . .
O5 C17 C13 115.9(12) . .
O6 C17 Zn1 46.4(7) . 47_544
O5 C17 Zn1 74.4(7) . 47_544
C13 C17 Zn1 166.2(14) . 47_544
O8 C18 O7 119.8(10) . .
O8 C18 C15 124.9(8) . .
O7 C18 C15 115.2(9) . .
C1 N1 C1 113.5(9) 33_554 .
C1 N2 C2 129.9(9) . .
C10 N3 C10 112.5(10) 8_556 .
C11 N4 C10 134.5(8) . .
C8 O1 Zn2 124.5(7) . .
C8 O2 Zn2 123.5(9) . 79_554
C9 O3 Zn1 115.8(7) . .
C17 O6 Zn1 108.9(11) . 47_544
C18 O7 Zn2 105.0(7) . .
Zn2 O9 Zn2 109.5(3) 58 79_554
Zn2 O9 Zn2 109.5(3) 58 .
Zn2 O9 Zn2 109.5(3) 79_554 .
loop_
_geom_bond_atom_site_label_1
_geom_bond_atom_site_label_2
_geom_bond_distance
_geom_bond_site_symmetry_2
Zn1 O3 1.951(8) 26_654
Zn1 O3 1.951(8) .
Zn1 O6 1.991(9) 72_565
Zn1 O6 1.991(9) 93_445
Zn1 C17 2.600(13) 72_565
Zn1 C17 2.600(13) 93_445
Zn2 O2 1.953(9) 58
Zn2 O9 1.979(4) .
Zn2 O7 1.997(10) .
Zn2 O1 2.007(7) .
C1 N1 1.306(13) 53_554
C1 N1 1.343(13) .
C1 N2 1.381(11) .
C2 C3 1.3900 .
C2 C7 1.3900 .
C2 N2 1.398(10) .
C3 C4 1.3900 .
C4 C5 1.3900 .
C4 C8 1.442(12) .
C5 C6 1.3900 .
C6 C7 1.3900 .
C6 C9 1.466(12) .
C8 O1 1.294(15) .
C8 O2 1.313(14) .
C9 O4 1.137(14) .
C9 O3 1.402(14) .
C10 N3 1.331(12) 11_465
C10 N3 1.340(13) .
C10 N4 1.378(11) .
C11 N4 1.313(9) .
C11 C12 1.3900 .
C11 C16 1.3900 .
C12 C13 1.3900 .
C13 C14 1.3900 .
C13 C17 1.490(13) .
C14 C15 1.3900 .
C15 C16 1.3900 .
C15 C18 1.462(11) .
C17 O6 1.146(16) .
C17 O5 1.316(17) .
C17 Zn1 2.600(13) 47_544
C18 O8 1.270(12) .
C18 O7 1.313(12) .
N1 C1 1.306(13) 33_554
N3 C10 1.331(12) 8_556
O2 Zn2 1.953(9) 79_554
O6 Zn1 1.991(9) 47_544
O9 Zn2 1.979(4) 58
O9 Zn2 1.979(4) 79_554
