#------------------------------------------------------------------------------
#$Date: 2019-11-17 09:51:58 +0200 (Sun, 17 Nov 2019) $
#$Revision: 229199 $
#$URL: file:///home/coder/svn-repositories/cod/cif/7/04/69/7046924.cif $
#------------------------------------------------------------------------------
#
# This file is available in the Crystallography Open Database (COD),
# http://www.crystallography.net/
#
# All data on this site have been placed in the public domain by the
# contributors.
#
data_7046924
loop_
_publ_author_name
'Tong, Wen-Quan'
'Liu, Wei-Ni'
'Cheng, Jian-Guo'
'Zhang, Peng-Feng'
'Li, Gao-Peng'
'Hou, Lei'
'Wang, Yao-Yu'
_publ_section_title
;
 A new stable luminescent Cd(ii) metal-organic framework with fluorescent
 sensing and selective dye adsorption properties.
;
_journal_issue                   28
_journal_name_full
'Dalton transactions (Cambridge, England : 2003)'
_journal_page_first              9466
_journal_page_last               9473
_journal_paper_doi               10.1039/c8dt01694a
_journal_volume                  47
_journal_year                    2018
_chemical_formula_sum            'C28 H18 Cd3 N4 O19'
_chemical_formula_weight         1051.66
_space_group_crystal_system      monoclinic
_space_group_IT_number           14
_space_group_name_Hall           '-P 2yn'
_space_group_name_H-M_alt        'P 1 21/n 1'
_symmetry_space_group_name_Hall  '-P 2yn'
_symmetry_space_group_name_H-M   'P 1 21/n 1'
_atom_sites_solution_hydrogens   mixed
_audit_creation_method           SHELXL-2014/7
_audit_update_record
;
2018-05-24 deposited with the CCDC.
2018-06-05 downloaded from the CCDC.
;
_cell_angle_alpha                90
_cell_angle_beta                 92.736(4)
_cell_angle_gamma                90
_cell_formula_units_Z            4
_cell_length_a                   12.018(3)
_cell_length_b                   14.091(3)
_cell_length_c                   26.904(6)
_cell_measurement_reflns_used    2257
_cell_measurement_temperature    296(2)
_cell_measurement_theta_max      26.03
_cell_measurement_theta_min      2.06
_cell_volume                     4550.9(18)
_computing_cell_refinement       'Bruker SAINT'
_computing_data_collection       'Bruker APEX2'
_computing_data_reduction        'Bruker SAINT'
_computing_molecular_graphics    'Bruker SHELXTL'
_computing_publication_material  'Bruker SHELXTL'
_computing_structure_refinement  'SHELXL-2014/7 (Sheldrick, 2014)'
_computing_structure_solution    'SHELXS-97 (Sheldrick 2008)'
_diffrn_ambient_temperature      296(2)
_diffrn_measured_fraction_theta_full 0.959
_diffrn_measured_fraction_theta_max 0.962
_diffrn_measurement_device_type  'Bruker APEX-II CCD'
_diffrn_radiation_type           MoK\a
_diffrn_radiation_wavelength     0.71073
_diffrn_reflns_av_R_equivalents  0.0499
_diffrn_reflns_av_unetI/netI     0.0590
_diffrn_reflns_Laue_measured_fraction_full 0.959
_diffrn_reflns_Laue_measured_fraction_max 0.962
_diffrn_reflns_limit_h_max       10
_diffrn_reflns_limit_h_min       -14
_diffrn_reflns_limit_k_max       16
_diffrn_reflns_limit_k_min       -17
_diffrn_reflns_limit_l_max       28
_diffrn_reflns_limit_l_min       -33
_diffrn_reflns_number            22804
_diffrn_reflns_point_group_measured_fraction_full 0.959
_diffrn_reflns_point_group_measured_fraction_max 0.962
_diffrn_reflns_theta_full        25.242
_diffrn_reflns_theta_max         25.998
_diffrn_reflns_theta_min         1.516
_exptl_absorpt_coefficient_mu    1.456
_exptl_absorpt_correction_type   multi-scan
_exptl_absorpt_process_details   sadabs
_exptl_crystal_colour            colorless
_exptl_crystal_density_diffrn    1.535
_exptl_crystal_description       block
_exptl_crystal_F_000             2040
_exptl_crystal_size_max          0.140
_exptl_crystal_size_mid          0.120
_exptl_crystal_size_min          0.090
_exptl_transmission_factor_max   0.877
_exptl_transmission_factor_min   0.816
_refine_diff_density_max         3.078
_refine_diff_density_min         -3.552
_refine_diff_density_rms         0.318
_refine_ls_extinction_method     none
_refine_ls_goodness_of_fit_ref   1.067
_refine_ls_hydrogen_treatment    constr
_refine_ls_matrix_type           full
_refine_ls_number_parameters     489
_refine_ls_number_reflns         8600
_refine_ls_number_restraints     81
_refine_ls_restrained_S_all      1.069
_refine_ls_R_factor_all          0.1113
_refine_ls_R_factor_gt           0.1020
_refine_ls_shift/su_max          0.001
_refine_ls_shift/su_mean         0.000
_refine_ls_structure_factor_coef Fsqd
_refine_ls_weighting_details
'w=1/[\s^2^(Fo^2^)+(0.1685P)^2^+103.5311P] where P=(Fo^2^+2Fc^2^)/3'
_refine_ls_weighting_scheme      calc
_refine_ls_wR_factor_gt          0.2810
_refine_ls_wR_factor_ref         0.2884
_reflns_Friedel_coverage         0.000
_reflns_number_gt                7179
_reflns_number_total             8600
_reflns_threshold_expression     'I > 2\s(I)'
_cod_data_source_file            c8dt01694a2.cif
_cod_data_source_block           1
_cod_depositor_comments          'Adding full bibliography for 7046924.cif.'
_cod_database_code               7046924
_shelx_shelxl_version_number     2014/7
_shelx_space_group_comment
;
The symmetry employed for this shelxl refinement is uniquely defined
by the following loop, which should always be used as a source of
symmetry information in preference to the above space-group names.
They are only intended as comments.
;
_shelx_estimated_absorpt_t_min   0.822
_shelx_estimated_absorpt_t_max   0.880
_shelx_res_file
;

    2.res created by SHELXL-2014/7

TITL 2_a.res in P-1 New: P21/n
CELL 0.71073 12.018 14.091 26.904 90 92.736 90
ZERR 4 0.003 0.003 0.006 0 0.004 0
LATT 1
SYMM 0.5-X,0.5+Y,0.5-Z
SFAC C H Cd N O
UNIT 112 72 12 16 76
DFIX 2.85 0.01 O15 O18
DFIX 1.25 0.01 C1 O1
DFIX 1.45 0.01 C1 C2
ISOR 0.005 0.005 N1 C1 N4 C11
ISOR 0.005 0.005 O4 O7 N3 C3 C24 N2 C15 N1 C20 C10

L.S. 5
PLAN  10
SIZE 0.14 0.12 0.09
TEMP 23
BOND $H
ABIN
fmap 2
acta
OMIT 0 52
OMIT 4 14 4
OMIT -4 8 1
OMIT 1 2 11
OMIT 5 3 1
OMIT 4 14 0
OMIT 8 5 10
OMIT -4 3 9
OMIT -5 7 17
OMIT -4 2 8
OMIT -9 5 12
OMIT 6 4 2
OMIT 5 3 11
OMIT 6 4 4
OMIT -5 10 6
OMIT -10 3 11
OMIT -2 5 6
OMIT -9 1 10
OMIT -5 3 9
OMIT -9 2 10
OMIT 1 0 1
OMIT 9 4 10
OMIT -8 8 11
OMIT -4 0 6
OMIT 4 1 4
OMIT 1 8 2
OMIT 4 5 2
OMIT -1 1 15
OMIT -13 2 11
OMIT -5 7 19
OMIT -9 6 16
OMIT 14 2 6
OMIT -5 12 5
OMIT -5 2 1
OMIT 4 12 1
OMIT -4 3 4
OMIT -4 8 12
OMIT 5 8 3
OMIT -1 3 4
OMIT -1 8 4
OMIT 5 2 10
OMIT -9 4 5
OMIT -3 1 1
OMIT -8 4 2
OMIT -4 1 7
OMIT 5 3 21
OMIT -4 8 6
OMIT -4 6 17
OMIT -9 2 16
OMIT -5 6 28
OMIT -8 1 7
OMIT -6 1 2
OMIT -2 3 5
OMIT -6 8 2
OMIT -5 6 22
OMIT -5 1 8
OMIT -4 12 3
OMIT 5 2 13
OMIT -2 5 1
OMIT 4 6 11
OMIT -4 7 6
OMIT 9 8 1
OMIT -4 7 4
OMIT 5 10 4
OMIT -1 3 14
OMIT -4 7 14
OMIT 0 0 16
OMIT -6 1 20
OMIT 9 0 17
OMIT -1 4 14
OMIT -4 4 5
OMIT 6 6 9
OMIT -5 1 6
OMIT 9 9 0
OMIT -5 8 11
OMIT -1 3 20
OMIT -5 5 10
OMIT 5 12 2
OMIT 4 8 4
OMIT -1 7 10
OMIT 4 6 13
OMIT -4 14 6
OMIT -5 7 15
OMIT -5 8 10
OMIT -4 5 17
OMIT -1 1 18
OMIT -4 11 7
OMIT -8 6 6
OMIT 10 2 5
OMIT -3 3 6
OMIT 3 0 17
OMIT 3 0 19
OMIT 4 5 15
OMIT 4 7 6
OMIT -4 6 1
OMIT 4 8 12
OMIT 1 7 8
OMIT 5 2 8
OMIT -4 6 11
OMIT -9 1 7
OMIT -5 1 19
OMIT -14 2 2
OMIT -4 14 2
OMIT 10 0 10
OMIT -5 10 2
OMIT -4 5 5
OMIT -1 6 13
OMIT 5 1 4
OMIT -9 3 9
OMIT 5 8 9
OMIT 5 5 2
OMIT 5 4 3
OMIT -5 6 6
OMIT -9 9 3
OMIT 4 6 7
OMIT 5 10 2
OMIT 9 0 7
OMIT 9 3 6
OMIT -1 8 3
OMIT -9 0 11
OMIT 1 8 6
OMIT 1 3 22
OMIT 5 2 7
OMIT -5 6 20
OMIT -4 12 1
OMIT 4 4 3
OMIT -5 8 1
OMIT -4 6 15
OMIT 4 2 0
OMIT -5 8 23
OMIT 5 8 5
OMIT -4 4 16
OMIT -14 2 6
OMIT -1 0 23
OMIT 4 4 1
OMIT -2 1 2
OMIT 5 8 11
OMIT 4 10 8
OMIT -1 5 15
OMIT -4 2 4
OMIT 5 3 7
OMIT 1 4 1
OMIT 5 5 6
OMIT 14 2 2
OMIT -4 3 12
OMIT -1 3 16
OMIT 4 2 8
OMIT -4 4 1
OMIT -4 2 10
OMIT -4 0 4
OMIT 9 1 1
OMIT 5 6 10
OMIT 5 1 3
OMIT -1 9 6
OMIT 4 4 12
OMIT -3 2 3
OMIT -1 7 5
OMIT 14 2 0
OMIT -4 6 21
OMIT -8 0 6
OMIT 5 4 1
OMIT -5 6 4
OMIT -5 10 4
OMIT 14 2 4
OMIT 5 10 0
OMIT 5 6 4
OMIT -5 6 2
OMIT -4 3 10
OMIT -1 1 11
OMIT 5 6 6
OMIT 5 6 0
OMIT -2 0 2
OMIT -1 0 1
OMIT -5 4 5
OMIT -4 2 6
OMIT -5 8 5
OMIT -5 5 6
REM <olex2.extras>
REM <HklSrc "%.\\2.hkl">
REM </olex2.extras>

WGHT    0.168500  103.531097
FVAR       1.92295
CD1   3    0.614466    0.342174    0.551100    11.00000    0.03959    0.03072 =
         0.01885    0.00217   -0.00090    0.01445
CD2   3    0.652260    0.584296    0.264256    11.00000    0.01115    0.01445 =
         0.02189    0.00162    0.00136   -0.00197
CD3   3    0.356692    0.659556    0.262450    11.00000    0.01100    0.01496 =
         0.02676   -0.00134   -0.00025    0.00005
O7    5    0.535263    0.724670    0.260897    11.00000    0.02443    0.02127 =
         0.03049    0.00112    0.00810   -0.00519
O5    5    0.826477    1.074195    0.150520    11.00000    0.02641    0.01318 =
         0.03304    0.00386   -0.00024   -0.01395
O13   5    0.683285    0.182180    0.241385    11.00000    0.01744    0.04125 =
         0.02891   -0.00327   -0.00133    0.00961
O18   5    0.488276    0.439473    0.575726    11.00000    0.08230    0.04190 =
         0.06735    0.03186    0.04851    0.03579
AFIX   3
H18A  2    0.493866    0.445383    0.607176    11.00000   -1.50000
H18B  2    0.497526    0.493243    0.562186    11.00000   -1.50000
AFIX   0
O9    5    0.467264    0.520040    0.268692    11.00000    0.01583    0.02104 =
         0.02496   -0.00544   -0.00522    0.00643
O14   5    0.778008    0.138835    0.309605    11.00000    0.02195    0.02829 =
         0.03154    0.00239    0.00482    0.01172
O11   5    0.148511    0.179058    0.152998    11.00000    0.03307    0.02532 =
         0.03152    0.00019   -0.00368   -0.01866
O17   5    0.757194    0.453077    0.557724    11.00000    0.06627    0.06152 =
         0.05350    0.01128   -0.01516   -0.01136
AFIX   7
H17A  2    0.792784    0.471957    0.584124    11.00000   -1.50000
H17B  2    0.785903    0.484178    0.534304    11.00000   -1.50000
AFIX   0
O4    5    0.314040    1.062669    0.239159    11.00000    0.02587    0.02989 =
         0.03039   -0.00469   -0.00284    0.01429
O8    5    0.440336    0.754531    0.192172    11.00000    0.03736    0.04031 =
         0.07478    0.01176   -0.00978   -0.02259
O1    5    0.652482    1.028108    0.460172    11.00000    0.04670    0.06470 =
         0.03131   -0.01680   -0.02005    0.01631
O3    5    0.245102    1.114692    0.308601    11.00000    0.02609    0.04360 =
         0.03548   -0.00445    0.00322    0.01931
O19   5    0.489447    0.219564    0.551235    11.00000    0.09609    0.04454 =
         0.08000   -0.03334    0.04247   -0.02685
AFIX   7
H19A  2    0.474541    0.204088    0.581685    11.00000   -1.50000
H19B  2    0.519089    0.167842    0.539729    11.00000   -1.50000
AFIX   0
O10   5    0.557610    0.480159    0.204127    11.00000    0.02850    0.03534 =
         0.04359   -0.00210    0.00403   -0.01489
O6    5    0.727722    1.009859    0.086739    11.00000    0.08713    0.06291 =
         0.02083    0.00013   -0.00785   -0.03000
O16   5    0.668727    0.278867    0.473557    11.00000    0.03653    0.05401 =
         0.02458   -0.00329   -0.00696    0.02319
O15   5    0.534951    0.388543    0.473979    11.00000    0.04722    0.04752 =
         0.02805   -0.00751   -0.00745    0.01327
O2    5    0.487544    1.100352    0.467396    11.00000    0.07787    0.03037 =
         0.02863   -0.01156   -0.01753    0.00647
O12   5    0.226218    0.259126    0.092574    11.00000    0.06304    0.05186 =
         0.01759    0.00822   -0.01150   -0.03801
N2    4    0.673173    0.888399    0.239229    11.00000    0.01713    0.01085 =
         0.01781   -0.00017    0.00302   -0.00156
N1    4    0.733996    0.954822    0.216002    11.00000    0.01124    0.01646 =
         0.01749    0.00150    0.00190   -0.00346
N3    4    0.325332    0.354793    0.246876    11.00000    0.00955    0.00639 =
         0.01735   -0.00137   -0.00226   -0.00124
N4    4    0.255768    0.293010    0.222776    11.00000    0.01331    0.01764 =
         0.01287    0.00182   -0.00588   -0.00562
C14   1    0.751050    1.014832    0.131423    11.00000    0.02389    0.02755 =
         0.02756    0.00597    0.00424    0.00162
C13   1    0.702758    0.948224    0.167176    11.00000    0.01541    0.01418 =
         0.02067    0.00612    0.00845    0.00805
C16   1    0.388438    0.402370    0.214859    11.00000    0.01532    0.01384 =
         0.02536   -0.00312   -0.00045   -0.00525
C21   1    0.697252    0.183957    0.287877    11.00000    0.02090    0.02052 =
         0.02486   -0.00410   -0.00150   -0.00810
C23   1    0.514972    0.268002    0.295698    11.00000    0.01828    0.02480 =
         0.01676   -0.00176   -0.00147   -0.00390
AFIX  43
H23   2    0.496878    0.255259    0.262370    11.00000   -1.20000
AFIX   0
C22   1    0.618255    0.235600    0.317394    11.00000    0.02502    0.01192 =
         0.02729   -0.00098   -0.00404    0.00228
C27   1    0.643513    0.252436    0.368251    11.00000    0.02360    0.03107 =
         0.03109    0.00727    0.00252    0.00247
AFIX  43
H27   2    0.709320    0.229362    0.383318    11.00000   -1.20000
AFIX   0
C5    1    0.496057    0.977973    0.290572    11.00000    0.01196    0.03292 =
         0.02651   -0.00018    0.00722    0.00058
AFIX  43
H5    2    0.481834    0.961542    0.257396    11.00000   -1.20000
AFIX   0
C28   1    0.596339    0.324155    0.449903    11.00000    0.02860    0.03411 =
         0.01621   -0.00219    0.00478   -0.00329
C10   1    0.519823    0.768181    0.219323    11.00000    0.02637    0.02120 =
         0.03162   -0.00634   -0.00051   -0.00166
C8    1    0.316400    1.069371    0.285106    11.00000    0.02742    0.01057 =
         0.02390    0.00645   -0.01819   -0.00064
C12   1    0.620854    0.877908    0.159267    11.00000    0.02967    0.02547 =
         0.01345   -0.01235   -0.00625    0.00223
AFIX  43
H12   2    0.585148    0.860135    0.129276    11.00000   -1.20000
AFIX   0
C26   1    0.568478    0.304388    0.396057    11.00000    0.01601    0.01992 =
         0.02679    0.00550    0.00275    0.00138
C4    1    0.595409    0.946326    0.315315    11.00000    0.02275    0.01494 =
         0.02626    0.00178   -0.00152    0.00657
C20   1    0.331783    0.355518    0.301625    11.00000    0.01647    0.01266 =
         0.01679   -0.00704   -0.00215    0.00392
AFIX  23
H20A  2    0.271648    0.317263    0.313702    11.00000   -1.20000
H20B  2    0.321702    0.419990    0.313218    11.00000   -1.20000
AFIX   0
C1    1    0.558398    1.060576    0.443004    11.00000    0.02699    0.03841 =
         0.02928    0.00413    0.00166   -0.00447
C3    1    0.611350    0.973352    0.365727    11.00000    0.01653    0.02295 =
         0.02546    0.00246    0.00271    0.00558
AFIX  43
H3    2    0.675840    0.953335    0.383133    11.00000   -1.20000
AFIX   0
C15   1    0.475072    0.471291    0.230483    11.00000    0.01604    0.01497 =
         0.02523    0.00493   -0.00794   -0.00239
C25   1    0.467345    0.337641    0.373263    11.00000    0.02108    0.02213 =
         0.02132   -0.00062   -0.00188    0.00615
AFIX  43
H25   2    0.418033    0.372663    0.391560    11.00000   -1.20000
AFIX   0
C11   1    0.605616    0.841920    0.204993    11.00000    0.01880    0.01600 =
         0.02976   -0.00257    0.00210   -0.00036
C17   1    0.359759    0.371404    0.168520    11.00000    0.05015    0.00983 =
         0.02166    0.00137   -0.01039   -0.00483
AFIX  43
H17   2    0.389240    0.390632    0.138810    11.00000   -1.20000
AFIX   0
C6    1    0.418868    1.033062    0.314469    11.00000    0.01183    0.02031 =
         0.02266    0.00425   -0.00310    0.00869
C9    1    0.681826    0.883853    0.293166    11.00000    0.01412    0.02773 =
         0.02680    0.00188    0.00556    0.00822
AFIX  23
H9A   2    0.755547    0.904222    0.304940    11.00000   -1.20000
H9B   2    0.671492    0.818839    0.303861    11.00000   -1.20000
AFIX   0
C24   1    0.441900    0.317635    0.323161    11.00000    0.01825    0.01503 =
         0.01920    0.00230   -0.00028    0.00064
C7    1    0.438543    1.058539    0.363627    11.00000    0.01995    0.02760 =
         0.02685   -0.00179    0.00340    0.00655
AFIX  43
H7    2    0.386734    1.096231    0.378979    11.00000   -1.20000
AFIX   0
C19   1    0.212763    0.244732    0.137721    11.00000    0.04474    0.03542 =
         0.02140   -0.00563   -0.01054   -0.01308
C18   1    0.276521    0.304482    0.174865    11.00000    0.01272    0.01512 =
         0.01860    0.00164   -0.00446    0.00177
C2    1    0.534643    1.029103    0.391088    11.00000    0.02864    0.02283 =
         0.02317   -0.00090    0.00038    0.00881
HKLF 4

REM  2_a.res in P-1 New: P21/n
REM R1 =  0.1020 for    7179 Fo > 4sig(Fo)  and  0.1113 for all    8600 data
REM    489 parameters refined using     81 restraints

END

WGHT      0.1685    103.4807

REM Highest difference peak  3.078,  deepest hole -3.552,  1-sigma level  0.318
Q1    1   0.5723  0.6651  0.2644  11.00000  0.05    3.08
Q2    1   0.3707  1.1555  0.2377  11.00000  0.05    3.03
Q3    1   0.7565  0.0996  0.2663  11.00000  0.05    2.89
Q4    1   0.6283  0.0849  0.2349  11.00000  0.05    2.79
Q5    1   0.3547  0.4145  0.5557  11.00000  0.05    2.71
Q6    1   0.5347  1.0965  0.2599  11.00000  0.05    2.69
Q7    1   0.4281  0.5821  0.2623  11.00000  0.05    2.48
Q8    1   0.8183  0.3475  0.5541  11.00000  0.05    2.24
Q9    1   0.5480  1.0988  0.4473  11.00000  0.05    2.22
Q10   1   0.4583  0.1768  0.2620  11.00000  0.05    2.12
;
_shelx_res_checksum              28803
_shelx_fab_file
;
-14 0 -8 0.0000 0.0000
-14 0 -6 0.0000 0.0000
-14 0 -4 0.0000 0.0000
-14 0 -2 0.0000 0.0000
-14 0 0 0.0000 0.0000
-14 0 2 0.0000 0.0000
-14 0 4 0.0000 0.0000
-14 0 6 0.0000 0.0000
-14 0 8 0.0000 0.0000
-14 0 10 0.0000 0.0000
-14 0 12 0.0000 0.0000
-14 1 -9 0.0000 0.0000
-14 1 -8 0.0000 0.0000
-14 1 -7 0.0000 0.0000
-14 1 -6 0.0000 0.0000
-14 1 -5 0.0000 0.0000
-14 1 -4 0.0000 0.0000
-14 1 -3 0.0000 0.0000
-14 1 -2 0.0000 0.0000
-14 1 -1 0.0000 0.0000
-14 1 0 0.0000 0.0000
-14 1 1 0.0000 0.0000
-14 1 2 0.0000 0.0000
-14 1 3 0.0000 0.0000
-14 1 4 0.0000 0.0000
-14 1 5 0.0000 0.0000
-14 1 6 0.0000 0.0000
-14 1 7 0.0000 0.0000
-14 1 8 0.0000 0.0000
-14 1 9 0.0000 0.0000
-14 1 10 0.0000 0.0000
-14 1 11 0.0000 0.0000
-14 1 12 0.0000 0.0000
-14 2 -8 0.0000 0.0000
-14 2 -7 0.0000 0.0000
-14 2 -5 0.0000 0.0000
-14 2 -3 0.0000 0.0000
-14 2 -1 0.0000 0.0000
-14 2 1 0.0000 0.0000
-14 2 3 0.0000 0.0000
-14 2 4 0.0000 0.0000
-14 2 5 0.0000 0.0000
-14 2 7 0.0000 0.0000
-14 2 8 0.0000 0.0000
-14 2 9 0.0000 0.0000
-14 2 10 0.0000 0.0000
-14 2 11 0.0000 0.0000
-14 3 -7 0.0000 0.0000
-14 3 -6 0.0000 0.0000
-14 3 -5 0.0000 0.0000
-14 3 -4 0.0000 0.0000
-14 3 -3 0.0000 0.0000
-14 3 -2 0.0000 0.0000
-14 3 -1 0.0000 0.0000
-14 3 0 0.0000 0.0000
-14 3 1 0.0000 0.0000
-14 3 2 0.0000 0.0000
-14 3 3 0.0000 0.0000
-14 3 4 0.0000 0.0000
-14 3 5 0.0000 0.0000
-14 3 6 0.0000 0.0000
-14 3 7 0.0000 0.0000
-14 3 8 0.0000 0.0000
-14 3 9 0.0000 0.0000
-14 3 10 0.0000 0.0000
-14 4 -6 0.0000 0.0000
-14 4 -5 0.0000 0.0000
-14 4 -4 0.0000 0.0000
-14 4 -3 0.0000 0.0000
-14 4 -2 0.0000 0.0000
-14 4 -1 0.0000 0.0000
-14 4 0 0.0000 0.0000
-14 4 1 0.0000 0.0000
-14 4 2 0.0000 0.0000
-14 4 3 0.0000 0.0000
-14 4 4 0.0000 0.0000
-14 4 5 0.0000 0.0000
-14 4 6 0.0000 0.0000
-14 4 7 0.0000 0.0000
-14 4 8 0.0000 0.0000
-14 4 9 0.0000 0.0000
-14 5 -3 0.0000 0.0000
-14 5 -2 0.0000 0.0000
-14 5 -1 0.0000 0.0000
-14 5 0 0.0000 0.0000
-14 5 1 0.0000 0.0000
-14 5 2 0.0000 0.0000
-14 5 3 0.0000 0.0000
-14 5 4 0.0000 0.0000
-14 5 5 0.0000 0.0000
-14 5 6 0.0000 0.0000
-13 0 -11 0.0000 0.0000
-13 0 -9 0.0000 0.0000
-13 0 -7 0.0000 0.0000
-13 0 -5 0.0000 0.0000
-13 0 -3 0.0000 0.0000
-13 0 -1 0.0000 0.0000
-13 0 1 0.0000 0.0000
-13 0 3 0.0000 0.0000
-13 0 5 0.0000 0.0000
-13 0 7 0.0000 0.0000
-13 0 9 0.0000 0.0000
-13 0 11 0.0000 0.0000
-13 0 13 0.0000 0.0000
-13 0 15 0.0000 0.0000
-13 0 17 0.0000 0.0000
-13 1 -12 0.0000 0.0000
-13 1 -11 0.0000 0.0000
-13 1 -10 0.0000 0.0000
-13 1 -9 0.0000 0.0000
-13 1 -8 0.0000 0.0000
-13 1 -7 0.0000 0.0000
-13 1 -6 0.0000 0.0000
-13 1 -5 0.0000 0.0000
-13 1 -4 0.0000 0.0000
-13 1 -3 0.0000 0.0000
-13 1 -2 0.0000 0.0000
-13 1 -1 0.0000 0.0000
-13 1 0 0.0000 0.0000
-13 1 1 0.0000 0.0000
-13 1 2 0.0000 0.0000
-13 1 3 0.0000 0.0000
-13 1 4 0.0000 0.0000
-13 1 5 0.0000 0.0000
-13 1 6 0.0000 0.0000
-13 1 7 0.0000 0.0000
-13 1 8 0.0000 0.0000
-13 1 9 0.0000 0.0000
-13 1 10 0.0000 0.0000
-13 1 11 0.0000 0.0000
-13 1 12 0.0000 0.0000
-13 1 13 0.0000 0.0000
-13 1 14 0.0000 0.0000
-13 1 15 0.0000 0.0000
-13 1 16 0.0000 0.0000
-13 1 17 0.0000 0.0000
-13 2 -12 0.0000 0.0000
-13 2 -11 0.0000 0.0000
-13 2 -10 0.0000 0.0000
-13 2 -9 0.0000 0.0000
-13 2 -8 0.0000 0.0000
-13 2 -7 0.0000 0.0000
-13 2 -6 0.0000 0.0000
-13 2 -5 0.0000 0.0000
-13 2 -4 0.0000 0.0000
-13 2 -3 0.0000 0.0000
-13 2 -2 0.0000 0.0000
-13 2 -1 0.0000 0.0000
-13 2 0 0.0000 0.0000
-13 2 1 0.0000 0.0000
-13 2 2 0.0000 0.0000
-13 2 3 0.0000 0.0000
-13 2 4 0.0000 0.0000
-13 2 5 0.0000 0.0000
-13 2 6 0.0000 0.0000
-13 2 7 0.0000 0.0000
-13 2 8 0.0000 0.0000
-13 2 9 0.0000 0.0000
-13 2 10 0.0000 0.0000
-13 2 12 0.0000 0.0000
-13 2 13 0.0000 0.0000
-13 2 14 0.0000 0.0000
-13 2 15 0.0000 0.0000
-13 2 16 0.0000 0.0000
-13 3 -12 0.0000 0.0000
-13 3 -11 0.0000 0.0000
-13 3 -10 0.0000 0.0000
-13 3 -9 0.0000 0.0000
-13 3 -8 0.0000 0.0000
-13 3 -7 0.0000 0.0000
-13 3 -6 0.0000 0.0000
-13 3 -5 0.0000 0.0000
-13 3 -4 0.0000 0.0000
-13 3 -3 0.0000 0.0000
-13 3 -2 0.0000 0.0000
-13 3 -1 0.0000 0.0000
-13 3 0 0.0000 0.0000
-13 3 1 0.0000 0.0000
-13 3 2 0.0000 0.0000
-13 3 3 0.0000 0.0000
-13 3 4 0.0000 0.0000
-13 3 5 0.0000 0.0000
-13 3 6 0.0000 0.0000
-13 3 7 0.0000 0.0000
-13 3 8 0.0000 0.0000
-13 3 9 0.0000 0.0000
-13 3 10 0.0000 0.0000
-13 3 11 0.0000 0.0000
-13 3 12 0.0000 0.0000
-13 3 13 0.0000 0.0000
-13 3 14 0.0000 0.0000
-13 3 15 0.0000 0.0000
-13 3 16 0.0000 0.0000
-13 4 -12 0.0000 0.0000
-13 4 -11 0.0000 0.0000
-13 4 -10 0.0000 0.0000
-13 4 -9 0.0000 0.0000
-13 4 -8 0.0000 0.0000
-13 4 -7 0.0000 0.0000
-13 4 -6 0.0000 0.0000
-13 4 -5 0.0000 0.0000
-13 4 -4 0.0000 0.0000
-13 4 -3 0.0000 0.0000
-13 4 -2 0.0000 0.0000
-13 4 -1 0.0000 0.0000
-13 4 0 0.0000 0.0000
-13 4 1 0.0000 0.0000
-13 4 2 0.0000 0.0000
-13 4 3 0.0000 0.0000
-13 4 4 0.0000 0.0000
-13 4 5 0.0000 0.0000
-13 4 6 0.0000 0.0000
-13 4 7 0.0000 0.0000
-13 4 8 0.0000 0.0000
-13 4 9 0.0000 0.0000
-13 4 10 0.0000 0.0000
-13 4 11 0.0000 0.0000
-13 4 12 0.0000 0.0000
-13 4 13 0.0000 0.0000
-13 4 14 0.0000 0.0000
-13 4 15 0.0000 0.0000
-13 5 -11 0.0000 0.0000
-13 5 -10 0.0000 0.0000
-13 5 -9 0.0000 0.0000
-13 5 -8 0.0000 0.0000
-13 5 -7 0.0000 0.0000
-13 5 -6 0.0000 0.0000
-13 5 -5 0.0000 0.0000
-13 5 -4 0.0000 0.0000
-13 5 -3 0.0000 0.0000
-13 5 -2 0.0000 0.0000
-13 5 -1 0.0000 0.0000
-13 5 0 0.0000 0.0000
-13 5 1 0.0000 0.0000
-13 5 2 0.0000 0.0000
-13 5 3 0.0000 0.0000
-13 5 4 0.0000 0.0000
-13 5 5 0.0000 0.0000
-13 5 6 0.0000 0.0000
-13 5 7 0.0000 0.0000
-13 5 8 0.0000 0.0000
-13 5 9 0.0000 0.0000
-13 5 10 0.0000 0.0000
-13 5 11 0.0000 0.0000
-13 5 12 0.0000 0.0000
-13 5 13 0.0000 0.0000
-13 5 14 0.0000 0.0000
-13 6 -9 0.0000 0.0000
-13 6 -8 0.0000 0.0000
-13 6 -7 0.0000 0.0000
-13 6 -6 0.0000 0.0000
-13 6 -5 0.0000 0.0000
-13 6 -4 0.0000 0.0000
-13 6 -3 0.0000 0.0000
-13 6 -2 0.0000 0.0000
-13 6 -1 0.0000 0.0000
-13 6 0 0.0000 0.0000
-13 6 1 0.0000 0.0000
-13 6 2 0.0000 0.0000
-13 6 3 0.0000 0.0000
-13 6 4 0.0000 0.0000
-13 6 5 0.0000 0.0000
-13 6 6 0.0000 0.0000
-13 6 7 0.0000 0.0000
-13 6 8 0.0000 0.0000
-13 6 9 0.0000 0.0000
-13 6 10 0.0000 0.0000
-13 6 11 0.0000 0.0000
-13 6 12 0.0000 0.0000
-13 7 -7 0.0000 0.0000
-13 7 -6 0.0000 0.0000
-13 7 -5 0.0000 0.0000
-13 7 -4 0.0000 0.0000
-13 7 -3 0.0000 0.0000
-13 7 -2 0.0000 0.0000
-13 7 -1 0.0000 0.0000
-13 7 0 0.0000 0.0000
-13 7 1 0.0000 0.0000
-13 7 2 0.0000 0.0000
-13 7 3 0.0000 0.0000
-13 7 4 0.0000 0.0000
-13 7 5 0.0000 0.0000
-13 7 6 0.0000 0.0000
-13 7 7 0.0000 0.0000
-13 7 8 0.0000 0.0000
-13 7 9 0.0000 0.0000
-13 7 10 0.0000 0.0000
-13 8 -3 0.0000 0.0000
-13 8 -2 0.0000 0.0000
-13 8 -1 0.0000 0.0000
-13 8 0 0.0000 0.0000
-13 8 1 0.0000 0.0000
-13 8 2 0.0000 0.0000
-13 8 3 0.0000 0.0000
-13 8 4 0.0000 0.0000
-13 8 5 0.0000 0.0000
-12 0 -10 0.0000 0.0000
-12 0 -8 0.0000 0.0000
-12 0 -6 0.0000 0.0000
-12 0 -4 0.0000 0.0000
-12 0 -2 0.0000 0.0000
-12 0 0 0.0000 0.0000
-12 0 2 0.0000 0.0000
-12 0 4 0.0000 0.0000
-12 0 6 0.0000 0.0000
-12 0 8 0.0000 0.0000
-12 0 10 0.0000 0.0000
-12 0 12 0.0000 0.0000
-12 0 14 0.0000 0.0000
-12 0 16 0.0000 0.0000
-12 0 18 0.0000 0.0000
-12 0 20 0.0000 0.0000
-12 1 -11 0.0000 0.0000
-12 1 -10 0.0000 0.0000
-12 1 -9 0.0000 0.0000
-12 1 -8 0.0000 0.0000
-12 1 -7 0.0000 0.0000
-12 1 -6 0.0000 0.0000
-12 1 -5 0.0000 0.0000
-12 1 -4 0.0000 0.0000
-12 1 -3 0.0000 0.0000
-12 1 -2 0.0000 0.0000
-12 1 -1 0.0000 0.0000
-12 1 0 0.0000 0.0000
-12 1 1 0.0000 0.0000
-12 1 2 0.0000 0.0000
-12 1 3 0.0000 0.0000
-12 1 4 0.0000 0.0000
-12 1 5 0.0000 0.0000
-12 1 6 0.0000 0.0000
-12 1 7 0.0000 0.0000
-12 1 8 0.0000 0.0000
-12 1 9 0.0000 0.0000
-12 1 10 0.0000 0.0000
-12 1 11 0.0000 0.0000
-12 1 12 0.0000 0.0000
-12 1 13 0.0000 0.0000
-12 1 14 0.0000 0.0000
-12 1 15 0.0000 0.0000
-12 1 16 0.0000 0.0000
-12 1 17 0.0000 0.0000
-12 1 18 0.0000 0.0000
-12 1 19 0.0000 0.0000
-12 1 20 0.0000 0.0000
-12 2 -11 0.0000 0.0000
-12 2 -10 0.0000 0.0000
-12 2 -9 0.0000 0.0000
-12 2 -8 0.0000 0.0000
-12 2 -7 0.0000 0.0000
-12 2 -6 0.0000 0.0000
-12 2 -5 0.0000 0.0000
-12 2 -4 0.0000 0.0000
-12 2 -3 0.0000 0.0000
-12 2 -2 0.0000 0.0000
-12 2 -1 0.0000 0.0000
-12 2 0 0.0000 0.0000
-12 2 1 0.0000 0.0000
-12 2 2 0.0000 0.0000
-12 2 3 0.0000 0.0000
-12 2 4 0.0000 0.0000
-12 2 5 0.0000 0.0000
-12 2 6 0.0000 0.0000
-12 2 7 0.0000 0.0000
-12 2 8 0.0000 0.0000
-12 2 9 0.0000 0.0000
-12 2 10 0.0000 0.0000
-12 2 11 0.0000 0.0000
-12 2 12 0.0000 0.0000
-12 2 13 0.0000 0.0000
-12 2 14 0.0000 0.0000
-12 2 15 0.0000 0.0000
-12 2 16 0.0000 0.0000
-12 2 17 0.0000 0.0000
-12 2 18 0.0000 0.0000
-12 2 19 0.0000 0.0000
-12 2 20 0.0000 0.0000
-12 3 -11 0.0000 0.0000
-12 3 -10 0.0000 0.0000
-12 3 -9 0.0000 0.0000
-12 3 -8 0.0000 0.0000
-12 3 -7 0.0000 0.0000
-12 3 -6 0.0000 0.0000
-12 3 -5 0.0000 0.0000
-12 3 -4 0.0000 0.0000
-12 3 -3 0.0000 0.0000
-12 3 -2 0.0000 0.0000
-12 3 -1 0.0000 0.0000
-12 3 0 0.0000 0.0000
-12 3 1 0.0000 0.0000
-12 3 2 0.0000 0.0000
-12 3 3 0.0000 0.0000
-12 3 4 0.0000 0.0000
-12 3 5 0.0000 0.0000
-12 3 6 0.0000 0.0000
-12 3 7 0.0000 0.0000
-12 3 8 0.0000 0.0000
-12 3 9 0.0000 0.0000
-12 3 10 0.0000 0.0000
-12 3 11 0.0000 0.0000
-12 3 12 0.0000 0.0000
-12 3 13 0.0000 0.0000
-12 3 14 0.0000 0.0000
-12 3 15 0.0000 0.0000
-12 3 16 0.0000 0.0000
-12 3 17 0.0000 0.0000
-12 3 18 0.0000 0.0000
-12 3 19 0.0000 0.0000
-12 4 -11 0.0000 0.0000
-12 4 -10 0.0000 0.0000
-12 4 -9 0.0000 0.0000
-12 4 -8 0.0000 0.0000
-12 4 -7 0.0000 0.0000
-12 4 -6 0.0000 0.0000
-12 4 -5 0.0000 0.0000
-12 4 -4 0.0000 0.0000
-12 4 -3 0.0000 0.0000
-12 4 -2 0.0000 0.0000
-12 4 -1 0.0000 0.0000
-12 4 0 0.0000 0.0000
-12 4 1 0.0000 0.0000
-12 4 2 0.0000 0.0000
-12 4 3 0.0000 0.0000
-12 4 4 0.0000 0.0000
-12 4 5 0.0000 0.0000
-12 4 6 0.0000 0.0000
-12 4 7 0.0000 0.0000
-12 4 8 0.0000 0.0000
-12 4 9 0.0000 0.0000
-12 4 10 0.0000 0.0000
-12 4 11 0.0000 0.0000
-12 4 12 0.0000 0.0000
-12 4 13 0.0000 0.0000
-12 4 14 0.0000 0.0000
-12 4 15 0.0000 0.0000
-12 4 16 0.0000 0.0000
-12 4 17 0.0000 0.0000
-12 4 18 0.0000 0.0000
-12 4 19 0.0000 0.0000
-12 5 -11 0.0000 0.0000
-12 5 -10 0.0000 0.0000
-12 5 -9 0.0000 0.0000
-12 5 -8 0.0000 0.0000
-12 5 -7 0.0000 0.0000
-12 5 -6 0.0000 0.0000
-12 5 -5 0.0000 0.0000
-12 5 -4 0.0000 0.0000
-12 5 -3 0.0000 0.0000
-12 5 -2 0.0000 0.0000
-12 5 -1 0.0000 0.0000
-12 5 0 0.0000 0.0000
-12 5 1 0.0000 0.0000
-12 5 2 0.0000 0.0000
-12 5 3 0.0000 0.0000
-12 5 4 0.0000 0.0000
-12 5 5 0.0000 0.0000
-12 5 6 0.0000 0.0000
-12 5 7 0.0000 0.0000
-12 5 8 0.0000 0.0000
-12 5 9 0.0000 0.0000
-12 5 10 0.0000 0.0000
-12 5 11 0.0000 0.0000
-12 5 12 0.0000 0.0000
-12 5 13 0.0000 0.0000
-12 5 14 0.0000 0.0000
-12 5 15 0.0000 0.0000
-12 5 16 0.0000 0.0000
-12 5 17 0.0000 0.0000
-12 5 18 0.0000 0.0000
-12 6 -11 0.0000 0.0000
-12 6 -10 0.0000 0.0000
-12 6 -9 0.0000 0.0000
-12 6 -8 0.0000 0.0000
-12 6 -7 0.0000 0.0000
-12 6 -6 0.0000 0.0000
-12 6 -5 0.0000 0.0000
-12 6 -4 0.0000 0.0000
-12 6 -3 0.0000 0.0000
-12 6 -2 0.0000 0.0000
-12 6 -1 0.0000 0.0000
-12 6 0 0.0000 0.0000
-12 6 1 0.0000 0.0000
-12 6 2 0.0000 0.0000
-12 6 3 0.0000 0.0000
-12 6 4 0.0000 0.0000
-12 6 5 0.0000 0.0000
-12 6 6 0.0000 0.0000
-12 6 7 0.0000 0.0000
-12 6 8 0.0000 0.0000
-12 6 9 0.0000 0.0000
-12 6 10 0.0000 0.0000
-12 6 11 0.0000 0.0000
-12 6 12 0.0000 0.0000
-12 6 13 0.0000 0.0000
-12 6 14 0.0000 0.0000
-12 6 15 0.0000 0.0000
-12 6 16 0.0000 0.0000
-12 6 17 0.0000 0.0000
-12 7 -11 0.0000 0.0000
-12 7 -10 0.0000 0.0000
-12 7 -9 0.0000 0.0000
-12 7 -8 0.0000 0.0000
-12 7 -7 0.0000 0.0000
-12 7 -6 0.0000 0.0000
-12 7 -5 0.0000 0.0000
-12 7 -4 0.0000 0.0000
-12 7 -3 0.0000 0.0000
-12 7 -2 0.0000 0.0000
-12 7 -1 0.0000 0.0000
-12 7 0 0.0000 0.0000
-12 7 1 0.0000 0.0000
-12 7 2 0.0000 0.0000
-12 7 3 0.0000 0.0000
-12 7 4 0.0000 0.0000
-12 7 5 0.0000 0.0000
-12 7 6 0.0000 0.0000
-12 7 7 0.0000 0.0000
-12 7 8 0.0000 0.0000
-12 7 9 0.0000 0.0000
-12 7 10 0.0000 0.0000
-12 7 11 0.0000 0.0000
-12 7 12 0.0000 0.0000
-12 7 13 0.0000 0.0000
-12 7 14 0.0000 0.0000
-12 7 15 0.0000 0.0000
-12 8 -10 0.0000 0.0000
-12 8 -9 0.0000 0.0000
-12 8 -8 0.0000 0.0000
-12 8 -7 0.0000 0.0000
-12 8 -6 0.0000 0.0000
-12 8 -5 0.0000 0.0000
-12 8 -4 0.0000 0.0000
-12 8 -3 0.0000 0.0000
-12 8 -2 0.0000 0.0000
-12 8 -1 0.0000 0.0000
-12 8 0 0.0000 0.0000
-12 8 1 0.0000 0.0000
-12 8 2 0.0000 0.0000
-12 8 3 0.0000 0.0000
-12 8 4 0.0000 0.0000
-12 8 5 0.0000 0.0000
-12 8 6 0.0000 0.0000
-12 8 7 0.0000 0.0000
-12 8 8 0.0000 0.0000
-12 8 9 0.0000 0.0000
-12 8 10 0.0000 0.0000
-12 8 11 0.0000 0.0000
-12 8 12 0.0000 0.0000
-12 8 13 0.0000 0.0000
-12 9 -7 0.0000 0.0000
-12 9 -6 0.0000 0.0000
-12 9 -5 0.0000 0.0000
-12 9 -4 0.0000 0.0000
-12 9 -3 0.0000 0.0000
-12 9 -2 0.0000 0.0000
-12 9 -1 0.0000 0.0000
-12 9 0 0.0000 0.0000
-12 9 1 0.0000 0.0000
-12 9 2 0.0000 0.0000
-12 9 3 0.0000 0.0000
-12 9 4 0.0000 0.0000
-12 9 5 0.0000 0.0000
-12 9 6 0.0000 0.0000
-12 9 7 0.0000 0.0000
-12 9 8 0.0000 0.0000
-12 9 9 0.0000 0.0000
-12 9 10 0.0000 0.0000
-12 10 -2 0.0000 0.0000
-12 10 -1 0.0000 0.0000
-12 10 0 0.0000 0.0000
-12 10 1 0.0000 0.0000
-12 10 2 0.0000 0.0000
-12 10 3 0.0000 0.0000
-12 10 4 0.0000 0.0000
-12 10 5 0.0000 0.0000
-11 0 -9 0.0000 0.0000
-11 0 -7 0.0000 0.0000
-11 0 -5 0.0000 0.0000
-11 0 -3 0.0000 0.0000
-11 0 -1 0.0000 0.0000
-11 0 1 0.0000 0.0000
-11 0 3 0.0000 0.0000
-11 0 5 0.0000 0.0000
-11 0 7 0.0000 0.0000
-11 0 9 0.0000 0.0000
-11 0 11 0.0000 0.0000
-11 0 13 0.0000 0.0000
-11 0 15 0.0000 0.0000
-11 0 17 0.0000 0.0000
-11 0 19 0.0000 0.0000
-11 0 21 0.0000 0.0000
-11 0 23 0.0000 0.0000
-11 1 -10 0.0000 0.0000
-11 1 -9 0.0000 0.0000
-11 1 -8 0.0000 0.0000
-11 1 -7 0.0000 0.0000
-11 1 -6 0.0000 0.0000
-11 1 -5 0.0000 0.0000
-11 1 -4 0.0000 0.0000
-11 1 -3 0.0000 0.0000
-11 1 -2 0.0000 0.0000
-11 1 -1 0.0000 0.0000
-11 1 0 0.0000 0.0000
-11 1 1 0.0000 0.0000
-11 1 2 0.0000 0.0000
-11 1 3 0.0000 0.0000
-11 1 4 0.0000 0.0000
-11 1 5 0.0000 0.0000
-11 1 6 0.0000 0.0000
-11 1 7 0.0000 0.0000
-11 1 8 0.0000 0.0000
-11 1 9 0.0000 0.0000
-11 1 10 0.0000 0.0000
-11 1 11 0.0000 0.0000
-11 1 12 0.0000 0.0000
-11 1 13 0.0000 0.0000
-11 1 14 0.0000 0.0000
-11 1 15 0.0000 0.0000
-11 1 16 0.0000 0.0000
-11 1 17 0.0000 0.0000
-11 1 18 0.0000 0.0000
-11 1 19 0.0000 0.0000
-11 1 20 0.0000 0.0000
-11 1 21 0.0000 0.0000
-11 1 22 0.0000 0.0000
-11 1 23 0.0000 0.0000
-11 2 -10 0.0000 0.0000
-11 2 -9 0.0000 0.0000
-11 2 -8 0.0000 0.0000
-11 2 -7 0.0000 0.0000
-11 2 -6 0.0000 0.0000
-11 2 -5 0.0000 0.0000
-11 2 -4 0.0000 0.0000
-11 2 -3 0.0000 0.0000
-11 2 -2 0.0000 0.0000
-11 2 -1 0.0000 0.0000
-11 2 0 0.0000 0.0000
-11 2 1 0.0000 0.0000
-11 2 2 0.0000 0.0000
-11 2 3 0.0000 0.0000
-11 2 4 0.0000 0.0000
-11 2 5 0.0000 0.0000
-11 2 6 0.0000 0.0000
-11 2 7 0.0000 0.0000
-11 2 8 0.0000 0.0000
-11 2 9 0.0000 0.0000
-11 2 10 0.0000 0.0000
-11 2 11 0.0000 0.0000
-11 2 12 0.0000 0.0000
-11 2 13 0.0000 0.0000
-11 2 14 0.0000 0.0000
-11 2 15 0.0000 0.0000
-11 2 16 0.0000 0.0000
-11 2 17 0.0000 0.0000
-11 2 18 0.0000 0.0000
-11 2 19 0.0000 0.0000
-11 2 20 0.0000 0.0000
-11 2 21 0.0000 0.0000
-11 2 22 0.0000 0.0000
-11 2 23 0.0000 0.0000
-11 3 -10 0.0000 0.0000
-11 3 -9 0.0000 0.0000
-11 3 -8 0.0000 0.0000
-11 3 -7 0.0000 0.0000
-11 3 -6 0.0000 0.0000
-11 3 -5 0.0000 0.0000
-11 3 -4 0.0000 0.0000
-11 3 -3 0.0000 0.0000
-11 3 -2 0.0000 0.0000
-11 3 -1 0.0000 0.0000
-11 3 0 0.0000 0.0000
-11 3 1 0.0000 0.0000
-11 3 2 0.0000 0.0000
-11 3 3 0.0000 0.0000
-11 3 4 0.0000 0.0000
-11 3 5 0.0000 0.0000
-11 3 6 0.0000 0.0000
-11 3 7 0.0000 0.0000
-11 3 8 0.0000 0.0000
-11 3 9 0.0000 0.0000
-11 3 10 0.0000 0.0000
-11 3 11 0.0000 0.0000
-11 3 12 0.0000 0.0000
-11 3 13 0.0000 0.0000
-11 3 14 0.0000 0.0000
-11 3 15 0.0000 0.0000
-11 3 16 0.0000 0.0000
-11 3 17 0.0000 0.0000
-11 3 18 0.0000 0.0000
-11 3 19 0.0000 0.0000
-11 3 20 0.0000 0.0000
-11 3 21 0.0000 0.0000
-11 3 22 0.0000 0.0000
-11 4 -10 0.0000 0.0000
-11 4 -9 0.0000 0.0000
-11 4 -8 0.0000 0.0000
-11 4 -7 0.0000 0.0000
-11 4 -6 0.0000 0.0000
-11 4 -5 0.0000 0.0000
-11 4 -4 0.0000 0.0000
-11 4 -3 0.0000 0.0000
-11 4 -2 0.0000 0.0000
-11 4 -1 0.0000 0.0000
-11 4 0 0.0000 0.0000
-11 4 1 0.0000 0.0000
-11 4 2 0.0000 0.0000
-11 4 3 0.0000 0.0000
-11 4 4 0.0000 0.0000
-11 4 5 0.0000 0.0000
-11 4 6 0.0000 0.0000
-11 4 7 0.0000 0.0000
-11 4 8 0.0000 0.0000
-11 4 9 0.0000 0.0000
-11 4 10 0.0000 0.0000
-11 4 11 0.0000 0.0000
-11 4 12 0.0000 0.0000
-11 4 13 0.0000 0.0000
-11 4 14 0.0000 0.0000
-11 4 15 0.0000 0.0000
-11 4 16 0.0000 0.0000
-11 4 17 0.0000 0.0000
-11 4 18 0.0000 0.0000
-11 4 19 0.0000 0.0000
-11 4 20 0.0000 0.0000
-11 4 21 0.0000 0.0000
-11 4 22 0.0000 0.0000
-11 5 -10 0.0000 0.0000
-11 5 -9 0.0000 0.0000
-11 5 -8 0.0000 0.0000
-11 5 -7 0.0000 0.0000
-11 5 -6 0.0000 0.0000
-11 5 -5 0.0000 0.0000
-11 5 -4 0.0000 0.0000
-11 5 -3 0.0000 0.0000
-11 5 -2 0.0000 0.0000
-11 5 -1 0.0000 0.0000
-11 5 0 0.0000 0.0000
-11 5 1 0.0000 0.0000
-11 5 2 0.0000 0.0000
-11 5 3 0.0000 0.0000
-11 5 4 0.0000 0.0000
-11 5 5 0.0000 0.0000
-11 5 6 0.0000 0.0000
-11 5 7 0.0000 0.0000
-11 5 8 0.0000 0.0000
-11 5 9 0.0000 0.0000
-11 5 10 0.0000 0.0000
-11 5 11 0.0000 0.0000
-11 5 12 0.0000 0.0000
-11 5 13 0.0000 0.0000
-11 5 14 0.0000 0.0000
-11 5 15 0.0000 0.0000
-11 5 16 0.0000 0.0000
-11 5 17 0.0000 0.0000
-11 5 18 0.0000 0.0000
-11 5 19 0.0000 0.0000
-11 5 20 0.0000 0.0000
-11 5 21 0.0000 0.0000
-11 6 -10 0.0000 0.0000
-11 6 -9 0.0000 0.0000
-11 6 -8 0.0000 0.0000
-11 6 -7 0.0000 0.0000
-11 6 -6 0.0000 0.0000
-11 6 -5 0.0000 0.0000
-11 6 -4 0.0000 0.0000
-11 6 -3 0.0000 0.0000
-11 6 -2 0.0000 0.0000
-11 6 -1 0.0000 0.0000
-11 6 0 0.0000 0.0000
-11 6 1 0.0000 0.0000
-11 6 2 0.0000 0.0000
-11 6 3 0.0000 0.0000
-11 6 4 0.0000 0.0000
-11 6 5 0.0000 0.0000
-11 6 6 0.0000 0.0000
-11 6 7 0.0000 0.0000
-11 6 8 0.0000 0.0000
-11 6 9 0.0000 0.0000
-11 6 10 0.0000 0.0000
-11 6 11 0.0000 0.0000
-11 6 12 0.0000 0.0000
-11 6 13 0.0000 0.0000
-11 6 14 0.0000 0.0000
-11 6 15 0.0000 0.0000
-11 6 16 0.0000 0.0000
-11 6 17 0.0000 0.0000
-11 6 18 0.0000 0.0000
-11 6 19 0.0000 0.0000
-11 6 20 0.0000 0.0000
-11 7 -10 0.0000 0.0000
-11 7 -9 0.0000 0.0000
-11 7 -8 0.0000 0.0000
-11 7 -7 0.0000 0.0000
-11 7 -6 0.0000 0.0000
-11 7 -5 0.0000 0.0000
-11 7 -4 0.0000 0.0000
-11 7 -3 0.0000 0.0000
-11 7 -2 0.0000 0.0000
-11 7 -1 0.0000 0.0000
-11 7 0 0.0000 0.0000
-11 7 1 0.0000 0.0000
-11 7 2 0.0000 0.0000
-11 7 3 0.0000 0.0000
-11 7 4 0.0000 0.0000
-11 7 5 0.0000 0.0000
-11 7 6 0.0000 0.0000
-11 7 7 0.0000 0.0000
-11 7 8 0.0000 0.0000
-11 7 9 0.0000 0.0000
-11 7 10 0.0000 0.0000
-11 7 11 0.0000 0.0000
-11 7 12 0.0000 0.0000
-11 7 13 0.0000 0.0000
-11 7 14 0.0000 0.0000
-11 7 15 0.0000 0.0000
-11 7 16 0.0000 0.0000
-11 7 17 0.0000 0.0000
-11 7 18 0.0000 0.0000
-11 8 -10 0.0000 0.0000
-11 8 -9 0.0000 0.0000
-11 8 -8 0.0000 0.0000
-11 8 -7 0.0000 0.0000
-11 8 -6 0.0000 0.0000
-11 8 -5 0.0000 0.0000
-11 8 -4 0.0000 0.0000
-11 8 -3 0.0000 0.0000
-11 8 -2 0.0000 0.0000
-11 8 -1 0.0000 0.0000
-11 8 0 0.0000 0.0000
-11 8 1 0.0000 0.0000
-11 8 2 0.0000 0.0000
-11 8 3 0.0000 0.0000
-11 8 4 0.0000 0.0000
-11 8 5 0.0000 0.0000
-11 8 6 0.0000 0.0000
-11 8 7 0.0000 0.0000
-11 8 8 0.0000 0.0000
-11 8 9 0.0000 0.0000
-11 8 10 0.0000 0.0000
-11 8 11 0.0000 0.0000
-11 8 12 0.0000 0.0000
-11 8 13 0.0000 0.0000
-11 8 14 0.0000 0.0000
-11 8 15 0.0000 0.0000
-11 8 16 0.0000 0.0000
-11 8 17 0.0000 0.0000
-11 9 -10 0.0000 0.0000
-11 9 -9 0.0000 0.0000
-11 9 -8 0.0000 0.0000
-11 9 -7 0.0000 0.0000
-11 9 -6 0.0000 0.0000
-11 9 -5 0.0000 0.0000
-11 9 -4 0.0000 0.0000
-11 9 -3 0.0000 0.0000
-11 9 -2 0.0000 0.0000
-11 9 -1 0.0000 0.0000
-11 9 0 0.0000 0.0000
-11 9 1 0.0000 0.0000
-11 9 2 0.0000 0.0000
-11 9 3 0.0000 0.0000
-11 9 4 0.0000 0.0000
-11 9 5 0.0000 0.0000
-11 9 6 0.0000 0.0000
-11 9 7 0.0000 0.0000
-11 9 8 0.0000 0.0000
-11 9 9 0.0000 0.0000
-11 9 10 0.0000 0.0000
-11 9 11 0.0000 0.0000
-11 9 12 0.0000 0.0000
-11 9 13 0.0000 0.0000
-11 9 14 0.0000 0.0000
-11 9 15 0.0000 0.0000
-11 10 -10 0.0000 0.0000
-11 10 -9 0.0000 0.0000
-11 10 -8 0.0000 0.0000
-11 10 -7 0.0000 0.0000
-11 10 -6 0.0000 0.0000
-11 10 -5 0.0000 0.0000
-11 10 -4 0.0000 0.0000
-11 10 -3 0.0000 0.0000
-11 10 -2 0.0000 0.0000
-11 10 -1 0.0000 0.0000
-11 10 0 0.0000 0.0000
-11 10 1 0.0000 0.0000
-11 10 2 0.0000 0.0000
-11 10 3 0.0000 0.0000
-11 10 4 0.0000 0.0000
-11 10 5 0.0000 0.0000
-11 10 6 0.0000 0.0000
-11 10 7 0.0000 0.0000
-11 10 8 0.0000 0.0000
-11 10 9 0.0000 0.0000
-11 10 10 0.0000 0.0000
-11 10 11 0.0000 0.0000
-11 10 12 0.0000 0.0000
-11 11 -6 0.0000 0.0000
-11 11 -5 0.0000 0.0000
-11 11 -4 0.0000 0.0000
-11 11 -3 0.0000 0.0000
-11 11 -2 0.0000 0.0000
-11 11 -1 0.0000 0.0000
-11 11 0 0.0000 0.0000
-11 11 1 0.0000 0.0000
-11 11 2 0.0000 0.0000
-11 11 3 0.0000 0.0000
-11 11 4 0.0000 0.0000
-11 11 5 0.0000 0.0000
-11 11 6 0.0000 0.0000
-11 11 7 0.0000 0.0000
-11 11 8 0.0000 0.0000
-10 0 -8 0.0000 0.0000
-10 0 -6 0.0000 0.0000
-10 0 -4 0.0000 0.0000
-10 0 -2 0.0000 0.0000
-10 0 0 0.0000 0.0000
-10 0 2 0.0000 0.0000
-10 0 4 0.0000 0.0000
-10 0 6 0.0000 0.0000
-10 0 8 0.0000 0.0000
-10 0 10 0.0000 0.0000
-10 0 12 0.0000 0.0000
-10 0 14 0.0000 0.0000
-10 0 16 0.0000 0.0000
-10 0 18 0.0000 0.0000
-10 0 20 0.0000 0.0000
-10 0 22 0.0000 0.0000
-10 0 24 0.0000 0.0000
-10 1 -9 0.0000 0.0000
-10 1 -8 0.0000 0.0000
-10 1 -7 0.0000 0.0000
-10 1 -6 0.0000 0.0000
-10 1 -5 0.0000 0.0000
-10 1 -4 0.0000 0.0000
-10 1 -3 0.0000 0.0000
-10 1 -2 0.0000 0.0000
-10 1 -1 0.0000 0.0000
-10 1 0 0.0000 0.0000
-10 1 1 0.0000 0.0000
-10 1 2 0.0000 0.0000
-10 1 3 0.0000 0.0000
-10 1 4 0.0000 0.0000
-10 1 5 0.0000 0.0000
-10 1 6 0.0000 0.0000
-10 1 7 0.0000 0.0000
-10 1 8 0.0000 0.0000
-10 1 9 0.0000 0.0000
-10 1 10 0.0000 0.0000
-10 1 11 0.0000 0.0000
-10 1 12 0.0000 0.0000
-10 1 13 0.0000 0.0000
-10 1 14 0.0000 0.0000
-10 1 15 0.0000 0.0000
-10 1 16 0.0000 0.0000
-10 1 17 0.0000 0.0000
-10 1 18 0.0000 0.0000
-10 1 19 0.0000 0.0000
-10 1 20 0.0000 0.0000
-10 1 21 0.0000 0.0000
-10 1 22 0.0000 0.0000
-10 1 23 0.0000 0.0000
-10 1 24 0.0000 0.0000
-10 1 25 0.0000 0.0000
-10 2 -9 0.0000 0.0000
-10 2 -8 0.0000 0.0000
-10 2 -7 0.0000 0.0000
-10 2 -6 0.0000 0.0000
-10 2 -4 0.0000 0.0000
-10 2 -3 0.0000 0.0000
-10 2 -1 0.0000 0.0000
-10 2 0 0.0000 0.0000
-10 2 1 0.0000 0.0000
-10 2 2 0.0000 0.0000
-10 2 3 0.0000 0.0000
-10 2 4 0.0000 0.0000
-10 2 5 0.0000 0.0000
-10 2 6 0.0000 0.0000
-10 2 7 0.0000 0.0000
-10 2 8 0.0000 0.0000
-10 2 9 0.0000 0.0000
-10 2 10 0.0000 0.0000
-10 2 11 0.0000 0.0000
-10 2 12 0.0000 0.0000
-10 2 13 0.0000 0.0000
-10 2 14 0.0000 0.0000
-10 2 15 0.0000 0.0000
-10 2 16 0.0000 0.0000
-10 2 17 0.0000 0.0000
-10 2 18 0.0000 0.0000
-10 2 19 0.0000 0.0000
-10 2 20 0.0000 0.0000
-10 2 21 0.0000 0.0000
-10 2 22 0.0000 0.0000
-10 2 23 0.0000 0.0000
-10 2 24 0.0000 0.0000
-10 2 25 0.0000 0.0000
-10 3 -9 0.0000 0.0000
-10 3 -8 0.0000 0.0000
-10 3 -7 0.0000 0.0000
-10 3 -6 0.0000 0.0000
-10 3 -5 0.0000 0.0000
-10 3 -4 0.0000 0.0000
-10 3 -3 0.0000 0.0000
-10 3 -2 0.0000 0.0000
-10 3 -1 0.0000 0.0000
-10 3 0 0.0000 0.0000
-10 3 1 0.0000 0.0000
-10 3 2 0.0000 0.0000
-10 3 3 0.0000 0.0000
-10 3 4 0.0000 0.0000
-10 3 5 0.0000 0.0000
-10 3 6 0.0000 0.0000
-10 3 7 0.0000 0.0000
-10 3 8 0.0000 0.0000
-10 3 9 0.0000 0.0000
-10 3 10 0.0000 0.0000
-10 3 12 0.0000 0.0000
-10 3 13 0.0000 0.0000
-10 3 14 0.0000 0.0000
-10 3 15 0.0000 0.0000
-10 3 16 0.0000 0.0000
-10 3 17 0.0000 0.0000
-10 3 18 0.0000 0.0000
-10 3 19 0.0000 0.0000
-10 3 20 0.0000 0.0000
-10 3 21 0.0000 0.0000
-10 3 22 0.0000 0.0000
-10 3 23 0.0000 0.0000
-10 3 24 0.0000 0.0000
-10 4 -9 0.0000 0.0000
-10 4 -8 0.0000 0.0000
-10 4 -7 0.0000 0.0000
-10 4 -6 0.0000 0.0000
-10 4 -5 0.0000 0.0000
-10 4 -4 0.0000 0.0000
-10 4 -3 0.0000 0.0000
-10 4 -2 0.0000 0.0000
-10 4 -1 0.0000 0.0000
-10 4 0 0.0000 0.0000
-10 4 1 0.0000 0.0000
-10 4 2 0.0000 0.0000
-10 4 3 0.0000 0.0000
-10 4 4 0.0000 0.0000
-10 4 5 0.0000 0.0000
-10 4 6 0.0000 0.0000
-10 4 7 0.0000 0.0000
-10 4 8 0.0000 0.0000
-10 4 9 0.0000 0.0000
-10 4 10 0.0000 0.0000
-10 4 11 0.0000 0.0000
-10 4 12 0.0000 0.0000
-10 4 13 0.0000 0.0000
-10 4 14 0.0000 0.0000
-10 4 15 0.0000 0.0000
-10 4 16 0.0000 0.0000
-10 4 17 0.0000 0.0000
-10 4 18 0.0000 0.0000
-10 4 19 0.0000 0.0000
-10 4 20 0.0000 0.0000
-10 4 21 0.0000 0.0000
-10 4 22 0.0000 0.0000
-10 4 23 0.0000 0.0000
-10 4 24 0.0000 0.0000
-10 5 -9 0.0000 0.0000
-10 5 -8 0.0000 0.0000
-10 5 -7 0.0000 0.0000
-10 5 -6 0.0000 0.0000
-10 5 -5 0.0000 0.0000
-10 5 -4 0.0000 0.0000
-10 5 -3 0.0000 0.0000
-10 5 -2 0.0000 0.0000
-10 5 -1 0.0000 0.0000
-10 5 0 0.0000 0.0000
-10 5 1 0.0000 0.0000
-10 5 2 0.0000 0.0000
-10 5 3 0.0000 0.0000
-10 5 4 0.0000 0.0000
-10 5 5 0.0000 0.0000
-10 5 6 0.0000 0.0000
-10 5 7 0.0000 0.0000
-10 5 8 0.0000 0.0000
-10 5 9 0.0000 0.0000
-10 5 10 0.0000 0.0000
-10 5 11 0.0000 0.0000
-10 5 12 0.0000 0.0000
-10 5 13 0.0000 0.0000
-10 5 14 0.0000 0.0000
-10 5 15 0.0000 0.0000
-10 5 16 0.0000 0.0000
-10 5 17 0.0000 0.0000
-10 5 18 0.0000 0.0000
-10 5 19 0.0000 0.0000
-10 5 20 0.0000 0.0000
-10 5 21 0.0000 0.0000
-10 5 22 0.0000 0.0000
-10 5 23 0.0000 0.0000
-10 6 -9 0.0000 0.0000
-10 6 -8 0.0000 0.0000
-10 6 -7 0.0000 0.0000
-10 6 -6 0.0000 0.0000
-10 6 -5 0.0000 0.0000
-10 6 -4 0.0000 0.0000
-10 6 -3 0.0000 0.0000
-10 6 -2 0.0000 0.0000
-10 6 -1 0.0000 0.0000
-10 6 0 0.0000 0.0000
-10 6 1 0.0000 0.0000
-10 6 2 0.0000 0.0000
-10 6 3 0.0000 0.0000
-10 6 4 0.0000 0.0000
-10 6 5 0.0000 0.0000
-10 6 6 0.0000 0.0000
-10 6 7 0.0000 0.0000
-10 6 8 0.0000 0.0000
-10 6 9 0.0000 0.0000
-10 6 10 0.0000 0.0000
-10 6 11 0.0000 0.0000
-10 6 12 0.0000 0.0000
-10 6 13 0.0000 0.0000
-10 6 14 0.0000 0.0000
-10 6 15 0.0000 0.0000
-10 6 16 0.0000 0.0000
-10 6 17 0.0000 0.0000
-10 6 18 0.0000 0.0000
-10 6 19 0.0000 0.0000
-10 6 20 0.0000 0.0000
-10 6 21 0.0000 0.0000
-10 6 22 0.0000 0.0000
-10 7 -9 0.0000 0.0000
-10 7 -8 0.0000 0.0000
-10 7 -7 0.0000 0.0000
-10 7 -6 0.0000 0.0000
-10 7 -5 0.0000 0.0000
-10 7 -4 0.0000 0.0000
-10 7 -3 0.0000 0.0000
-10 7 -2 0.0000 0.0000
-10 7 -1 0.0000 0.0000
-10 7 0 0.0000 0.0000
-10 7 1 0.0000 0.0000
-10 7 2 0.0000 0.0000
-10 7 3 0.0000 0.0000
-10 7 4 0.0000 0.0000
-10 7 5 0.0000 0.0000
-10 7 6 0.0000 0.0000
-10 7 7 0.0000 0.0000
-10 7 8 0.0000 0.0000
-10 7 9 0.0000 0.0000
-10 7 10 0.0000 0.0000
-10 7 11 0.0000 0.0000
-10 7 12 0.0000 0.0000
-10 7 13 0.0000 0.0000
-10 7 14 0.0000 0.0000
-10 7 15 0.0000 0.0000
-10 7 16 0.0000 0.0000
-10 7 17 0.0000 0.0000
-10 7 18 0.0000 0.0000
-10 7 19 0.0000 0.0000
-10 7 20 0.0000 0.0000
-10 7 21 0.0000 0.0000
-10 8 -9 0.0000 0.0000
-10 8 -8 0.0000 0.0000
-10 8 -7 0.0000 0.0000
-10 8 -6 0.0000 0.0000
-10 8 -5 0.0000 0.0000
-10 8 -4 0.0000 0.0000
-10 8 -3 0.0000 0.0000
-10 8 -2 0.0000 0.0000
-10 8 -1 0.0000 0.0000
-10 8 0 0.0000 0.0000
-10 8 1 0.0000 0.0000
-10 8 2 0.0000 0.0000
-10 8 3 0.0000 0.0000
-10 8 4 0.0000 0.0000
-10 8 5 0.0000 0.0000
-10 8 6 0.0000 0.0000
-10 8 7 0.0000 0.0000
-10 8 8 0.0000 0.0000
-10 8 9 0.0000 0.0000
-10 8 10 0.0000 0.0000
-10 8 11 0.0000 0.0000
-10 8 12 0.0000 0.0000
-10 8 13 0.0000 0.0000
-10 8 14 0.0000 0.0000
-10 8 15 0.0000 0.0000
-10 8 16 0.0000 0.0000
-10 8 17 0.0000 0.0000
-10 8 18 0.0000 0.0000
-10 8 19 0.0000 0.0000
-10 8 20 0.0000 0.0000
-10 9 -9 0.0000 0.0000
-10 9 -8 0.0000 0.0000
-10 9 -7 0.0000 0.0000
-10 9 -6 0.0000 0.0000
-10 9 -5 0.0000 0.0000
-10 9 -4 0.0000 0.0000
-10 9 -3 0.0000 0.0000
-10 9 -2 0.0000 0.0000
-10 9 -1 0.0000 0.0000
-10 9 0 0.0000 0.0000
-10 9 1 0.0000 0.0000
-10 9 2 0.0000 0.0000
-10 9 3 0.0000 0.0000
-10 9 4 0.0000 0.0000
-10 9 5 0.0000 0.0000
-10 9 6 0.0000 0.0000
-10 9 7 0.0000 0.0000
-10 9 8 0.0000 0.0000
-10 9 9 0.0000 0.0000
-10 9 10 0.0000 0.0000
-10 9 11 0.0000 0.0000
-10 9 12 0.0000 0.0000
-10 9 13 0.0000 0.0000
-10 9 14 0.0000 0.0000
-10 9 15 0.0000 0.0000
-10 9 16 0.0000 0.0000
-10 9 17 0.0000 0.0000
-10 9 18 0.0000 0.0000
-10 10 -9 0.0000 0.0000
-10 10 -8 0.0000 0.0000
-10 10 -7 0.0000 0.0000
-10 10 -6 0.0000 0.0000
-10 10 -5 0.0000 0.0000
-10 10 -4 0.0000 0.0000
-10 10 -3 0.0000 0.0000
-10 10 -2 0.0000 0.0000
-10 10 -1 0.0000 0.0000
-10 10 0 0.0000 0.0000
-10 10 1 0.0000 0.0000
-10 10 2 0.0000 0.0000
-10 10 3 0.0000 0.0000
-10 10 4 0.0000 0.0000
-10 10 5 0.0000 0.0000
-10 10 6 0.0000 0.0000
-10 10 7 0.0000 0.0000
-10 10 8 0.0000 0.0000
-10 10 9 0.0000 0.0000
-10 10 10 0.0000 0.0000
-10 10 11 0.0000 0.0000
-10 10 12 0.0000 0.0000
-10 10 13 0.0000 0.0000
-10 10 14 0.0000 0.0000
-10 10 15 0.0000 0.0000
-10 10 16 0.0000 0.0000
-10 11 -9 0.0000 0.0000
-10 11 -8 0.0000 0.0000
-10 11 -7 0.0000 0.0000
-10 11 -6 0.0000 0.0000
-10 11 -5 0.0000 0.0000
-10 11 -4 0.0000 0.0000
-10 11 -3 0.0000 0.0000
-10 11 -2 0.0000 0.0000
-10 11 -1 0.0000 0.0000
-10 11 0 0.0000 0.0000
-10 11 1 0.0000 0.0000
-10 11 2 0.0000 0.0000
-10 11 3 0.0000 0.0000
-10 11 4 0.0000 0.0000
-10 11 5 0.0000 0.0000
-10 11 6 0.0000 0.0000
-10 11 7 0.0000 0.0000
-10 11 8 0.0000 0.0000
-10 11 9 0.0000 0.0000
-10 11 10 0.0000 0.0000
-10 11 11 0.0000 0.0000
-10 11 12 0.0000 0.0000
-10 11 13 0.0000 0.0000
-10 12 -7 0.0000 0.0000
-10 12 -6 0.0000 0.0000
-10 12 -5 0.0000 0.0000
-10 12 -4 0.0000 0.0000
-10 12 -3 0.0000 0.0000
-10 12 -2 0.0000 0.0000
-10 12 -1 0.0000 0.0000
-10 12 0 0.0000 0.0000
-10 12 1 0.0000 0.0000
-10 12 2 0.0000 0.0000
-10 12 3 0.0000 0.0000
-10 12 4 0.0000 0.0000
-10 12 5 0.0000 0.0000
-10 12 6 0.0000 0.0000
-10 12 7 0.0000 0.0000
-10 12 8 0.0000 0.0000
-10 12 9 0.0000 0.0000
-9 0 -5 0.0000 0.0000
-9 0 -3 0.0000 0.0000
-9 0 -1 0.0000 0.0000
-9 0 1 0.0000 0.0000
-9 0 3 0.0000 0.0000
-9 0 5 0.0000 0.0000
-9 0 7 0.0000 0.0000
-9 0 9 0.0000 0.0000
-9 0 13 0.0000 0.0000
-9 0 15 0.0000 0.0000
-9 0 17 0.0000 0.0000
-9 0 19 0.0000 0.0000
-9 0 21 0.0000 0.0000
-9 0 23 0.0000 0.0000
-9 0 25 0.0000 0.0000
-9 1 -8 0.0000 0.0000
-9 1 -7 0.0000 0.0000
-9 1 -6 0.0000 0.0000
-9 1 -5 0.0000 0.0000
-9 1 -4 0.0000 0.0000
-9 1 -3 0.0000 0.0000
-9 1 -2 0.0000 0.0000
-9 1 0 0.0000 0.0000
-9 1 1 0.0000 0.0000
-9 1 2 0.0000 0.0000
-9 1 3 0.0000 0.0000
-9 1 4 0.0000 0.0000
-9 1 6 0.0000 0.0000
-9 1 8 0.0000 0.0000
-9 1 9 0.0000 0.0000
-9 1 11 0.0000 0.0000
-9 1 12 0.0000 0.0000
-9 1 13 0.0000 0.0000
-9 1 14 0.0000 0.0000
-9 1 15 0.0000 0.0000
-9 1 16 0.0000 0.0000
-9 1 17 0.0000 0.0000
-9 1 18 0.0000 0.0000
-9 1 19 0.0000 0.0000
-9 1 20 0.0000 0.0000
-9 1 21 0.0000 0.0000
-9 1 22 0.0000 0.0000
-9 1 23 0.0000 0.0000
-9 1 24 0.0000 0.0000
-9 1 25 0.0000 0.0000
-9 1 26 0.0000 0.0000
-9 2 -8 0.0000 0.0000
-9 2 -7 0.0000 0.0000
-9 2 -6 0.0000 0.0000
-9 2 -5 0.0000 0.0000
-9 2 -4 0.0000 0.0000
-9 2 -3 0.0000 0.0000
-9 2 -2 0.0000 0.0000
-9 2 -1 0.0000 0.0000
-9 2 0 0.0000 0.0000
-9 2 1 0.0000 0.0000
-9 2 2 0.0000 0.0000
-9 2 3 0.0000 0.0000
-9 2 4 0.0000 0.0000
-9 2 7 0.0000 0.0000
-9 2 8 0.0000 0.0000
-9 2 9 0.0000 0.0000
-9 2 11 0.0000 0.0000
-9 2 12 0.0000 0.0000
-9 2 13 0.0000 0.0000
-9 2 14 0.0000 0.0000
-9 2 15 0.0000 0.0000
-9 2 17 0.0000 0.0000
-9 2 18 0.0000 0.0000
-9 2 19 0.0000 0.0000
-9 2 20 0.0000 0.0000
-9 2 21 0.0000 0.0000
-9 2 22 0.0000 0.0000
-9 2 23 0.0000 0.0000
-9 2 24 0.0000 0.0000
-9 2 25 0.0000 0.0000
-9 2 26 0.0000 0.0000
-9 2 27 0.0000 0.0000
-9 3 -8 0.0000 0.0000
-9 3 -7 0.0000 0.0000
-9 3 -5 0.0000 0.0000
-9 3 -4 0.0000 0.0000
-9 3 -3 0.0000 0.0000
-9 3 -2 0.0000 0.0000
-9 3 -1 0.0000 0.0000
-9 3 0 0.0000 0.0000
-9 3 1 0.0000 0.0000
-9 3 2 0.0000 0.0000
-9 3 3 0.0000 0.0000
-9 3 4 0.0000 0.0000
-9 3 5 0.0000 0.0000
-9 3 6 0.0000 0.0000
-9 3 7 0.0000 0.0000
-9 3 8 0.0000 0.0000
-9 3 10 0.0000 0.0000
-9 3 11 0.0000 0.0000
-9 3 12 0.0000 0.0000
-9 3 13 0.0000 0.0000
-9 3 14 0.0000 0.0000
-9 3 15 0.0000 0.0000
-9 3 16 0.0000 0.0000
-9 3 17 0.0000 0.0000
-9 3 18 0.0000 0.0000
-9 3 19 0.0000 0.0000
-9 3 20 0.0000 0.0000
-9 3 21 0.0000 0.0000
-9 3 22 0.0000 0.0000
-9 3 23 0.0000 0.0000
-9 3 24 0.0000 0.0000
-9 3 25 0.0000 0.0000
-9 3 26 0.0000 0.0000
-9 4 -8 0.0000 0.0000
-9 4 -7 0.0000 0.0000
-9 4 -6 0.0000 0.0000
-9 4 -5 0.0000 0.0000
-9 4 -4 0.0000 0.0000
-9 4 -3 0.0000 0.0000
-9 4 -2 0.0000 0.0000
-9 4 -1 0.0000 0.0000
-9 4 0 0.0000 0.0000
-9 4 1 0.0000 0.0000
-9 4 2 0.0000 0.0000
-9 4 3 0.0000 0.0000
-9 4 4 0.0000 0.0000
-9 4 6 0.0000 0.0000
-9 4 7 0.0000 0.0000
-9 4 8 0.0000 0.0000
-9 4 9 0.0000 0.0000
-9 4 10 0.0000 0.0000
-9 4 11 0.0000 0.0000
-9 4 12 0.0000 0.0000
-9 4 13 0.0000 0.0000
-9 4 14 0.0000 0.0000
-9 4 15 0.0000 0.0000
-9 4 16 0.0000 0.0000
-9 4 17 0.0000 0.0000
-9 4 18 0.0000 0.0000
-9 4 19 0.0000 0.0000
-9 4 20 0.0000 0.0000
-9 4 21 0.0000 0.0000
-9 4 22 0.0000 0.0000
-9 4 23 0.0000 0.0000
-9 4 24 0.0000 0.0000
-9 4 25 0.0000 0.0000
-9 4 26 0.0000 0.0000
-9 5 -8 0.0000 0.0000
-9 5 -7 0.0000 0.0000
-9 5 -6 0.0000 0.0000
-9 5 -5 0.0000 0.0000
-9 5 -4 0.0000 0.0000
-9 5 -3 0.0000 0.0000
-9 5 -2 0.0000 0.0000
-9 5 -1 0.0000 0.0000
-9 5 0 0.0000 0.0000
-9 5 1 0.0000 0.0000
-9 5 2 0.0000 0.0000
-9 5 3 0.0000 0.0000
-9 5 4 0.0000 0.0000
-9 5 5 0.0000 0.0000
-9 5 6 0.0000 0.0000
-9 5 7 0.0000 0.0000
-9 5 8 0.0000 0.0000
-9 5 9 0.0000 0.0000
-9 5 10 0.0000 0.0000
-9 5 11 0.0000 0.0000
-9 5 13 0.0000 0.0000
-9 5 14 0.0000 0.0000
-9 5 15 0.0000 0.0000
-9 5 16 0.0000 0.0000
-9 5 17 0.0000 0.0000
-9 5 18 0.0000 0.0000
-9 5 19 0.0000 0.0000
-9 5 20 0.0000 0.0000
-9 5 21 0.0000 0.0000
-9 5 22 0.0000 0.0000
-9 5 23 0.0000 0.0000
-9 5 24 0.0000 0.0000
-9 5 25 0.0000 0.0000
-9 6 -8 0.0000 0.0000
-9 6 -7 0.0000 0.0000
-9 6 -6 0.0000 0.0000
-9 6 -5 0.0000 0.0000
-9 6 -4 0.0000 0.0000
-9 6 -3 0.0000 0.0000
-9 6 -2 0.0000 0.0000
-9 6 -1 0.0000 0.0000
-9 6 0 0.0000 0.0000
-9 6 1 0.0000 0.0000
-9 6 2 0.0000 0.0000
-9 6 3 0.0000 0.0000
-9 6 4 0.0000 0.0000
-9 6 5 0.0000 0.0000
-9 6 6 0.0000 0.0000
-9 6 7 0.0000 0.0000
-9 6 8 0.0000 0.0000
-9 6 9 0.0000 0.0000
-9 6 10 0.0000 0.0000
-9 6 11 0.0000 0.0000
-9 6 12 0.0000 0.0000
-9 6 13 0.0000 0.0000
-9 6 14 0.0000 0.0000
-9 6 15 0.0000 0.0000
-9 6 17 0.0000 0.0000
-9 6 18 0.0000 0.0000
-9 6 19 0.0000 0.0000
-9 6 20 0.0000 0.0000
-9 6 21 0.0000 0.0000
-9 6 22 0.0000 0.0000
-9 6 23 0.0000 0.0000
-9 6 24 0.0000 0.0000
-9 7 -8 0.0000 0.0000
-9 7 -7 0.0000 0.0000
-9 7 -6 0.0000 0.0000
-9 7 -5 0.0000 0.0000
-9 7 -4 0.0000 0.0000
-9 7 -3 0.0000 0.0000
-9 7 -2 0.0000 0.0000
-9 7 -1 0.0000 0.0000
-9 7 0 0.0000 0.0000
-9 7 1 0.0000 0.0000
-9 7 2 0.0000 0.0000
-9 7 3 0.0000 0.0000
-9 7 4 0.0000 0.0000
-9 7 5 0.0000 0.0000
-9 7 6 0.0000 0.0000
-9 7 7 0.0000 0.0000
-9 7 8 0.0000 0.0000
-9 7 9 0.0000 0.0000
-9 7 10 0.0000 0.0000
-9 7 11 0.0000 0.0000
-9 7 12 0.0000 0.0000
-9 7 13 0.0000 0.0000
-9 7 14 0.0000 0.0000
-9 7 15 0.0000 0.0000
-9 7 16 0.0000 0.0000
-9 7 17 0.0000 0.0000
-9 7 18 0.0000 0.0000
-9 7 19 0.0000 0.0000
-9 7 20 0.0000 0.0000
-9 7 21 0.0000 0.0000
-9 7 22 0.0000 0.0000
-9 7 23 0.0000 0.0000
-9 8 -8 0.0000 0.0000
-9 8 -7 0.0000 0.0000
-9 8 -6 0.0000 0.0000
-9 8 -5 0.0000 0.0000
-9 8 -4 0.0000 0.0000
-9 8 -3 0.0000 0.0000
-9 8 -2 0.0000 0.0000
-9 8 0 0.0000 0.0000
-9 8 1 0.0000 0.0000
-9 8 2 0.0000 0.0000
-9 8 3 0.0000 0.0000
-9 8 4 0.0000 0.0000
-9 8 5 0.0000 0.0000
-9 8 6 0.0000 0.0000
-9 8 7 0.0000 0.0000
-9 8 8 0.0000 0.0000
-9 8 9 0.0000 0.0000
-9 8 10 0.0000 0.0000
-9 8 11 0.0000 0.0000
-9 8 12 0.0000 0.0000
-9 8 13 0.0000 0.0000
-9 8 14 0.0000 0.0000
-9 8 15 0.0000 0.0000
-9 8 16 0.0000 0.0000
-9 8 17 0.0000 0.0000
-9 8 18 0.0000 0.0000
-9 8 19 0.0000 0.0000
-9 8 20 0.0000 0.0000
-9 8 21 0.0000 0.0000
-9 8 22 0.0000 0.0000
-9 9 -8 0.0000 0.0000
-9 9 -7 0.0000 0.0000
-9 9 -6 0.0000 0.0000
-9 9 -5 0.0000 0.0000
-9 9 -4 0.0000 0.0000
-9 9 -3 0.0000 0.0000
-9 9 -2 0.0000 0.0000
-9 9 -1 0.0000 0.0000
-9 9 1 0.0000 0.0000
-9 9 2 0.0000 0.0000
-9 9 4 0.0000 0.0000
-9 9 5 0.0000 0.0000
-9 9 6 0.0000 0.0000
-9 9 7 0.0000 0.0000
-9 9 8 0.0000 0.0000
-9 9 9 0.0000 0.0000
-9 9 10 0.0000 0.0000
-9 9 11 0.0000 0.0000
-9 9 12 0.0000 0.0000
-9 9 13 0.0000 0.0000
-9 9 14 0.0000 0.0000
-9 9 15 0.0000 0.0000
-9 9 16 0.0000 0.0000
-9 9 17 0.0000 0.0000
-9 9 18 0.0000 0.0000
-9 9 19 0.0000 0.0000
-9 9 20 0.0000 0.0000
-9 10 -8 0.0000 0.0000
-9 10 -7 0.0000 0.0000
-9 10 -6 0.0000 0.0000
-9 10 -5 0.0000 0.0000
-9 10 -4 0.0000 0.0000
-9 10 -3 0.0000 0.0000
-9 10 -2 0.0000 0.0000
-9 10 -1 0.0000 0.0000
-9 10 0 0.0000 0.0000
-9 10 1 0.0000 0.0000
-9 10 2 0.0000 0.0000
-9 10 3 0.0000 0.0000
-9 10 4 0.0000 0.0000
-9 10 5 0.0000 0.0000
-9 10 6 0.0000 0.0000
-9 10 7 0.0000 0.0000
-9 10 8 0.0000 0.0000
-9 10 9 0.0000 0.0000
-9 10 10 0.0000 0.0000
-9 10 11 0.0000 0.0000
-9 10 12 0.0000 0.0000
-9 10 13 0.0000 0.0000
-9 10 14 0.0000 0.0000
-9 10 15 0.0000 0.0000
-9 10 16 0.0000 0.0000
-9 10 17 0.0000 0.0000
-9 10 18 0.0000 0.0000
-9 10 19 0.0000 0.0000
-9 11 -8 0.0000 0.0000
-9 11 -7 0.0000 0.0000
-9 11 -6 0.0000 0.0000
-9 11 -5 0.0000 0.0000
-9 11 -4 0.0000 0.0000
-9 11 -3 0.0000 0.0000
-9 11 -2 0.0000 0.0000
-9 11 -1 0.0000 0.0000
-9 11 0 0.0000 0.0000
-9 11 1 0.0000 0.0000
-9 11 2 0.0000 0.0000
-9 11 3 0.0000 0.0000
-9 11 4 0.0000 0.0000
-9 11 5 0.0000 0.0000
-9 11 6 0.0000 0.0000
-9 11 7 0.0000 0.0000
-9 11 8 0.0000 0.0000
-9 11 9 0.0000 0.0000
-9 11 10 0.0000 0.0000
-9 11 11 0.0000 0.0000
-9 11 12 0.0000 0.0000
-9 11 13 0.0000 0.0000
-9 11 14 0.0000 0.0000
-9 11 15 0.0000 0.0000
-9 11 16 0.0000 0.0000
-9 12 -8 0.0000 0.0000
-9 12 -7 0.0000 0.0000
-9 12 -6 0.0000 0.0000
-9 12 -5 0.0000 0.0000
-9 12 -4 0.0000 0.0000
-9 12 -3 0.0000 0.0000
-9 12 -2 0.0000 0.0000
-9 12 -1 0.0000 0.0000
-9 12 0 0.0000 0.0000
-9 12 1 0.0000 0.0000
-9 12 2 0.0000 0.0000
-9 12 3 0.0000 0.0000
-9 12 4 0.0000 0.0000
-9 12 5 0.0000 0.0000
-9 12 6 0.0000 0.0000
-9 12 7 0.0000 0.0000
-9 12 8 0.0000 0.0000
-9 12 9 0.0000 0.0000
-9 12 10 0.0000 0.0000
-9 12 11 0.0000 0.0000
-9 12 12 0.0000 0.0000
-9 12 13 0.0000 0.0000
-9 12 14 0.0000 0.0000
-9 13 -7 0.0000 0.0000
-9 13 -6 0.0000 0.0000
-9 13 -5 0.0000 0.0000
-9 13 -4 0.0000 0.0000
-9 13 -3 0.0000 0.0000
-9 13 -2 0.0000 0.0000
-9 13 -1 0.0000 0.0000
-9 13 0 0.0000 0.0000
-9 13 1 0.0000 0.0000
-9 13 2 0.0000 0.0000
-9 13 3 0.0000 0.0000
-9 13 4 0.0000 0.0000
-9 13 5 0.0000 0.0000
-9 13 6 0.0000 0.0000
-9 13 7 0.0000 0.0000
-9 13 8 0.0000 0.0000
-9 13 9 0.0000 0.0000
-8 0 -6 0.0000 0.0000
-8 0 -4 0.0000 0.0000
-8 0 -2 0.0000 0.0000
-8 0 0 0.0000 0.0000
-8 0 2 0.0000 0.0000
-8 0 4 0.0000 0.0000
-8 0 8 0.0000 0.0000
-8 0 10 0.0000 0.0000
-8 0 12 0.0000 0.0000
-8 0 14 0.0000 0.0000
-8 0 16 0.0000 0.0000
-8 0 18 0.0000 0.0000
-8 0 20 0.0000 0.0000
-8 0 22 0.0000 0.0000
-8 0 24 0.0000 0.0000
-8 0 26 0.0000 0.0000
-8 0 28 0.0000 0.0000
-8 1 -7 0.0000 0.0000
-8 1 -6 0.0000 0.0000
-8 1 -5 0.0000 0.0000
-8 1 -4 0.0000 0.0000
-8 1 -3 0.0000 0.0000
-8 1 -2 0.0000 0.0000
-8 1 -1 0.0000 0.0000
-8 1 0 0.0000 0.0000
-8 1 1 0.0000 0.0000
-8 1 2 0.0000 0.0000
-8 1 3 0.0000 0.0000
-8 1 4 0.0000 0.0000
-8 1 6 0.0000 0.0000
-8 1 9 0.0000 0.0000
-8 1 10 0.0000 0.0000
-8 1 11 0.0000 0.0000
-8 1 12 0.0000 0.0000
-8 1 13 0.0000 0.0000
-8 1 14 0.0000 0.0000
-8 1 15 0.0000 0.0000
-8 1 16 0.0000 0.0000
-8 1 17 0.0000 0.0000
-8 1 18 0.0000 0.0000
-8 1 19 0.0000 0.0000
-8 1 20 0.0000 0.0000
-8 1 21 0.0000 0.0000
-8 1 22 0.0000 0.0000
-8 1 23 0.0000 0.0000
-8 1 24 0.0000 0.0000
-8 1 25 0.0000 0.0000
-8 1 26 0.0000 0.0000
-8 1 27 0.0000 0.0000
-8 1 28 0.0000 0.0000
-8 2 -7 0.0000 0.0000
-8 2 -6 0.0000 0.0000
-8 2 -5 0.0000 0.0000
-8 2 -4 0.0000 0.0000
-8 2 -3 0.0000 0.0000
-8 2 -2 0.0000 0.0000
-8 2 -1 0.0000 0.0000
-8 2 0 0.0000 0.0000
-8 2 1 0.0000 0.0000
-8 2 2 0.0000 0.0000
-8 2 3 0.0000 0.0000
-8 2 4 0.0000 0.0000
-8 2 6 0.0000 0.0000
-8 2 10 0.0000 0.0000
-8 2 11 0.0000 0.0000
-8 2 12 0.0000 0.0000
-8 2 13 0.0000 0.0000
-8 2 14 0.0000 0.0000
-8 2 15 0.0000 0.0000
-8 2 16 0.0000 0.0000
-8 2 17 0.0000 0.0000
-8 2 18 0.0000 0.0000
-8 2 19 0.0000 0.0000
-8 2 20 0.0000 0.0000
-8 2 21 0.0000 0.0000
-8 2 22 0.0000 0.0000
-8 2 23 0.0000 0.0000
-8 2 24 0.0000 0.0000
-8 2 25 0.0000 0.0000
-8 2 26 0.0000 0.0000
-8 3 -7 0.0000 0.0000
-8 3 -6 0.0000 0.0000
-8 3 -4 0.0000 0.0000
-8 3 -3 0.0000 0.0000
-8 3 -2 0.0000 0.0000
-8 3 -1 0.0000 0.0000
-8 3 0 0.0000 0.0000
-8 3 1 0.0000 0.0000
-8 3 2 0.0000 0.0000
-8 3 3 0.0000 0.0000
-8 3 4 0.0000 0.0000
-8 3 6 0.0000 0.0000
-8 3 9 0.0000 0.0000
-8 3 10 0.0000 0.0000
-8 3 11 0.0000 0.0000
-8 3 12 0.0000 0.0000
-8 3 13 0.0000 0.0000
-8 3 14 0.0000 0.0000
-8 3 15 0.0000 0.0000
-8 3 16 0.0000 0.0000
-8 3 17 0.0000 0.0000
-8 3 18 0.0000 0.0000
-8 3 19 0.0000 0.0000
-8 3 20 0.0000 0.0000
-8 3 21 0.0000 0.0000
-8 3 22 0.0000 0.0000
-8 3 23 0.0000 0.0000
-8 3 24 0.0000 0.0000
-8 3 25 0.0000 0.0000
-8 3 26 0.0000 0.0000
-8 3 27 0.0000 0.0000
-8 4 -7 0.0000 0.0000
-8 4 -6 0.0000 0.0000
-8 4 -5 0.0000 0.0000
-8 4 -4 0.0000 0.0000
-8 4 -3 0.0000 0.0000
-8 4 -2 0.0000 0.0000
-8 4 -1 0.0000 0.0000
-8 4 0 0.0000 0.0000
-8 4 1 0.0000 0.0000
-8 4 4 0.0000 0.0000
-8 4 5 0.0000 0.0000
-8 4 6 0.0000 0.0000
-8 4 7 0.0000 0.0000
-8 4 8 0.0000 0.0000
-8 4 10 0.0000 0.0000
-8 4 11 0.0000 0.0000
-8 4 12 0.0000 0.0000
-8 4 13 0.0000 0.0000
-8 4 14 0.0000 0.0000
-8 4 15 0.0000 0.0000
-8 4 16 0.0000 0.0000
-8 4 17 0.0000 0.0000
-8 4 18 0.0000 0.0000
-8 4 19 0.0000 0.0000
-8 4 20 0.0000 0.0000
-8 4 21 0.0000 0.0000
-8 4 22 0.0000 0.0000
-8 4 23 0.0000 0.0000
-8 4 24 0.0000 0.0000
-8 4 25 0.0000 0.0000
-8 4 26 0.0000 0.0000
-8 4 27 0.0000 0.0000
-8 5 -7 0.0000 0.0000
-8 5 -6 0.0000 0.0000
-8 5 -5 0.0000 0.0000
-8 5 -4 0.0000 0.0000
-8 5 -3 0.0000 0.0000
-8 5 -2 0.0000 0.0000
-8 5 -1 0.0000 0.0000
-8 5 4 0.0000 0.0000
-8 5 5 0.0000 0.0000
-8 5 6 0.0000 0.0000
-8 5 7 0.0000 0.0000
-8 5 8 0.0000 0.0000
-8 5 9 0.0000 0.0000
-8 5 10 0.0000 0.0000
-8 5 11 0.0000 0.0000
-8 5 12 0.0000 0.0000
-8 5 13 0.0000 0.0000
-8 5 14 0.0000 0.0000
-8 5 15 0.0000 0.0000
-8 5 16 0.0000 0.0000
-8 5 17 0.0000 0.0000
-8 5 18 0.0000 0.0000
-8 5 19 0.0000 0.0000
-8 5 20 0.0000 0.0000
-8 5 21 0.0000 0.0000
-8 5 22 0.0000 0.0000
-8 5 23 0.0000 0.0000
-8 5 24 0.0000 0.0000
-8 5 25 0.0000 0.0000
-8 5 26 0.0000 0.0000
-8 5 27 0.0000 0.0000
-8 6 -7 0.0000 0.0000
-8 6 -6 0.0000 0.0000
-8 6 -5 0.0000 0.0000
-8 6 -4 0.0000 0.0000
-8 6 -3 0.0000 0.0000
-8 6 -2 0.0000 0.0000
-8 6 -1 0.0000 0.0000
-8 6 0 0.0000 0.0000
-8 6 1 0.0000 0.0000
-8 6 2 0.0000 0.0000
-8 6 3 0.0000 0.0000
-8 6 4 0.0000 0.0000
-8 6 5 0.0000 0.0000
-8 6 7 0.0000 0.0000
-8 6 8 0.0000 0.0000
-8 6 9 0.0000 0.0000
-8 6 10 0.0000 0.0000
-8 6 11 0.0000 0.0000
-8 6 12 0.0000 0.0000
-8 6 13 0.0000 0.0000
-8 6 14 0.0000 0.0000
-8 6 15 0.0000 0.0000
-8 6 16 0.0000 0.0000
-8 6 17 0.0000 0.0000
-8 6 18 0.0000 0.0000
-8 6 19 0.0000 0.0000
-8 6 20 0.0000 0.0000
-8 6 21 0.0000 0.0000
-8 6 22 0.0000 0.0000
-8 6 23 0.0000 0.0000
-8 6 24 0.0000 0.0000
-8 6 25 0.0000 0.0000
-8 6 26 0.0000 0.0000
-8 7 -7 0.0000 0.0000
-8 7 -6 0.0000 0.0000
-8 7 -5 0.0000 0.0000
-8 7 -4 0.0000 0.0000
-8 7 -3 0.0000 0.0000
-8 7 -2 0.0000 0.0000
-8 7 -1 0.0000 0.0000
-8 7 0 0.0000 0.0000
-8 7 1 0.0000 0.0000
-8 7 2 0.0000 0.0000
-8 7 3 0.0000 0.0000
-8 7 4 0.0000 0.0000
-8 7 5 0.0000 0.0000
-8 7 6 0.0000 0.0000
-8 7 7 0.0000 0.0000
-8 7 8 0.0000 0.0000
-8 7 9 0.0000 0.0000
-8 7 10 0.0000 0.0000
-8 7 11 0.0000 0.0000
-8 7 12 0.0000 0.0000
-8 7 13 0.0000 0.0000
-8 7 14 0.0000 0.0000
-8 7 15 0.0000 0.0000
-8 7 16 0.0000 0.0000
-8 7 17 0.0000 0.0000
-8 7 18 0.0000 0.0000
-8 7 19 0.0000 0.0000
-8 7 20 0.0000 0.0000
-8 7 21 0.0000 0.0000
-8 7 22 0.0000 0.0000
-8 7 23 0.0000 0.0000
-8 7 24 0.0000 0.0000
-8 7 25 0.0000 0.0000
-8 8 -7 0.0000 0.0000
-8 8 -6 0.0000 0.0000
-8 8 -5 0.0000 0.0000
-8 8 -4 0.0000 0.0000
-8 8 -3 0.0000 0.0000
-8 8 -2 0.0000 0.0000
-8 8 -1 0.0000 0.0000
-8 8 0 0.0000 0.0000
-8 8 1 0.0000 0.0000
-8 8 2 0.0000 0.0000
-8 8 3 0.0000 0.0000
-8 8 4 0.0000 0.0000
-8 8 5 0.0000 0.0000
-8 8 6 0.0000 0.0000
-8 8 7 0.0000 0.0000
-8 8 8 0.0000 0.0000
-8 8 9 0.0000 0.0000
-8 8 10 0.0000 0.0000
-8 8 12 0.0000 0.0000
-8 8 13 0.0000 0.0000
-8 8 14 0.0000 0.0000
-8 8 15 0.0000 0.0000
-8 8 16 0.0000 0.0000
-8 8 17 0.0000 0.0000
-8 8 18 0.0000 0.0000
-8 8 19 0.0000 0.0000
-8 8 20 0.0000 0.0000
-8 8 21 0.0000 0.0000
-8 8 22 0.0000 0.0000
-8 8 23 0.0000 0.0000
-8 8 24 0.0000 0.0000
-8 9 -7 0.0000 0.0000
-8 9 -6 0.0000 0.0000
-8 9 -4 0.0000 0.0000
-8 9 -3 0.0000 0.0000
-8 9 -2 0.0000 0.0000
-8 9 -1 0.0000 0.0000
-8 9 0 0.0000 0.0000
-8 9 1 0.0000 0.0000
-8 9 2 0.0000 0.0000
-8 9 3 0.0000 0.0000
-8 9 4 0.0000 0.0000
-8 9 5 0.0000 0.0000
-8 9 6 0.0000 0.0000
-8 9 7 0.0000 0.0000
-8 9 8 0.0000 0.0000
-8 9 9 0.0000 0.0000
-8 9 10 0.0000 0.0000
-8 9 11 0.0000 0.0000
-8 9 12 0.0000 0.0000
-8 9 13 0.0000 0.0000
-8 9 14 0.0000 0.0000
-8 9 15 0.0000 0.0000
-8 9 16 0.0000 0.0000
-8 9 17 0.0000 0.0000
-8 9 18 0.0000 0.0000
-8 9 19 0.0000 0.0000
-8 9 20 0.0000 0.0000
-8 9 21 0.0000 0.0000
-8 9 22 0.0000 0.0000
-8 10 -7 0.0000 0.0000
-8 10 -6 0.0000 0.0000
-8 10 -5 0.0000 0.0000
-8 10 -4 0.0000 0.0000
-8 10 -3 0.0000 0.0000
-8 10 -2 0.0000 0.0000
-8 10 -1 0.0000 0.0000
-8 10 0 0.0000 0.0000
-8 10 1 0.0000 0.0000
-8 10 2 0.0000 0.0000
-8 10 3 0.0000 0.0000
-8 10 4 0.0000 0.0000
-8 10 5 0.0000 0.0000
-8 10 6 0.0000 0.0000
-8 10 7 0.0000 0.0000
-8 10 8 0.0000 0.0000
-8 10 9 0.0000 0.0000
-8 10 10 0.0000 0.0000
-8 10 11 0.0000 0.0000
-8 10 12 0.0000 0.0000
-8 10 13 0.0000 0.0000
-8 10 14 0.0000 0.0000
-8 10 15 0.0000 0.0000
-8 10 16 0.0000 0.0000
-8 10 17 0.0000 0.0000
-8 10 18 0.0000 0.0000
-8 10 19 0.0000 0.0000
-8 10 20 0.0000 0.0000
-8 10 21 0.0000 0.0000
-8 11 -7 0.0000 0.0000
-8 11 -6 0.0000 0.0000
-8 11 -5 0.0000 0.0000
-8 11 -4 0.0000 0.0000
-8 11 -3 0.0000 0.0000
-8 11 -2 0.0000 0.0000
-8 11 -1 0.0000 0.0000
-8 11 0 0.0000 0.0000
-8 11 1 0.0000 0.0000
-8 11 2 0.0000 0.0000
-8 11 3 0.0000 0.0000
-8 11 4 0.0000 0.0000
-8 11 5 0.0000 0.0000
-8 11 6 0.0000 0.0000
-8 11 7 0.0000 0.0000
-8 11 8 0.0000 0.0000
-8 11 9 0.0000 0.0000
-8 11 10 0.0000 0.0000
-8 11 11 0.0000 0.0000
-8 11 12 0.0000 0.0000
-8 11 13 0.0000 0.0000
-8 11 14 0.0000 0.0000
-8 11 15 0.0000 0.0000
-8 11 16 0.0000 0.0000
-8 11 17 0.0000 0.0000
-8 11 18 0.0000 0.0000
-8 11 19 0.0000 0.0000
-8 12 -7 0.0000 0.0000
-8 12 -6 0.0000 0.0000
-8 12 -5 0.0000 0.0000
-8 12 -4 0.0000 0.0000
-8 12 -3 0.0000 0.0000
-8 12 -2 0.0000 0.0000
-8 12 -1 0.0000 0.0000
-8 12 0 0.0000 0.0000
-8 12 1 0.0000 0.0000
-8 12 2 0.0000 0.0000
-8 12 3 0.0000 0.0000
-8 12 4 0.0000 0.0000
-8 12 5 0.0000 0.0000
-8 12 6 0.0000 0.0000
-8 12 7 0.0000 0.0000
-8 12 8 0.0000 0.0000
-8 12 9 0.0000 0.0000
-8 12 10 0.0000 0.0000
-8 12 11 0.0000 0.0000
-8 12 12 0.0000 0.0000
-8 12 13 0.0000 0.0000
-8 12 14 0.0000 0.0000
-8 12 15 0.0000 0.0000
-8 12 16 0.0000 0.0000
-8 13 -7 0.0000 0.0000
-8 13 -6 0.0000 0.0000
-8 13 -5 0.0000 0.0000
-8 13 -4 0.0000 0.0000
-8 13 -3 0.0000 0.0000
-8 13 -2 0.0000 0.0000
-8 13 -1 0.0000 0.0000
-8 13 0 0.0000 0.0000
-8 13 1 0.0000 0.0000
-8 13 2 0.0000 0.0000
-8 13 3 0.0000 0.0000
-8 13 4 0.0000 0.0000
-8 13 5 0.0000 0.0000
-8 13 6 0.0000 0.0000
-8 13 7 0.0000 0.0000
-8 13 8 0.0000 0.0000
-8 13 9 0.0000 0.0000
-8 13 10 0.0000 0.0000
-8 13 11 0.0000 0.0000
-8 13 12 0.0000 0.0000
-8 13 13 0.0000 0.0000
-8 14 -7 0.0000 0.0000
-8 14 -6 0.0000 0.0000
-8 14 -5 0.0000 0.0000
-8 14 -4 0.0000 0.0000
-8 14 -3 0.0000 0.0000
-8 14 -2 0.0000 0.0000
-8 14 -1 0.0000 0.0000
-8 14 0 0.0000 0.0000
-8 14 1 0.0000 0.0000
-8 14 2 0.0000 0.0000
-8 14 3 0.0000 0.0000
-8 14 4 0.0000 0.0000
-8 14 5 0.0000 0.0000
-8 14 6 0.0000 0.0000
-8 14 7 0.0000 0.0000
-8 14 8 0.0000 0.0000
-7 0 -5 0.0000 0.0000
-7 0 -3 0.0000 0.0000
-7 0 -1 0.0000 0.0000
-7 0 1 0.0000 0.0000
-7 0 3 0.0000 0.0000
-7 0 5 0.0000 0.0000
-7 0 7 0.0000 0.0000
-7 0 9 0.0000 0.0000
-7 0 11 0.0000 0.0000
-7 0 13 0.0000 0.0000
-7 0 15 0.0000 0.0000
-7 0 17 0.0000 0.0000
-7 0 19 0.0000 0.0000
-7 0 21 0.0000 0.0000
-7 0 23 0.0000 0.0000
-7 0 25 0.0000 0.0000
-7 0 27 0.0000 0.0000
-7 0 29 0.0000 0.0000
-7 1 -6 0.0000 0.0000
-7 1 -5 0.0000 0.0000
-7 1 -4 0.0000 0.0000
-7 1 -3 0.0000 0.0000
-7 1 -2 0.0000 0.0000
-7 1 -1 0.0000 0.0000
-7 1 0 0.0000 0.0000
-7 1 1 0.0000 0.0000
-7 1 2 0.0000 0.0000
-7 1 3 0.0000 0.0000
-7 1 4 0.0000 0.0000
-7 1 5 0.0000 0.0000
-7 1 6 0.0000 0.0000
-7 1 7 0.0000 0.0000
-7 1 8 0.0000 0.0000
-7 1 9 0.0000 0.0000
-7 1 10 0.0000 0.0000
-7 1 11 0.0000 0.0000
-7 1 12 0.0000 0.0000
-7 1 13 0.0000 0.0000
-7 1 14 0.0000 0.0000
-7 1 15 0.0000 0.0000
-7 1 16 0.0000 0.0000
-7 1 17 0.0000 0.0000
-7 1 18 0.0000 0.0000
-7 1 19 0.0000 0.0000
-7 1 20 0.0000 0.0000
-7 1 21 0.0000 0.0000
-7 1 22 0.0000 0.0000
-7 1 23 0.0000 0.0000
-7 1 24 0.0000 0.0000
-7 1 25 0.0000 0.0000
-7 1 26 0.0000 0.0000
-7 1 27 0.0000 0.0000
-7 1 28 0.0000 0.0000
-7 1 29 0.0000 0.0000
-7 2 -6 0.0000 0.0000
-7 2 -5 0.0000 0.0000
-7 2 -4 0.0000 0.0000
-7 2 -3 0.0000 0.0000
-7 2 -2 0.0000 0.0000
-7 2 -1 0.0000 0.0000
-7 2 0 0.0000 0.0000
-7 2 1 0.0000 0.0000
-7 2 2 0.0000 0.0000
-7 2 3 0.0000 0.0000
-7 2 4 0.0000 0.0000
-7 2 5 0.0000 0.0000
-7 2 6 0.0000 0.0000
-7 2 9 0.0000 0.0000
-7 2 10 0.0000 0.0000
-7 2 11 0.0000 0.0000
-7 2 12 0.0000 0.0000
-7 2 13 0.0000 0.0000
-7 2 14 0.0000 0.0000
-7 2 15 0.0000 0.0000
-7 2 16 0.0000 0.0000
-7 2 17 0.0000 0.0000
-7 2 18 0.0000 0.0000
-7 2 19 0.0000 0.0000
-7 2 20 0.0000 0.0000
-7 2 21 0.0000 0.0000
-7 2 22 0.0000 0.0000
-7 2 23 0.0000 0.0000
-7 2 24 0.0000 0.0000
-7 2 25 0.0000 0.0000
-7 2 26 0.0000 0.0000
-7 2 27 0.0000 0.0000
-7 2 28 0.0000 0.0000
-7 2 29 0.0000 0.0000
-7 3 -6 0.0000 0.0000
-7 3 -5 0.0000 0.0000
-7 3 -4 0.0000 0.0000
-7 3 -3 0.0000 0.0000
-7 3 -2 0.0000 0.0000
-7 3 -1 0.0000 0.0000
-7 3 0 0.0000 0.0000
-7 3 1 0.0000 0.0000
-7 3 2 0.0000 0.0000
-7 3 4 0.0000 0.0000
-7 3 5 0.0000 0.0000
-7 3 6 0.0000 0.0000
-7 3 7 0.0000 0.0000
-7 3 9 0.0000 0.0000
-7 3 10 0.0000 0.0000
-7 3 11 0.0000 0.0000
-7 3 12 0.0000 0.0000
-7 3 13 0.0000 0.0000
-7 3 14 0.0000 0.0000
-7 3 15 0.0000 0.0000
-7 3 16 0.0000 0.0000
-7 3 17 0.0000 0.0000
-7 3 18 0.0000 0.0000
-7 3 19 0.0000 0.0000
-7 3 20 0.0000 0.0000
-7 3 21 0.0000 0.0000
-7 3 22 0.0000 0.0000
-7 3 23 0.0000 0.0000
-7 3 24 0.0000 0.0000
-7 3 25 0.0000 0.0000
-7 3 26 0.0000 0.0000
-7 3 27 0.0000 0.0000
-7 3 28 0.0000 0.0000
-7 3 29 0.0000 0.0000
-7 4 -6 0.0000 0.0000
-7 4 -5 0.0000 0.0000
-7 4 -4 0.0000 0.0000
-7 4 -3 0.0000 0.0000
-7 4 -2 0.0000 0.0000
-7 4 -1 0.0000 0.0000
-7 4 0 0.0000 0.0000
-7 4 1 0.0000 0.0000
-7 4 2 0.0000 0.0000
-7 4 3 0.0000 0.0000
-7 4 4 0.0000 0.0000
-7 4 5 0.0000 0.0000
-7 4 6 0.0000 0.0000
-7 4 7 0.0000 0.0000
-7 4 8 0.0000 0.0000
-7 4 9 0.0000 0.0000
-7 4 10 0.0000 0.0000
-7 4 11 0.0000 0.0000
-7 4 12 0.0000 0.0000
-7 4 13 0.0000 0.0000
-7 4 14 0.0000 0.0000
-7 4 15 0.0000 0.0000
-7 4 16 0.0000 0.0000
-7 4 17 0.0000 0.0000
-7 4 18 0.0000 0.0000
-7 4 19 0.0000 0.0000
-7 4 20 0.0000 0.0000
-7 4 21 0.0000 0.0000
-7 4 22 0.0000 0.0000
-7 4 23 0.0000 0.0000
-7 4 24 0.0000 0.0000
-7 4 25 0.0000 0.0000
-7 4 26 0.0000 0.0000
-7 4 27 0.0000 0.0000
-7 4 28 0.0000 0.0000
-7 5 -6 0.0000 0.0000
-7 5 -5 0.0000 0.0000
-7 5 -4 0.0000 0.0000
-7 5 -3 0.0000 0.0000
-7 5 -2 0.0000 0.0000
-7 5 -1 0.0000 0.0000
-7 5 3 0.0000 0.0000
-7 5 4 0.0000 0.0000
-7 5 5 0.0000 0.0000
-7 5 6 0.0000 0.0000
-7 5 7 0.0000 0.0000
-7 5 8 0.0000 0.0000
-7 5 9 0.0000 0.0000
-7 5 10 0.0000 0.0000
-7 5 11 0.0000 0.0000
-7 5 12 0.0000 0.0000
-7 5 13 0.0000 0.0000
-7 5 14 0.0000 0.0000
-7 5 15 0.0000 0.0000
-7 5 16 0.0000 0.0000
-7 5 17 0.0000 0.0000
-7 5 18 0.0000 0.0000
-7 5 19 0.0000 0.0000
-7 5 20 0.0000 0.0000
-7 5 21 0.0000 0.0000
-7 5 22 0.0000 0.0000
-7 5 23 0.0000 0.0000
-7 5 24 0.0000 0.0000
-7 5 25 0.0000 0.0000
-7 5 26 0.0000 0.0000
-7 5 27 0.0000 0.0000
-7 5 28 0.0000 0.0000
-7 6 -6 0.0000 0.0000
-7 6 -5 0.0000 0.0000
-7 6 -4 0.0000 0.0000
-7 6 -3 0.0000 0.0000
-7 6 -2 0.0000 0.0000
-7 6 -1 0.0000 0.0000
-7 6 0 0.0000 0.0000
-7 6 2 0.0000 0.0000
-7 6 3 0.0000 0.0000
-7 6 4 0.0000 0.0000
-7 6 5 0.0000 0.0000
-7 6 6 0.0000 0.0000
-7 6 7 0.0000 0.0000
-7 6 8 0.0000 0.0000
-7 6 9 0.0000 0.0000
-7 6 10 0.0000 0.0000
-7 6 11 0.0000 0.0000
-7 6 12 0.0000 0.0000
-7 6 13 0.0000 0.0000
-7 6 14 0.0000 0.0000
-7 6 15 0.0000 0.0000
-7 6 16 0.0000 0.0000
-7 6 17 0.0000 0.0000
-7 6 18 0.0000 0.0000
-7 6 19 0.0000 0.0000
-7 6 20 0.0000 0.0000
-7 6 21 0.0000 0.0000
-7 6 22 0.0000 0.0000
-7 6 23 0.0000 0.0000
-7 6 24 0.0000 0.0000
-7 6 25 0.0000 0.0000
-7 6 26 0.0000 0.0000
-7 6 27 0.0000 0.0000
-7 7 -6 0.0000 0.0000
-7 7 -5 0.0000 0.0000
-7 7 -4 0.0000 0.0000
-7 7 -3 0.0000 0.0000
-7 7 -2 0.0000 0.0000
-7 7 -1 0.0000 0.0000
-7 7 0 0.0000 0.0000
-7 7 2 0.0000 0.0000
-7 7 3 0.0000 0.0000
-7 7 4 0.0000 0.0000
-7 7 5 0.0000 0.0000
-7 7 6 0.0000 0.0000
-7 7 7 0.0000 0.0000
-7 7 8 0.0000 0.0000
-7 7 9 0.0000 0.0000
-7 7 10 0.0000 0.0000
-7 7 11 0.0000 0.0000
-7 7 12 0.0000 0.0000
-7 7 13 0.0000 0.0000
-7 7 14 0.0000 0.0000
-7 7 15 0.0000 0.0000
-7 7 16 0.0000 0.0000
-7 7 17 0.0000 0.0000
-7 7 18 0.0000 0.0000
-7 7 19 0.0000 0.0000
-7 7 20 0.0000 0.0000
-7 7 21 0.0000 0.0000
-7 7 22 0.0000 0.0000
-7 7 23 0.0000 0.0000
-7 7 24 0.0000 0.0000
-7 7 25 0.0000 0.0000
-7 7 26 0.0000 0.0000
-7 8 -6 0.0000 0.0000
-7 8 -5 0.0000 0.0000
-7 8 -4 0.0000 0.0000
-7 8 -3 0.0000 0.0000
-7 8 -2 0.0000 0.0000
-7 8 -1 0.0000 0.0000
-7 8 0 0.0000 0.0000
-7 8 1 0.0000 0.0000
-7 8 2 0.0000 0.0000
-7 8 3 0.0000 0.0000
-7 8 4 0.0000 0.0000
-7 8 5 0.0000 0.0000
-7 8 6 0.0000 0.0000
-7 8 7 0.0000 0.0000
-7 8 8 0.0000 0.0000
-7 8 9 0.0000 0.0000
-7 8 10 0.0000 0.0000
-7 8 11 0.0000 0.0000
-7 8 12 0.0000 0.0000
-7 8 13 0.0000 0.0000
-7 8 14 0.0000 0.0000
-7 8 15 0.0000 0.0000
-7 8 16 0.0000 0.0000
-7 8 17 0.0000 0.0000
-7 8 18 0.0000 0.0000
-7 8 19 0.0000 0.0000
-7 8 20 0.0000 0.0000
-7 8 21 0.0000 0.0000
-7 8 22 0.0000 0.0000
-7 8 23 0.0000 0.0000
-7 8 24 0.0000 0.0000
-7 8 25 0.0000 0.0000
-7 9 -6 0.0000 0.0000
-7 9 -5 0.0000 0.0000
-7 9 -4 0.0000 0.0000
-7 9 -3 0.0000 0.0000
-7 9 -2 0.0000 0.0000
-7 9 -1 0.0000 0.0000
-7 9 0 0.0000 0.0000
-7 9 1 0.0000 0.0000
-7 9 2 0.0000 0.0000
-7 9 3 0.0000 0.0000
-7 9 4 0.0000 0.0000
-7 9 5 0.0000 0.0000
-7 9 6 0.0000 0.0000
-7 9 7 0.0000 0.0000
-7 9 8 0.0000 0.0000
-7 9 9 0.0000 0.0000
-7 9 10 0.0000 0.0000
-7 9 11 0.0000 0.0000
-7 9 12 0.0000 0.0000
-7 9 13 0.0000 0.0000
-7 9 14 0.0000 0.0000
-7 9 15 0.0000 0.0000
-7 9 16 0.0000 0.0000
-7 9 17 0.0000 0.0000
-7 9 18 0.0000 0.0000
-7 9 19 0.0000 0.0000
-7 9 20 0.0000 0.0000
-7 9 21 0.0000 0.0000
-7 9 22 0.0000 0.0000
-7 9 23 0.0000 0.0000
-7 9 24 0.0000 0.0000
-7 10 -6 0.0000 0.0000
-7 10 -5 0.0000 0.0000
-7 10 -4 0.0000 0.0000
-7 10 -3 0.0000 0.0000
-7 10 -2 0.0000 0.0000
-7 10 -1 0.0000 0.0000
-7 10 0 0.0000 0.0000
-7 10 1 0.0000 0.0000
-7 10 2 0.0000 0.0000
-7 10 3 0.0000 0.0000
-7 10 4 0.0000 0.0000
-7 10 5 0.0000 0.0000
-7 10 6 0.0000 0.0000
-7 10 7 0.0000 0.0000
-7 10 8 0.0000 0.0000
-7 10 9 0.0000 0.0000
-7 10 10 0.0000 0.0000
-7 10 11 0.0000 0.0000
-7 10 12 0.0000 0.0000
-7 10 13 0.0000 0.0000
-7 10 14 0.0000 0.0000
-7 10 15 0.0000 0.0000
-7 10 16 0.0000 0.0000
-7 10 17 0.0000 0.0000
-7 10 18 0.0000 0.0000
-7 10 19 0.0000 0.0000
-7 10 20 0.0000 0.0000
-7 10 21 0.0000 0.0000
-7 10 22 0.0000 0.0000
-7 11 -6 0.0000 0.0000
-7 11 -5 0.0000 0.0000
-7 11 -4 0.0000 0.0000
-7 11 -3 0.0000 0.0000
-7 11 -2 0.0000 0.0000
-7 11 -1 0.0000 0.0000
-7 11 0 0.0000 0.0000
-7 11 1 0.0000 0.0000
-7 11 2 0.0000 0.0000
-7 11 3 0.0000 0.0000
-7 11 4 0.0000 0.0000
-7 11 5 0.0000 0.0000
-7 11 6 0.0000 0.0000
-7 11 7 0.0000 0.0000
-7 11 8 0.0000 0.0000
-7 11 9 0.0000 0.0000
-7 11 10 0.0000 0.0000
-7 11 11 0.0000 0.0000
-7 11 12 0.0000 0.0000
-7 11 13 0.0000 0.0000
-7 11 14 0.0000 0.0000
-7 11 15 0.0000 0.0000
-7 11 16 0.0000 0.0000
-7 11 17 0.0000 0.0000
-7 11 18 0.0000 0.0000
-7 11 19 0.0000 0.0000
-7 11 20 0.0000 0.0000
-7 11 21 0.0000 0.0000
-7 12 -6 0.0000 0.0000
-7 12 -5 0.0000 0.0000
-7 12 -4 0.0000 0.0000
-7 12 -3 0.0000 0.0000
-7 12 -2 0.0000 0.0000
-7 12 -1 0.0000 0.0000
-7 12 0 0.0000 0.0000
-7 12 1 0.0000 0.0000
-7 12 2 0.0000 0.0000
-7 12 3 0.0000 0.0000
-7 12 4 0.0000 0.0000
-7 12 5 0.0000 0.0000
-7 12 6 0.0000 0.0000
-7 12 7 0.0000 0.0000
-7 12 8 0.0000 0.0000
-7 12 9 0.0000 0.0000
-7 12 10 0.0000 0.0000
-7 12 11 0.0000 0.0000
-7 12 12 0.0000 0.0000
-7 12 13 0.0000 0.0000
-7 12 14 0.0000 0.0000
-7 12 15 0.0000 0.0000
-7 12 16 0.0000 0.0000
-7 12 17 0.0000 0.0000
-7 12 18 0.0000 0.0000
-7 13 -6 0.0000 0.0000
-7 13 -5 0.0000 0.0000
-7 13 -4 0.0000 0.0000
-7 13 -3 0.0000 0.0000
-7 13 -2 0.0000 0.0000
-7 13 -1 0.0000 0.0000
-7 13 0 0.0000 0.0000
-7 13 1 0.0000 0.0000
-7 13 2 0.0000 0.0000
-7 13 3 0.0000 0.0000
-7 13 4 0.0000 0.0000
-7 13 5 0.0000 0.0000
-7 13 6 0.0000 0.0000
-7 13 7 0.0000 0.0000
-7 13 8 0.0000 0.0000
-7 13 9 0.0000 0.0000
-7 13 10 0.0000 0.0000
-7 13 11 0.0000 0.0000
-7 13 12 0.0000 0.0000
-7 13 13 0.0000 0.0000
-7 13 14 0.0000 0.0000
-7 13 15 0.0000 0.0000
-7 13 16 0.0000 0.0000
-7 14 -6 0.0000 0.0000
-7 14 -5 0.0000 0.0000
-7 14 -4 0.0000 0.0000
-7 14 -3 0.0000 0.0000
-7 14 -2 0.0000 0.0000
-7 14 -1 0.0000 0.0000
-7 14 0 0.0000 0.0000
-7 14 1 0.0000 0.0000
-7 14 2 0.0000 0.0000
-7 14 3 0.0000 0.0000
-7 14 4 0.0000 0.0000
-7 14 5 0.0000 0.0000
-7 14 6 0.0000 0.0000
-7 14 7 0.0000 0.0000
-7 14 8 0.0000 0.0000
-7 14 9 0.0000 0.0000
-7 14 10 0.0000 0.0000
-7 14 11 0.0000 0.0000
-7 14 12 0.0000 0.0000
-7 15 -5 0.0000 0.0000
-7 15 -4 0.0000 0.0000
-7 15 -3 0.0000 0.0000
-7 15 -2 0.0000 0.0000
-7 15 -1 0.0000 0.0000
-7 15 0 0.0000 0.0000
-7 15 1 0.0000 0.0000
-7 15 2 0.0000 0.0000
-7 15 3 0.0000 0.0000
-7 15 4 0.0000 0.0000
-7 15 5 0.0000 0.0000
-7 15 6 0.0000 0.0000
-6 0 -4 0.0000 0.0000
-6 0 -2 0.0000 0.0000
-6 0 0 0.0000 0.0000
-6 0 2 0.0000 0.0000
-6 0 4 0.0000 0.0000
-6 0 6 0.0000 0.0000
-6 0 8 0.0000 0.0000
-6 0 10 0.0000 0.0000
-6 0 12 0.0000 0.0000
-6 0 14 0.0000 0.0000
-6 0 16 0.0000 0.0000
-6 0 18 0.0000 0.0000
-6 0 20 0.0000 0.0000
-6 0 22 0.0000 0.0000
-6 0 24 0.0000 0.0000
-6 0 26 0.0000 0.0000
-6 0 28 0.0000 0.0000
-6 0 30 0.0000 0.0000
-6 1 -5 0.0000 0.0000
-6 1 -4 0.0000 0.0000
-6 1 -3 0.0000 0.0000
-6 1 -2 0.0000 0.0000
-6 1 -1 0.0000 0.0000
-6 1 0 0.0000 0.0000
-6 1 3 0.0000 0.0000
-6 1 5 0.0000 0.0000
-6 1 7 0.0000 0.0000
-6 1 8 0.0000 0.0000
-6 1 9 0.0000 0.0000
-6 1 10 0.0000 0.0000
-6 1 11 0.0000 0.0000
-6 1 12 0.0000 0.0000
-6 1 13 0.0000 0.0000
-6 1 14 0.0000 0.0000
-6 1 15 0.0000 0.0000
-6 1 17 0.0000 0.0000
-6 1 18 0.0000 0.0000
-6 1 19 0.0000 0.0000
-6 1 21 0.0000 0.0000
-6 1 22 0.0000 0.0000
-6 1 23 0.0000 0.0000
-6 1 24 0.0000 0.0000
-6 1 25 0.0000 0.0000
-6 1 26 0.0000 0.0000
-6 1 27 0.0000 0.0000
-6 1 28 0.0000 0.0000
-6 1 29 0.0000 0.0000
-6 1 30 0.0000 0.0000
-6 2 -5 0.0000 0.0000
-6 2 -4 0.0000 0.0000
-6 2 -3 0.0000 0.0000
-6 2 -2 0.0000 0.0000
-6 2 -1 0.0000 0.0000
-6 2 0 0.0000 0.0000
-6 2 1 0.0000 0.0000
-6 2 2 0.0000 0.0000
-6 2 5 0.0000 0.0000
-6 2 6 0.0000 0.0000
-6 2 7 0.0000 0.0000
-6 2 8 0.0000 0.0000
-6 2 9 0.0000 0.0000
-6 2 11 0.0000 0.0000
-6 2 12 0.0000 0.0000
-6 2 13 0.0000 0.0000
-6 2 14 0.0000 0.0000
-6 2 15 0.0000 0.0000
-6 2 16 0.0000 0.0000
-6 2 17 0.0000 0.0000
-6 2 18 0.0000 0.0000
-6 2 19 0.0000 0.0000
-6 2 20 0.0000 0.0000
-6 2 21 0.0000 0.0000
-6 2 22 0.0000 0.0000
-6 2 23 0.0000 0.0000
-6 2 24 0.0000 0.0000
-6 2 25 0.0000 0.0000
-6 2 26 0.0000 0.0000
-6 2 27 0.0000 0.0000
-6 2 28 0.0000 0.0000
-6 2 29 0.0000 0.0000
-6 2 30 0.0000 0.0000
-6 3 -5 0.0000 0.0000
-6 3 -4 0.0000 0.0000
-6 3 -3 0.0000 0.0000
-6 3 -2 0.0000 0.0000
-6 3 -1 0.0000 0.0000
-6 3 0 0.0000 0.0000
-6 3 1 0.0000 0.0000
-6 3 2 0.0000 0.0000
-6 3 3 0.0000 0.0000
-6 3 4 0.0000 0.0000
-6 3 5 0.0000 0.0000
-6 3 6 0.0000 0.0000
-6 3 7 0.0000 0.0000
-6 3 8 0.0000 0.0000
-6 3 9 0.0000 0.0000
-6 3 10 0.0000 0.0000
-6 3 11 0.0000 0.0000
-6 3 12 0.0000 0.0000
-6 3 13 0.0000 0.0000
-6 3 14 0.0000 0.0000
-6 3 16 0.0000 0.0000
-6 3 17 0.0000 0.0000
-6 3 18 0.0000 0.0000
-6 3 19 0.0000 0.0000
-6 3 20 0.0000 0.0000
-6 3 21 0.0000 0.0000
-6 3 22 0.0000 0.0000
-6 3 23 0.0000 0.0000
-6 3 24 0.0000 0.0000
-6 3 25 0.0000 0.0000
-6 3 26 0.0000 0.0000
-6 3 27 0.0000 0.0000
-6 3 28 0.0000 0.0000
-6 3 29 0.0000 0.0000
-6 3 30 0.0000 0.0000
-6 4 -5 0.0000 0.0000
-6 4 -3 0.0000 0.0000
-6 4 -1 0.0000 0.0000
-6 4 0 0.0000 0.0000
-6 4 1 0.0000 0.0000
-6 4 2 0.0000 0.0000
-6 4 4 0.0000 0.0000
-6 4 5 0.0000 0.0000
-6 4 6 0.0000 0.0000
-6 4 7 0.0000 0.0000
-6 4 8 0.0000 0.0000
-6 4 10 0.0000 0.0000
-6 4 11 0.0000 0.0000
-6 4 12 0.0000 0.0000
-6 4 13 0.0000 0.0000
-6 4 14 0.0000 0.0000
-6 4 15 0.0000 0.0000
-6 4 16 0.0000 0.0000
-6 4 17 0.0000 0.0000
-6 4 18 0.0000 0.0000
-6 4 19 0.0000 0.0000
-6 4 20 0.0000 0.0000
-6 4 21 0.0000 0.0000
-6 4 22 0.0000 0.0000
-6 4 23 0.0000 0.0000
-6 4 24 0.0000 0.0000
-6 4 25 0.0000 0.0000
-6 4 26 0.0000 0.0000
-6 4 27 0.0000 0.0000
-6 4 28 0.0000 0.0000
-6 4 29 0.0000 0.0000
-6 5 -5 0.0000 0.0000
-6 5 -4 0.0000 0.0000
-6 5 -3 0.0000 0.0000
-6 5 -2 0.0000 0.0000
-6 5 -1 0.0000 0.0000
-6 5 0 0.0000 0.0000
-6 5 1 0.0000 0.0000
-6 5 2 0.0000 0.0000
-6 5 3 0.0000 0.0000
-6 5 4 0.0000 0.0000
-6 5 5 0.0000 0.0000
-6 5 6 0.0000 0.0000
-6 5 7 0.0000 0.0000
-6 5 8 0.0000 0.0000
-6 5 9 0.0000 0.0000
-6 5 10 0.0000 0.0000
-6 5 11 0.0000 0.0000
-6 5 12 0.0000 0.0000
-6 5 13 0.0000 0.0000
-6 5 14 0.0000 0.0000
-6 5 15 0.0000 0.0000
-6 5 16 0.0000 0.0000
-6 5 17 0.0000 0.0000
-6 5 18 0.0000 0.0000
-6 5 19 0.0000 0.0000
-6 5 20 0.0000 0.0000
-6 5 21 0.0000 0.0000
-6 5 22 0.0000 0.0000
-6 5 23 0.0000 0.0000
-6 5 24 0.0000 0.0000
-6 5 25 0.0000 0.0000
-6 5 26 0.0000 0.0000
-6 5 27 0.0000 0.0000
-6 5 28 0.0000 0.0000
-6 5 29 0.0000 0.0000
-6 6 -5 0.0000 0.0000
-6 6 -4 0.0000 0.0000
-6 6 -3 0.0000 0.0000
-6 6 -2 0.0000 0.0000
-6 6 1 0.0000 0.0000
-6 6 2 0.0000 0.0000
-6 6 3 0.0000 0.0000
-6 6 4 0.0000 0.0000
-6 6 5 0.0000 0.0000
-6 6 6 0.0000 0.0000
-6 6 8 0.0000 0.0000
-6 6 9 0.0000 0.0000
-6 6 10 0.0000 0.0000
-6 6 12 0.0000 0.0000
-6 6 14 0.0000 0.0000
-6 6 15 0.0000 0.0000
-6 6 16 0.0000 0.0000
-6 6 17 0.0000 0.0000
-6 6 18 0.0000 0.0000
-6 6 19 0.0000 0.0000
-6 6 20 0.0000 0.0000
-6 6 21 0.0000 0.0000
-6 6 22 0.0000 0.0000
-6 6 23 0.0000 0.0000
-6 6 24 0.0000 0.0000
-6 6 25 0.0000 0.0000
-6 6 26 0.0000 0.0000
-6 6 27 0.0000 0.0000
-6 6 28 0.0000 0.0000
-6 7 -5 0.0000 0.0000
-6 7 -4 0.0000 0.0000
-6 7 -3 0.0000 0.0000
-6 7 -2 0.0000 0.0000
-6 7 0 0.0000 0.0000
-6 7 1 0.0000 0.0000
-6 7 2 0.0000 0.0000
-6 7 3 0.0000 0.0000
-6 7 4 0.0000 0.0000
-6 7 5 0.0000 0.0000
-6 7 6 0.0000 0.0000
-6 7 7 0.0000 0.0000
-6 7 8 0.0000 0.0000
-6 7 9 0.0000 0.0000
-6 7 11 0.0000 0.0000
-6 7 12 0.0000 0.0000
-6 7 13 0.0000 0.0000
-6 7 14 0.0000 0.0000
-6 7 15 0.0000 0.0000
-6 7 16 0.0000 0.0000
-6 7 17 0.0000 0.0000
-6 7 18 0.0000 0.0000
-6 7 19 0.0000 0.0000
-6 7 20 0.0000 0.0000
-6 7 21 0.0000 0.0000
-6 7 22 0.0000 0.0000
-6 7 23 0.0000 0.0000
-6 7 24 0.0000 0.0000
-6 7 25 0.0000 0.0000
-6 7 26 0.0000 0.0000
-6 7 27 0.0000 0.0000
-6 8 -5 0.0000 0.0000
-6 8 -4 0.0000 0.0000
-6 8 -3 0.0000 0.0000
-6 8 -2 0.0000 0.0000
-6 8 0 0.0000 0.0000
-6 8 1 0.0000 0.0000
-6 8 3 0.0000 0.0000
-6 8 4 0.0000 0.0000
-6 8 5 0.0000 0.0000
-6 8 6 0.0000 0.0000
-6 8 7 0.0000 0.0000
-6 8 8 0.0000 0.0000
-6 8 9 0.0000 0.0000
-6 8 10 0.0000 0.0000
-6 8 11 0.0000 0.0000
-6 8 12 0.0000 0.0000
-6 8 13 0.0000 0.0000
-6 8 14 0.0000 0.0000
-6 8 15 0.0000 0.0000
-6 8 16 0.0000 0.0000
-6 8 17 0.0000 0.0000
-6 8 18 0.0000 0.0000
-6 8 19 0.0000 0.0000
-6 8 20 0.0000 0.0000
-6 8 21 0.0000 0.0000
-6 8 22 0.0000 0.0000
-6 8 23 0.0000 0.0000
-6 8 24 0.0000 0.0000
-6 8 25 0.0000 0.0000
-6 8 26 0.0000 0.0000
-6 9 -5 0.0000 0.0000
-6 9 -4 0.0000 0.0000
-6 9 -3 0.0000 0.0000
-6 9 -2 0.0000 0.0000
-6 9 -1 0.0000 0.0000
-6 9 0 0.0000 0.0000
-6 9 1 0.0000 0.0000
-6 9 2 0.0000 0.0000
-6 9 3 0.0000 0.0000
-6 9 4 0.0000 0.0000
-6 9 5 0.0000 0.0000
-6 9 6 0.0000 0.0000
-6 9 7 0.0000 0.0000
-6 9 8 0.0000 0.0000
-6 9 9 0.0000 0.0000
-6 9 10 0.0000 0.0000
-6 9 11 0.0000 0.0000
-6 9 12 0.0000 0.0000
-6 9 13 0.0000 0.0000
-6 9 14 0.0000 0.0000
-6 9 15 0.0000 0.0000
-6 9 16 0.0000 0.0000
-6 9 17 0.0000 0.0000
-6 9 18 0.0000 0.0000
-6 9 19 0.0000 0.0000
-6 9 20 0.0000 0.0000
-6 9 21 0.0000 0.0000
-6 9 22 0.0000 0.0000
-6 9 23 0.0000 0.0000
-6 9 24 0.0000 0.0000
-6 9 25 0.0000 0.0000
-6 10 -5 0.0000 0.0000
-6 10 -4 0.0000 0.0000
-6 10 -3 0.0000 0.0000
-6 10 -2 0.0000 0.0000
-6 10 -1 0.0000 0.0000
-6 10 1 0.0000 0.0000
-6 10 2 0.0000 0.0000
-6 10 3 0.0000 0.0000
-6 10 4 0.0000 0.0000
-6 10 5 0.0000 0.0000
-6 10 6 0.0000 0.0000
-6 10 7 0.0000 0.0000
-6 10 8 0.0000 0.0000
-6 10 9 0.0000 0.0000
-6 10 10 0.0000 0.0000
-6 10 11 0.0000 0.0000
-6 10 12 0.0000 0.0000
-6 10 13 0.0000 0.0000
-6 10 14 0.0000 0.0000
-6 10 15 0.0000 0.0000
-6 10 16 0.0000 0.0000
-6 10 17 0.0000 0.0000
-6 10 18 0.0000 0.0000
-6 10 19 0.0000 0.0000
-6 10 20 0.0000 0.0000
-6 10 21 0.0000 0.0000
-6 10 22 0.0000 0.0000
-6 10 23 0.0000 0.0000
-6 10 24 0.0000 0.0000
-6 11 -5 0.0000 0.0000
-6 11 -4 0.0000 0.0000
-6 11 -3 0.0000 0.0000
-6 11 -2 0.0000 0.0000
-6 11 -1 0.0000 0.0000
-6 11 0 0.0000 0.0000
-6 11 1 0.0000 0.0000
-6 11 2 0.0000 0.0000
-6 11 3 0.0000 0.0000
-6 11 4 0.0000 0.0000
-6 11 5 0.0000 0.0000
-6 11 6 0.0000 0.0000
-6 11 7 0.0000 0.0000
-6 11 8 0.0000 0.0000
-6 11 9 0.0000 0.0000
-6 11 10 0.0000 0.0000
-6 11 11 0.0000 0.0000
-6 11 12 0.0000 0.0000
-6 11 13 0.0000 0.0000
-6 11 14 0.0000 0.0000
-6 11 15 0.0000 0.0000
-6 11 16 0.0000 0.0000
-6 11 17 0.0000 0.0000
-6 11 18 0.0000 0.0000
-6 11 19 0.0000 0.0000
-6 11 20 0.0000 0.0000
-6 11 21 0.0000 0.0000
-6 11 22 0.0000 0.0000
-6 12 -4 0.0000 0.0000
-6 12 -3 0.0000 0.0000
-6 12 -2 0.0000 0.0000
-6 12 -1 0.0000 0.0000
-6 12 0 0.0000 0.0000
-6 12 1 0.0000 0.0000
-6 12 2 0.0000 0.0000
-6 12 4 0.0000 0.0000
-6 12 5 0.0000 0.0000
-6 12 6 0.0000 0.0000
-6 12 7 0.0000 0.0000
-6 12 8 0.0000 0.0000
-6 12 9 0.0000 0.0000
-6 12 10 0.0000 0.0000
-6 12 11 0.0000 0.0000
-6 12 12 0.0000 0.0000
-6 12 13 0.0000 0.0000
-6 12 14 0.0000 0.0000
-6 12 15 0.0000 0.0000
-6 12 16 0.0000 0.0000
-6 12 17 0.0000 0.0000
-6 12 18 0.0000 0.0000
-6 12 19 0.0000 0.0000
-6 12 20 0.0000 0.0000
-6 13 -5 0.0000 0.0000
-6 13 -4 0.0000 0.0000
-6 13 -3 0.0000 0.0000
-6 13 -2 0.0000 0.0000
-6 13 -1 0.0000 0.0000
-6 13 0 0.0000 0.0000
-6 13 1 0.0000 0.0000
-6 13 2 0.0000 0.0000
-6 13 3 0.0000 0.0000
-6 13 4 0.0000 0.0000
-6 13 5 0.0000 0.0000
-6 13 6 0.0000 0.0000
-6 13 7 0.0000 0.0000
-6 13 8 0.0000 0.0000
-6 13 9 0.0000 0.0000
-6 13 10 0.0000 0.0000
-6 13 11 0.0000 0.0000
-6 13 12 0.0000 0.0000
-6 13 13 0.0000 0.0000
-6 13 14 0.0000 0.0000
-6 13 15 0.0000 0.0000
-6 13 16 0.0000 0.0000
-6 13 17 0.0000 0.0000
-6 13 18 0.0000 0.0000
-6 14 -5 0.0000 0.0000
-6 14 -4 0.0000 0.0000
-6 14 -3 0.0000 0.0000
-6 14 -2 0.0000 0.0000
-6 14 -1 0.0000 0.0000
-6 14 0 0.0000 0.0000
-6 14 1 0.0000 0.0000
-6 14 2 0.0000 0.0000
-6 14 3 0.0000 0.0000
-6 14 4 0.0000 0.0000
-6 14 5 0.0000 0.0000
-6 14 6 0.0000 0.0000
-6 14 7 0.0000 0.0000
-6 14 8 0.0000 0.0000
-6 14 9 0.0000 0.0000
-6 14 10 0.0000 0.0000
-6 14 11 0.0000 0.0000
-6 14 12 0.0000 0.0000
-6 14 13 0.0000 0.0000
-6 14 14 0.0000 0.0000
-6 15 -5 0.0000 0.0000
-6 15 -4 0.0000 0.0000
-6 15 -3 0.0000 0.0000
-6 15 -2 0.0000 0.0000
-6 15 -1 0.0000 0.0000
-6 15 0 0.0000 0.0000
-6 15 1 0.0000 0.0000
-6 15 2 0.0000 0.0000
-6 15 3 0.0000 0.0000
-6 15 4 0.0000 0.0000
-6 15 5 0.0000 0.0000
-6 15 6 0.0000 0.0000
-6 15 7 0.0000 0.0000
-6 15 8 0.0000 0.0000
-6 15 9 0.0000 0.0000
-6 15 10 0.0000 0.0000
-5 0 -3 0.0000 0.0000
-5 0 1 0.0000 0.0000
-5 0 3 0.0000 0.0000
-5 0 5 0.0000 0.0000
-5 0 7 0.0000 0.0000
-5 0 9 0.0000 0.0000
-5 0 11 0.0000 0.0000
-5 0 13 0.0000 0.0000
-5 0 15 0.0000 0.0000
-5 0 17 0.0000 0.0000
-5 0 19 0.0000 0.0000
-5 0 21 0.0000 0.0000
-5 0 23 0.0000 0.0000
-5 0 25 0.0000 0.0000
-5 0 27 0.0000 0.0000
-5 0 29 0.0000 0.0000
-5 0 31 0.0000 0.0000
-5 1 -2 0.0000 0.0000
-5 1 -1 0.0000 0.0000
-5 1 0 0.0000 0.0000
-5 1 1 0.0000 0.0000
-5 1 2 0.0000 0.0000
-5 1 3 0.0000 0.0000
-5 1 4 0.0000 0.0000
-5 1 7 0.0000 0.0000
-5 1 9 0.0000 0.0000
-5 1 10 0.0000 0.0000
-5 1 11 0.0000 0.0000
-5 1 12 0.0000 0.0000
-5 1 13 0.0000 0.0000
-5 1 14 0.0000 0.0000
-5 1 15 0.0000 0.0000
-5 1 16 0.0000 0.0000
-5 1 17 0.0000 0.0000
-5 1 18 0.0000 0.0000
-5 1 20 0.0000 0.0000
-5 1 21 0.0000 0.0000
-5 1 22 0.0000 0.0000
-5 1 23 0.0000 0.0000
-5 1 24 0.0000 0.0000
-5 1 25 0.0000 0.0000
-5 1 26 0.0000 0.0000
-5 1 27 0.0000 0.0000
-5 1 28 0.0000 0.0000
-5 1 29 0.0000 0.0000
-5 1 30 0.0000 0.0000
-5 1 31 0.0000 0.0000
-5 2 -4 0.0000 0.0000
-5 2 -3 0.0000 0.0000
-5 2 -2 0.0000 0.0000
-5 2 -1 0.0000 0.0000
-5 2 0 0.0000 0.0000
-5 2 4 0.0000 0.0000
-5 2 5 0.0000 0.0000
-5 2 6 0.0000 0.0000
-5 2 7 0.0000 0.0000
-5 2 8 0.0000 0.0000
-5 2 9 0.0000 0.0000
-5 2 10 0.0000 0.0000
-5 2 11 0.0000 0.0000
-5 2 12 0.0000 0.0000
-5 2 13 0.0000 0.0000
-5 2 14 0.0000 0.0000
-5 2 15 0.0000 0.0000
-5 2 16 0.0000 0.0000
-5 2 17 0.0000 0.0000
-5 2 18 0.0000 0.0000
-5 2 19 0.0000 0.0000
-5 2 20 0.0000 0.0000
-5 2 21 0.0000 0.0000
-5 2 22 0.0000 0.0000
-5 2 23 0.0000 0.0000
-5 2 24 0.0000 0.0000
-5 2 25 0.0000 0.0000
-5 2 26 0.0000 0.0000
-5 2 27 0.0000 0.0000
-5 2 28 0.0000 0.0000
-5 2 29 0.0000 0.0000
-5 2 30 0.0000 0.0000
-5 2 31 0.0000 0.0000
-5 3 -4 0.0000 0.0000
-5 3 -3 0.0000 0.0000
-5 3 -2 0.0000 0.0000
-5 3 0 0.0000 0.0000
-5 3 1 0.0000 0.0000
-5 3 2 0.0000 0.0000
-5 3 3 0.0000 0.0000
-5 3 4 0.0000 0.0000
-5 3 5 0.0000 0.0000
-5 3 6 0.0000 0.0000
-5 3 7 0.0000 0.0000
-5 3 8 0.0000 0.0000
-5 3 10 0.0000 0.0000
-5 3 11 0.0000 0.0000
-5 3 12 0.0000 0.0000
-5 3 13 0.0000 0.0000
-5 3 14 0.0000 0.0000
-5 3 15 0.0000 0.0000
-5 3 16 0.0000 0.0000
-5 3 17 0.0000 0.0000
-5 3 18 0.0000 0.0000
-5 3 19 0.0000 0.0000
-5 3 20 0.0000 0.0000
-5 3 21 0.0000 0.0000
-5 3 22 0.0000 0.0000
-5 3 23 0.0000 0.0000
-5 3 24 0.0000 0.0000
-5 3 25 0.0000 0.0000
-5 3 26 0.0000 0.0000
-5 3 27 0.0000 0.0000
-5 3 28 0.0000 0.0000
-5 3 29 0.0000 0.0000
-5 3 30 0.0000 0.0000
-5 3 31 0.0000 0.0000
-5 4 -4 0.0000 0.0000
-5 4 -2 0.0000 0.0000
-5 4 0 0.0000 0.0000
-5 4 1 0.0000 0.0000
-5 4 2 0.0000 0.0000
-5 4 3 0.0000 0.0000
-5 4 4 0.0000 0.0000
-5 4 6 0.0000 0.0000
-5 4 7 0.0000 0.0000
-5 4 8 0.0000 0.0000
-5 4 9 0.0000 0.0000
-5 4 10 0.0000 0.0000
-5 4 11 0.0000 0.0000
-5 4 12 0.0000 0.0000
-5 4 13 0.0000 0.0000
-5 4 14 0.0000 0.0000
-5 4 15 0.0000 0.0000
-5 4 16 0.0000 0.0000
-5 4 17 0.0000 0.0000
-5 4 18 0.0000 0.0000
-5 4 19 0.0000 0.0000
-5 4 20 0.0000 0.0000
-5 4 21 0.0000 0.0000
-5 4 22 0.0000 0.0000
-5 4 23 0.0000 0.0000
-5 4 24 0.0000 0.0000
-5 4 25 0.0000 0.0000
-5 4 26 0.0000 0.0000
-5 4 27 0.0000 0.0000
-5 4 28 0.0000 0.0000
-5 4 29 0.0000 0.0000
-5 4 30 0.0000 0.0000
-5 5 -4 0.0000 0.0000
-5 5 -3 0.0000 0.0000
-5 5 -1 0.0000 0.0000
-5 5 0 0.0000 0.0000
-5 5 1 0.0000 0.0000
-5 5 2 0.0000 0.0000
-5 5 3 0.0000 0.0000
-5 5 4 0.0000 0.0000
-5 5 5 0.0000 0.0000
-5 5 7 0.0000 0.0000
-5 5 8 0.0000 0.0000
-5 5 9 0.0000 0.0000
-5 5 11 0.0000 0.0000
-5 5 12 0.0000 0.0000
-5 5 13 0.0000 0.0000
-5 5 14 0.0000 0.0000
-5 5 15 0.0000 0.0000
-5 5 16 0.0000 0.0000
-5 5 17 0.0000 0.0000
-5 5 18 0.0000 0.0000
-5 5 19 0.0000 0.0000
-5 5 20 0.0000 0.0000
-5 5 21 0.0000 0.0000
-5 5 22 0.0000 0.0000
-5 5 23 0.0000 0.0000
-5 5 24 0.0000 0.0000
-5 5 25 0.0000 0.0000
-5 5 26 0.0000 0.0000
-5 5 27 0.0000 0.0000
-5 5 28 0.0000 0.0000
-5 5 29 0.0000 0.0000
-5 5 30 0.0000 0.0000
-5 6 -3 0.0000 0.0000
-5 6 -2 0.0000 0.0000
-5 6 -1 0.0000 0.0000
-5 6 1 0.0000 0.0000
-5 6 3 0.0000 0.0000
-5 6 5 0.0000 0.0000
-5 6 7 0.0000 0.0000
-5 6 8 0.0000 0.0000
-5 6 10 0.0000 0.0000
-5 6 11 0.0000 0.0000
-5 6 12 0.0000 0.0000
-5 6 13 0.0000 0.0000
-5 6 14 0.0000 0.0000
-5 6 15 0.0000 0.0000
-5 6 16 0.0000 0.0000
-5 6 17 0.0000 0.0000
-5 6 18 0.0000 0.0000
-5 6 19 0.0000 0.0000
-5 6 21 0.0000 0.0000
-5 6 23 0.0000 0.0000
-5 6 24 0.0000 0.0000
-5 6 25 0.0000 0.0000
-5 6 26 0.0000 0.0000
-5 6 27 0.0000 0.0000
-5 6 29 0.0000 0.0000
-5 7 -4 0.0000 0.0000
-5 7 -3 0.0000 0.0000
-5 7 -2 0.0000 0.0000
-5 7 -1 0.0000 0.0000
-5 7 0 0.0000 0.0000
-5 7 1 0.0000 0.0000
-5 7 2 0.0000 0.0000
-5 7 3 0.0000 0.0000
-5 7 4 0.0000 0.0000
-5 7 5 0.0000 0.0000
-5 7 6 0.0000 0.0000
-5 7 7 0.0000 0.0000
-5 7 9 0.0000 0.0000
-5 7 12 0.0000 0.0000
-5 7 13 0.0000 0.0000
-5 7 14 0.0000 0.0000
-5 7 16 0.0000 0.0000
-5 7 18 0.0000 0.0000
-5 7 20 0.0000 0.0000
-5 7 21 0.0000 0.0000
-5 7 22 0.0000 0.0000
-5 7 23 0.0000 0.0000
-5 7 24 0.0000 0.0000
-5 7 25 0.0000 0.0000
-5 7 26 0.0000 0.0000
-5 7 27 0.0000 0.0000
-5 7 28 0.0000 0.0000
-5 8 -4 0.0000 0.0000
-5 8 -2 0.0000 0.0000
-5 8 -1 0.0000 0.0000
-5 8 0 0.0000 0.0000
-5 8 2 0.0000 0.0000
-5 8 3 0.0000 0.0000
-5 8 4 0.0000 0.0000
-5 8 6 0.0000 0.0000
-5 8 8 0.0000 0.0000
-5 8 9 0.0000 0.0000
-5 8 12 0.0000 0.0000
-5 8 13 0.0000 0.0000
-5 8 14 0.0000 0.0000
-5 8 15 0.0000 0.0000
-5 8 16 0.0000 0.0000
-5 8 17 0.0000 0.0000
-5 8 18 0.0000 0.0000
-5 8 19 0.0000 0.0000
-5 8 20 0.0000 0.0000
-5 8 21 0.0000 0.0000
-5 8 22 0.0000 0.0000
-5 8 24 0.0000 0.0000
-5 8 25 0.0000 0.0000
-5 8 26 0.0000 0.0000
-5 8 27 0.0000 0.0000
-5 9 -4 0.0000 0.0000
-5 9 -3 0.0000 0.0000
-5 9 -2 0.0000 0.0000
-5 9 -1 0.0000 0.0000
-5 9 0 0.0000 0.0000
-5 9 1 0.0000 0.0000
-5 9 2 0.0000 0.0000
-5 9 3 0.0000 0.0000
-5 9 4 0.0000 0.0000
-5 9 5 0.0000 0.0000
-5 9 6 0.0000 0.0000
-5 9 7 0.0000 0.0000
-5 9 8 0.0000 0.0000
-5 9 9 0.0000 0.0000
-5 9 10 0.0000 0.0000
-5 9 11 0.0000 0.0000
-5 9 12 0.0000 0.0000
-5 9 13 0.0000 0.0000
-5 9 14 0.0000 0.0000
-5 9 15 0.0000 0.0000
-5 9 16 0.0000 0.0000
-5 9 17 0.0000 0.0000
-5 9 18 0.0000 0.0000
-5 9 19 0.0000 0.0000
-5 9 20 0.0000 0.0000
-5 9 21 0.0000 0.0000
-5 9 22 0.0000 0.0000
-5 9 23 0.0000 0.0000
-5 9 24 0.0000 0.0000
-5 9 25 0.0000 0.0000
-5 9 26 0.0000 0.0000
-5 10 -3 0.0000 0.0000
-5 10 -1 0.0000 0.0000
-5 10 1 0.0000 0.0000
-5 10 3 0.0000 0.0000
-5 10 5 0.0000 0.0000
-5 10 7 0.0000 0.0000
-5 10 8 0.0000 0.0000
-5 10 9 0.0000 0.0000
-5 10 10 0.0000 0.0000
-5 10 11 0.0000 0.0000
-5 10 12 0.0000 0.0000
-5 10 13 0.0000 0.0000
-5 10 14 0.0000 0.0000
-5 10 15 0.0000 0.0000
-5 10 16 0.0000 0.0000
-5 10 17 0.0000 0.0000
-5 10 18 0.0000 0.0000
-5 10 19 0.0000 0.0000
-5 10 20 0.0000 0.0000
-5 10 21 0.0000 0.0000
-5 10 22 0.0000 0.0000
-5 10 23 0.0000 0.0000
-5 10 24 0.0000 0.0000
-5 10 25 0.0000 0.0000
-5 11 -4 0.0000 0.0000
-5 11 -3 0.0000 0.0000
-5 11 -2 0.0000 0.0000
-5 11 -1 0.0000 0.0000
-5 11 0 0.0000 0.0000
-5 11 1 0.0000 0.0000
-5 11 2 0.0000 0.0000
-5 11 3 0.0000 0.0000
-5 11 4 0.0000 0.0000
-5 11 5 0.0000 0.0000
-5 11 6 0.0000 0.0000
-5 11 7 0.0000 0.0000
-5 11 8 0.0000 0.0000
-5 11 9 0.0000 0.0000
-5 11 10 0.0000 0.0000
-5 11 11 0.0000 0.0000
-5 11 12 0.0000 0.0000
-5 11 13 0.0000 0.0000
-5 11 14 0.0000 0.0000
-5 11 15 0.0000 0.0000
-5 11 16 0.0000 0.0000
-5 11 17 0.0000 0.0000
-5 11 18 0.0000 0.0000
-5 11 19 0.0000 0.0000
-5 11 20 0.0000 0.0000
-5 11 21 0.0000 0.0000
-5 11 22 0.0000 0.0000
-5 11 23 0.0000 0.0000
-5 12 -4 0.0000 0.0000
-5 12 -3 0.0000 0.0000
-5 12 -1 0.0000 0.0000
-5 12 0 0.0000 0.0000
-5 12 2 0.0000 0.0000
-5 12 3 0.0000 0.0000
-5 12 4 0.0000 0.0000
-5 12 6 0.0000 0.0000
-5 12 7 0.0000 0.0000
-5 12 8 0.0000 0.0000
-5 12 9 0.0000 0.0000
-5 12 10 0.0000 0.0000
-5 12 11 0.0000 0.0000
-5 12 12 0.0000 0.0000
-5 12 13 0.0000 0.0000
-5 12 14 0.0000 0.0000
-5 12 15 0.0000 0.0000
-5 12 16 0.0000 0.0000
-5 12 17 0.0000 0.0000
-5 12 18 0.0000 0.0000
-5 12 19 0.0000 0.0000
-5 12 20 0.0000 0.0000
-5 12 21 0.0000 0.0000
-5 13 -4 0.0000 0.0000
-5 13 -3 0.0000 0.0000
-5 13 -2 0.0000 0.0000
-5 13 -1 0.0000 0.0000
-5 13 0 0.0000 0.0000
-5 13 1 0.0000 0.0000
-5 13 2 0.0000 0.0000
-5 13 3 0.0000 0.0000
-5 13 4 0.0000 0.0000
-5 13 5 0.0000 0.0000
-5 13 6 0.0000 0.0000
-5 13 7 0.0000 0.0000
-5 13 8 0.0000 0.0000
-5 13 9 0.0000 0.0000
-5 13 10 0.0000 0.0000
-5 13 11 0.0000 0.0000
-5 13 12 0.0000 0.0000
-5 13 13 0.0000 0.0000
-5 13 14 0.0000 0.0000
-5 13 15 0.0000 0.0000
-5 13 16 0.0000 0.0000
-5 13 17 0.0000 0.0000
-5 13 18 0.0000 0.0000
-5 13 19 0.0000 0.0000
-5 14 -4 0.0000 0.0000
-5 14 -3 0.0000 0.0000
-5 14 -2 0.0000 0.0000
-5 14 -1 0.0000 0.0000
-5 14 0 0.0000 0.0000
-5 14 1 0.0000 0.0000
-5 14 2 0.0000 0.0000
-5 14 3 0.0000 0.0000
-5 14 4 0.0000 0.0000
-5 14 5 0.0000 0.0000
-5 14 6 0.0000 0.0000
-5 14 7 0.0000 0.0000
-5 14 8 0.0000 0.0000
-5 14 9 0.0000 0.0000
-5 14 10 0.0000 0.0000
-5 14 11 0.0000 0.0000
-5 14 12 0.0000 0.0000
-5 14 13 0.0000 0.0000
-5 14 14 0.0000 0.0000
-5 14 15 0.0000 0.0000
-5 14 16 0.0000 0.0000
-5 15 -4 0.0000 0.0000
-5 15 -3 0.0000 0.0000
-5 15 -2 0.0000 0.0000
-5 15 -1 0.0000 0.0000
-5 15 0 0.0000 0.0000
-5 15 1 0.0000 0.0000
-5 15 2 0.0000 0.0000
-5 15 3 0.0000 0.0000
-5 15 4 0.0000 0.0000
-5 15 5 0.0000 0.0000
-5 15 6 0.0000 0.0000
-5 15 7 0.0000 0.0000
-5 15 8 0.0000 0.0000
-5 15 9 0.0000 0.0000
-5 15 10 0.0000 0.0000
-5 15 11 0.0000 0.0000
-5 15 12 0.0000 0.0000
-5 15 13 0.0000 0.0000
-5 16 -4 0.0000 0.0000
-5 16 -3 0.0000 0.0000
-5 16 -2 0.0000 0.0000
-5 16 -1 0.0000 0.0000
-5 16 0 0.0000 0.0000
-5 16 1 0.0000 0.0000
-5 16 2 0.0000 0.0000
-5 16 3 0.0000 0.0000
-5 16 4 0.0000 0.0000
-5 16 5 0.0000 0.0000
-5 16 6 0.0000 0.0000
-5 16 7 0.0000 0.0000
-4 0 -2 0.0000 0.0000
-4 0 0 0.0000 0.0000
-4 0 2 0.0000 0.0000
-4 0 8 0.0000 0.0000
-4 0 10 0.0000 0.0000
-4 0 12 0.0000 0.0000
-4 0 14 0.0000 0.0000
-4 0 16 0.0000 0.0000
-4 0 18 0.0000 0.0000
-4 0 20 0.0000 0.0000
-4 0 22 0.0000 0.0000
-4 0 24 0.0000 0.0000
-4 0 26 0.0000 0.0000
-4 0 28 0.0000 0.0000
-4 0 30 0.0000 0.0000
-4 0 32 0.0000 0.0000
-4 1 -3 0.0000 0.0000
-4 1 -2 0.0000 0.0000
-4 1 -1 0.0000 0.0000
-4 1 0 0.0000 0.0000
-4 1 1 0.0000 0.0000
-4 1 4 0.0000 0.0000
-4 1 6 0.0000 0.0000
-4 1 8 0.0000 0.0000
-4 1 9 0.0000 0.0000
-4 1 10 0.0000 0.0000
-4 1 11 0.0000 0.0000
-4 1 12 0.0000 0.0000
-4 1 13 0.0000 0.0000
-4 1 14 0.0000 0.0000
-4 1 15 0.0000 0.0000
-4 1 16 0.0000 0.0000
-4 1 17 0.0000 0.0000
-4 1 18 0.0000 0.0000
-4 1 19 0.0000 0.0000
-4 1 20 0.0000 0.0000
-4 1 21 0.0000 0.0000
-4 1 22 0.0000 0.0000
-4 1 23 0.0000 0.0000
-4 1 24 0.0000 0.0000
-4 1 25 0.0000 0.0000
-4 1 26 0.0000 0.0000
-4 1 27 0.0000 0.0000
-4 1 28 0.0000 0.0000
-4 1 29 0.0000 0.0000
-4 1 30 0.0000 0.0000
-4 1 31 0.0000 0.0000
-4 1 32 0.0000 0.0000
-4 2 -3 0.0000 0.0000
-4 2 -2 0.0000 0.0000
-4 2 -1 0.0000 0.0000
-4 2 1 0.0000 0.0000
-4 2 5 0.0000 0.0000
-4 2 7 0.0000 0.0000
-4 2 9 0.0000 0.0000
-4 2 11 0.0000 0.0000
-4 2 12 0.0000 0.0000
-4 2 13 0.0000 0.0000
-4 2 14 0.0000 0.0000
-4 2 15 0.0000 0.0000
-4 2 16 0.0000 0.0000
-4 2 17 0.0000 0.0000
-4 2 18 0.0000 0.0000
-4 2 19 0.0000 0.0000
-4 2 20 0.0000 0.0000
-4 2 21 0.0000 0.0000
-4 2 22 0.0000 0.0000
-4 2 23 0.0000 0.0000
-4 2 24 0.0000 0.0000
-4 2 25 0.0000 0.0000
-4 2 26 0.0000 0.0000
-4 2 27 0.0000 0.0000
-4 2 28 0.0000 0.0000
-4 2 29 0.0000 0.0000
-4 2 30 0.0000 0.0000
-4 2 31 0.0000 0.0000
-4 2 32 0.0000 0.0000
-4 3 -3 0.0000 0.0000
-4 3 -2 0.0000 0.0000
-4 3 -1 0.0000 0.0000
-4 3 1 0.0000 0.0000
-4 3 2 0.0000 0.0000
-4 3 3 0.0000 0.0000
-4 3 5 0.0000 0.0000
-4 3 6 0.0000 0.0000
-4 3 7 0.0000 0.0000
-4 3 8 0.0000 0.0000
-4 3 11 0.0000 0.0000
-4 3 13 0.0000 0.0000
-4 3 14 0.0000 0.0000
-4 3 15 0.0000 0.0000
-4 3 16 0.0000 0.0000
-4 3 17 0.0000 0.0000
-4 3 18 0.0000 0.0000
-4 3 19 0.0000 0.0000
-4 3 20 0.0000 0.0000
-4 3 21 0.0000 0.0000
-4 3 22 0.0000 0.0000
-4 3 23 0.0000 0.0000
-4 3 24 0.0000 0.0000
-4 3 25 0.0000 0.0000
-4 3 26 0.0000 0.0000
-4 3 27 0.0000 0.0000
-4 3 28 0.0000 0.0000
-4 3 29 0.0000 0.0000
-4 3 30 0.0000 0.0000
-4 3 31 0.0000 0.0000
-4 4 -2 0.0000 0.0000
-4 4 0 0.0000 0.0000
-4 4 2 0.0000 0.0000
-4 4 3 0.0000 0.0000
-4 4 4 0.0000 0.0000
-4 4 6 0.0000 0.0000
-4 4 8 0.0000 0.0000
-4 4 9 0.0000 0.0000
-4 4 10 0.0000 0.0000
-4 4 11 0.0000 0.0000
-4 4 12 0.0000 0.0000
-4 4 13 0.0000 0.0000
-4 4 14 0.0000 0.0000
-4 4 15 0.0000 0.0000
-4 4 17 0.0000 0.0000
-4 4 18 0.0000 0.0000
-4 4 19 0.0000 0.0000
-4 4 20 0.0000 0.0000
-4 4 21 0.0000 0.0000
-4 4 22 0.0000 0.0000
-4 4 23 0.0000 0.0000
-4 4 24 0.0000 0.0000
-4 4 25 0.0000 0.0000
-4 4 26 0.0000 0.0000
-4 4 27 0.0000 0.0000
-4 4 28 0.0000 0.0000
-4 4 29 0.0000 0.0000
-4 4 30 0.0000 0.0000
-4 4 31 0.0000 0.0000
-4 5 -3 0.0000 0.0000
-4 5 0 0.0000 0.0000
-4 5 1 0.0000 0.0000
-4 5 2 0.0000 0.0000
-4 5 3 0.0000 0.0000
-4 5 4 0.0000 0.0000
-4 5 6 0.0000 0.0000
-4 5 7 0.0000 0.0000
-4 5 8 0.0000 0.0000
-4 5 9 0.0000 0.0000
-4 5 10 0.0000 0.0000
-4 5 11 0.0000 0.0000
-4 5 12 0.0000 0.0000
-4 5 13 0.0000 0.0000
-4 5 14 0.0000 0.0000
-4 5 15 0.0000 0.0000
-4 5 16 0.0000 0.0000
-4 5 18 0.0000 0.0000
-4 5 19 0.0000 0.0000
-4 5 20 0.0000 0.0000
-4 5 21 0.0000 0.0000
-4 5 22 0.0000 0.0000
-4 5 23 0.0000 0.0000
-4 5 24 0.0000 0.0000
-4 5 25 0.0000 0.0000
-4 5 26 0.0000 0.0000
-4 5 27 0.0000 0.0000
-4 5 28 0.0000 0.0000
-4 5 29 0.0000 0.0000
-4 5 30 0.0000 0.0000
-4 6 -3 0.0000 0.0000
-4 6 -2 0.0000 0.0000
-4 6 -1 0.0000 0.0000
-4 6 0 0.0000 0.0000
-4 6 2 0.0000 0.0000
-4 6 3 0.0000 0.0000
-4 6 4 0.0000 0.0000
-4 6 5 0.0000 0.0000
-4 6 6 0.0000 0.0000
-4 6 7 0.0000 0.0000
-4 6 10 0.0000 0.0000
-4 6 12 0.0000 0.0000
-4 6 13 0.0000 0.0000
-4 6 14 0.0000 0.0000
-4 6 16 0.0000 0.0000
-4 6 18 0.0000 0.0000
-4 6 19 0.0000 0.0000
-4 6 20 0.0000 0.0000
-4 6 22 0.0000 0.0000
-4 6 23 0.0000 0.0000
-4 6 24 0.0000 0.0000
-4 6 25 0.0000 0.0000
-4 6 26 0.0000 0.0000
-4 6 27 0.0000 0.0000
-4 6 28 0.0000 0.0000
-4 6 29 0.0000 0.0000
-4 6 30 0.0000 0.0000
-4 7 -3 0.0000 0.0000
-4 7 -2 0.0000 0.0000
-4 7 -1 0.0000 0.0000
-4 7 0 0.0000 0.0000
-4 7 1 0.0000 0.0000
-4 7 2 0.0000 0.0000
-4 7 3 0.0000 0.0000
-4 7 5 0.0000 0.0000
-4 7 7 0.0000 0.0000
-4 7 8 0.0000 0.0000
-4 7 11 0.0000 0.0000
-4 7 12 0.0000 0.0000
-4 7 13 0.0000 0.0000
-4 7 15 0.0000 0.0000
-4 7 16 0.0000 0.0000
-4 7 17 0.0000 0.0000
-4 7 18 0.0000 0.0000
-4 7 19 0.0000 0.0000
-4 7 20 0.0000 0.0000
-4 7 21 0.0000 0.0000
-4 7 22 0.0000 0.0000
-4 7 23 0.0000 0.0000
-4 7 24 0.0000 0.0000
-4 7 25 0.0000 0.0000
-4 7 26 0.0000 0.0000
-4 7 27 0.0000 0.0000
-4 7 28 0.0000 0.0000
-4 7 29 0.0000 0.0000
-4 8 -3 0.0000 0.0000
-4 8 -2 0.0000 0.0000
-4 8 -1 0.0000 0.0000
-4 8 0 0.0000 0.0000
-4 8 2 0.0000 0.0000
-4 8 3 0.0000 0.0000
-4 8 4 0.0000 0.0000
-4 8 5 0.0000 0.0000
-4 8 7 0.0000 0.0000
-4 8 8 0.0000 0.0000
-4 8 9 0.0000 0.0000
-4 8 11 0.0000 0.0000
-4 8 13 0.0000 0.0000
-4 8 14 0.0000 0.0000
-4 8 15 0.0000 0.0000
-4 8 16 0.0000 0.0000
-4 8 17 0.0000 0.0000
-4 8 18 0.0000 0.0000
-4 8 19 0.0000 0.0000
-4 8 20 0.0000 0.0000
-4 8 21 0.0000 0.0000
-4 8 22 0.0000 0.0000
-4 8 23 0.0000 0.0000
-4 8 24 0.0000 0.0000
-4 8 25 0.0000 0.0000
-4 8 26 0.0000 0.0000
-4 8 27 0.0000 0.0000
-4 8 28 0.0000 0.0000
-4 9 -3 0.0000 0.0000
-4 9 -2 0.0000 0.0000
-4 9 -1 0.0000 0.0000
-4 9 0 0.0000 0.0000
-4 9 1 0.0000 0.0000
-4 9 2 0.0000 0.0000
-4 9 3 0.0000 0.0000
-4 9 4 0.0000 0.0000
-4 9 5 0.0000 0.0000
-4 9 6 0.0000 0.0000
-4 9 7 0.0000 0.0000
-4 9 8 0.0000 0.0000
-4 9 9 0.0000 0.0000
-4 9 10 0.0000 0.0000
-4 9 11 0.0000 0.0000
-4 9 12 0.0000 0.0000
-4 9 13 0.0000 0.0000
-4 9 14 0.0000 0.0000
-4 9 15 0.0000 0.0000
-4 9 16 0.0000 0.0000
-4 9 17 0.0000 0.0000
-4 9 18 0.0000 0.0000
-4 9 19 0.0000 0.0000
-4 9 20 0.0000 0.0000
-4 9 21 0.0000 0.0000
-4 9 22 0.0000 0.0000
-4 9 23 0.0000 0.0000
-4 9 24 0.0000 0.0000
-4 9 25 0.0000 0.0000
-4 9 26 0.0000 0.0000
-4 9 27 0.0000 0.0000
-4 10 -3 0.0000 0.0000
-4 10 -2 0.0000 0.0000
-4 10 -1 0.0000 0.0000
-4 10 0 0.0000 0.0000
-4 10 1 0.0000 0.0000
-4 10 2 0.0000 0.0000
-4 10 3 0.0000 0.0000
-4 10 4 0.0000 0.0000
-4 10 5 0.0000 0.0000
-4 10 6 0.0000 0.0000
-4 10 7 0.0000 0.0000
-4 10 8 0.0000 0.0000
-4 10 9 0.0000 0.0000
-4 10 10 0.0000 0.0000
-4 10 11 0.0000 0.0000
-4 10 12 0.0000 0.0000
-4 10 13 0.0000 0.0000
-4 10 14 0.0000 0.0000
-4 10 15 0.0000 0.0000
-4 10 16 0.0000 0.0000
-4 10 17 0.0000 0.0000
-4 10 18 0.0000 0.0000
-4 10 19 0.0000 0.0000
-4 10 20 0.0000 0.0000
-4 10 21 0.0000 0.0000
-4 10 22 0.0000 0.0000
-4 10 23 0.0000 0.0000
-4 10 24 0.0000 0.0000
-4 10 25 0.0000 0.0000
-4 10 26 0.0000 0.0000
-4 11 -3 0.0000 0.0000
-4 11 -2 0.0000 0.0000
-4 11 -1 0.0000 0.0000
-4 11 0 0.0000 0.0000
-4 11 1 0.0000 0.0000
-4 11 2 0.0000 0.0000
-4 11 3 0.0000 0.0000
-4 11 4 0.0000 0.0000
-4 11 5 0.0000 0.0000
-4 11 6 0.0000 0.0000
-4 11 8 0.0000 0.0000
-4 11 9 0.0000 0.0000
-4 11 10 0.0000 0.0000
-4 11 11 0.0000 0.0000
-4 11 12 0.0000 0.0000
-4 11 13 0.0000 0.0000
-4 11 14 0.0000 0.0000
-4 11 15 0.0000 0.0000
-4 11 16 0.0000 0.0000
-4 11 17 0.0000 0.0000
-4 11 18 0.0000 0.0000
-4 11 19 0.0000 0.0000
-4 11 20 0.0000 0.0000
-4 11 21 0.0000 0.0000
-4 11 22 0.0000 0.0000
-4 11 23 0.0000 0.0000
-4 11 24 0.0000 0.0000
-4 12 -3 0.0000 0.0000
-4 12 -2 0.0000 0.0000
-4 12 0 0.0000 0.0000
-4 12 2 0.0000 0.0000
-4 12 4 0.0000 0.0000
-4 12 5 0.0000 0.0000
-4 12 6 0.0000 0.0000
-4 12 7 0.0000 0.0000
-4 12 8 0.0000 0.0000
-4 12 9 0.0000 0.0000
-4 12 10 0.0000 0.0000
-4 12 11 0.0000 0.0000
-4 12 12 0.0000 0.0000
-4 12 13 0.0000 0.0000
-4 12 14 0.0000 0.0000
-4 12 15 0.0000 0.0000
-4 12 16 0.0000 0.0000
-4 12 17 0.0000 0.0000
-4 12 18 0.0000 0.0000
-4 12 19 0.0000 0.0000
-4 12 20 0.0000 0.0000
-4 12 21 0.0000 0.0000
-4 12 22 0.0000 0.0000
-4 13 -3 0.0000 0.0000
-4 13 -2 0.0000 0.0000
-4 13 -1 0.0000 0.0000
-4 13 0 0.0000 0.0000
-4 13 1 0.0000 0.0000
-4 13 2 0.0000 0.0000
-4 13 3 0.0000 0.0000
-4 13 4 0.0000 0.0000
-4 13 5 0.0000 0.0000
-4 13 6 0.0000 0.0000
-4 13 7 0.0000 0.0000
-4 13 8 0.0000 0.0000
-4 13 9 0.0000 0.0000
-4 13 10 0.0000 0.0000
-4 13 11 0.0000 0.0000
-4 13 12 0.0000 0.0000
-4 13 13 0.0000 0.0000
-4 13 14 0.0000 0.0000
-4 13 15 0.0000 0.0000
-4 13 16 0.0000 0.0000
-4 13 17 0.0000 0.0000
-4 13 18 0.0000 0.0000
-4 13 19 0.0000 0.0000
-4 13 20 0.0000 0.0000
-4 14 -3 0.0000 0.0000
-4 14 -2 0.0000 0.0000
-4 14 -1 0.0000 0.0000
-4 14 1 0.0000 0.0000
-4 14 3 0.0000 0.0000
-4 14 4 0.0000 0.0000
-4 14 5 0.0000 0.0000
-4 14 7 0.0000 0.0000
-4 14 8 0.0000 0.0000
-4 14 9 0.0000 0.0000
-4 14 10 0.0000 0.0000
-4 14 11 0.0000 0.0000
-4 14 12 0.0000 0.0000
-4 14 14 0.0000 0.0000
-4 14 15 0.0000 0.0000
-4 14 16 0.0000 0.0000
-4 14 17 0.0000 0.0000
-4 15 -3 0.0000 0.0000
-4 15 -2 0.0000 0.0000
-4 15 -1 0.0000 0.0000
-4 15 0 0.0000 0.0000
-4 15 1 0.0000 0.0000
-4 15 2 0.0000 0.0000
-4 15 3 0.0000 0.0000
-4 15 4 0.0000 0.0000
-4 15 5 0.0000 0.0000
-4 15 6 0.0000 0.0000
-4 15 7 0.0000 0.0000
-4 15 8 0.0000 0.0000
-4 15 9 0.0000 0.0000
-4 15 10 0.0000 0.0000
-4 15 11 0.0000 0.0000
-4 15 12 0.0000 0.0000
-4 15 13 0.0000 0.0000
-4 15 14 0.0000 0.0000
-4 16 -3 0.0000 0.0000
-4 16 -2 0.0000 0.0000
-4 16 -1 0.0000 0.0000
-4 16 0 0.0000 0.0000
-4 16 1 0.0000 0.0000
-4 16 2 0.0000 0.0000
-4 16 3 0.0000 0.0000
-4 16 4 0.0000 0.0000
-4 16 5 0.0000 0.0000
-4 16 6 0.0000 0.0000
-4 16 7 0.0000 0.0000
-4 16 8 0.0000 0.0000
-4 16 9 0.0000 0.0000
-3 0 -1 0.0000 0.0000
-3 0 1 0.0000 0.0000
-3 0 3 0.0000 0.0000
-3 0 5 0.0000 0.0000
-3 0 7 0.0000 0.0000
-3 0 9 0.0000 0.0000
-3 0 11 0.0000 0.0000
-3 0 13 0.0000 0.0000
-3 0 15 0.0000 0.0000
-3 0 17 0.0000 0.0000
-3 0 19 0.0000 0.0000
-3 0 21 0.0000 0.0000
-3 0 23 0.0000 0.0000
-3 0 25 0.0000 0.0000
-3 0 27 0.0000 0.0000
-3 0 29 0.0000 0.0000
-3 0 31 0.0000 0.0000
-3 1 -2 0.0000 0.0000
-3 1 -1 0.0000 0.0000
-3 1 0 0.0000 0.0000
-3 1 3 0.0000 0.0000
-3 1 4 0.0000 0.0000
-3 1 5 0.0000 0.0000
-3 1 6 0.0000 0.0000
-3 1 7 0.0000 0.0000
-3 1 8 0.0000 0.0000
-3 1 9 0.0000 0.0000
-3 1 10 0.0000 0.0000
-3 1 11 0.0000 0.0000
-3 1 12 0.0000 0.0000
-3 1 13 0.0000 0.0000
-3 1 14 0.0000 0.0000
-3 1 15 0.0000 0.0000
-3 1 16 0.0000 0.0000
-3 1 17 0.0000 0.0000
-3 1 18 0.0000 0.0000
-3 1 19 0.0000 0.0000
-3 1 20 0.0000 0.0000
-3 1 21 0.0000 0.0000
-3 1 22 0.0000 0.0000
-3 1 23 0.0000 0.0000
-3 1 24 0.0000 0.0000
-3 1 25 0.0000 0.0000
-3 1 26 0.0000 0.0000
-3 1 27 0.0000 0.0000
-3 1 28 0.0000 0.0000
-3 1 29 0.0000 0.0000
-3 1 30 0.0000 0.0000
-3 1 31 0.0000 0.0000
-3 1 32 0.0000 0.0000
-3 2 -2 0.0000 0.0000
-3 2 -1 0.0000 0.0000
-3 2 0 0.0000 0.0000
-3 2 1 0.0000 0.0000
-3 2 2 0.0000 0.0000
-3 2 4 0.0000 0.0000
-3 2 5 0.0000 0.0000
-3 2 6 0.0000 0.0000
-3 2 7 0.0000 0.0000
-3 2 8 0.0000 0.0000
-3 2 9 0.0000 0.0000
-3 2 10 0.0000 0.0000
-3 2 11 0.0000 0.0000
-3 2 12 0.0000 0.0000
-3 2 14 0.0000 0.0000
-3 2 15 0.0000 0.0000
-3 2 16 0.0000 0.0000
-3 2 18 0.0000 0.0000
-3 2 19 0.0000 0.0000
-3 2 20 0.0000 0.0000
-3 2 21 0.0000 0.0000
-3 2 22 0.0000 0.0000
-3 2 23 0.0000 0.0000
-3 2 24 0.0000 0.0000
-3 2 25 0.0000 0.0000
-3 2 26 0.0000 0.0000
-3 2 27 0.0000 0.0000
-3 2 28 0.0000 0.0000
-3 2 29 0.0000 0.0000
-3 2 30 0.0000 0.0000
-3 2 31 0.0000 0.0000
-3 2 32 0.0000 0.0000
-3 3 -2 0.0000 0.0000
-3 3 -1 0.0000 0.0000
-3 3 0 0.0000 0.0000
-3 3 1 0.0000 0.0000
-3 3 2 0.0000 0.0000
-3 3 3 0.0000 0.0000
-3 3 4 0.0000 0.0000
-3 3 7 0.0000 0.0000
-3 3 8 0.0000 0.0000
-3 3 9 0.0000 0.0000
-3 3 10 0.0000 0.0000
-3 3 11 0.0000 0.0000
-3 3 12 0.0000 0.0000
-3 3 13 0.0000 0.0000
-3 3 14 0.0000 0.0000
-3 3 15 0.0000 0.0000
-3 3 16 0.0000 0.0000
-3 3 17 0.0000 0.0000
-3 3 18 0.0000 0.0000
-3 3 19 0.0000 0.0000
-3 3 20 0.0000 0.0000
-3 3 21 0.0000 0.0000
-3 3 22 0.0000 0.0000
-3 3 23 0.0000 0.0000
-3 3 24 0.0000 0.0000
-3 3 25 0.0000 0.0000
-3 3 26 0.0000 0.0000
-3 3 27 0.0000 0.0000
-3 3 28 0.0000 0.0000
-3 3 29 0.0000 0.0000
-3 3 30 0.0000 0.0000
-3 3 31 0.0000 0.0000
-3 3 32 0.0000 0.0000
-3 4 -2 0.0000 0.0000
-3 4 -1 0.0000 0.0000
-3 4 0 0.0000 0.0000
-3 4 2 0.0000 0.0000
-3 4 4 0.0000 0.0000
-3 4 7 0.0000 0.0000
-3 4 8 0.0000 0.0000
-3 4 9 0.0000 0.0000
-3 4 10 0.0000 0.0000
-3 4 11 0.0000 0.0000
-3 4 12 0.0000 0.0000
-3 4 13 0.0000 0.0000
-3 4 14 0.0000 0.0000
-3 4 15 0.0000 0.0000
-3 4 16 0.0000 0.0000
-3 4 17 0.0000 0.0000
-3 4 18 0.0000 0.0000
-3 4 19 0.0000 0.0000
-3 4 20 0.0000 0.0000
-3 4 21 0.0000 0.0000
-3 4 22 0.0000 0.0000
-3 4 23 0.0000 0.0000
-3 4 24 0.0000 0.0000
-3 4 25 0.0000 0.0000
-3 4 26 0.0000 0.0000
-3 4 27 0.0000 0.0000
-3 4 28 0.0000 0.0000
-3 4 29 0.0000 0.0000
-3 4 30 0.0000 0.0000
-3 4 31 0.0000 0.0000
-3 5 -2 0.0000 0.0000
-3 5 -1 0.0000 0.0000
-3 5 1 0.0000 0.0000
-3 5 2 0.0000 0.0000
-3 5 3 0.0000 0.0000
-3 5 4 0.0000 0.0000
-3 5 5 0.0000 0.0000
-3 5 6 0.0000 0.0000
-3 5 8 0.0000 0.0000
-3 5 9 0.0000 0.0000
-3 5 10 0.0000 0.0000
-3 5 11 0.0000 0.0000
-3 5 12 0.0000 0.0000
-3 5 13 0.0000 0.0000
-3 5 14 0.0000 0.0000
-3 5 15 0.0000 0.0000
-3 5 16 0.0000 0.0000
-3 5 17 0.0000 0.0000
-3 5 18 0.0000 0.0000
-3 5 19 0.0000 0.0000
-3 5 20 0.0000 0.0000
-3 5 21 0.0000 0.0000
-3 5 22 0.0000 0.0000
-3 5 23 0.0000 0.0000
-3 5 24 0.0000 0.0000
-3 5 25 0.0000 0.0000
-3 5 26 0.0000 0.0000
-3 5 27 0.0000 0.0000
-3 5 28 0.0000 0.0000
-3 5 29 0.0000 0.0000
-3 5 30 0.0000 0.0000
-3 5 31 0.0000 0.0000
-3 6 -2 0.0000 0.0000
-3 6 -1 0.0000 0.0000
-3 6 0 0.0000 0.0000
-3 6 1 0.0000 0.0000
-3 6 2 0.0000 0.0000
-3 6 3 0.0000 0.0000
-3 6 4 0.0000 0.0000
-3 6 5 0.0000 0.0000
-3 6 7 0.0000 0.0000
-3 6 8 0.0000 0.0000
-3 6 9 0.0000 0.0000
-3 6 10 0.0000 0.0000
-3 6 11 0.0000 0.0000
-3 6 12 0.0000 0.0000
-3 6 13 0.0000 0.0000
-3 6 14 0.0000 0.0000
-3 6 15 0.0000 0.0000
-3 6 16 0.0000 0.0000
-3 6 17 0.0000 0.0000
-3 6 18 0.0000 0.0000
-3 6 19 0.0000 0.0000
-3 6 20 0.0000 0.0000
-3 6 21 0.0000 0.0000
-3 6 22 0.0000 0.0000
-3 6 23 0.0000 0.0000
-3 6 24 0.0000 0.0000
-3 6 25 0.0000 0.0000
-3 6 26 0.0000 0.0000
-3 6 27 0.0000 0.0000
-3 6 28 0.0000 0.0000
-3 6 29 0.0000 0.0000
-3 6 30 0.0000 0.0000
-3 7 -2 0.0000 0.0000
-3 7 -1 0.0000 0.0000
-3 7 0 0.0000 0.0000
-3 7 1 0.0000 0.0000
-3 7 2 0.0000 0.0000
-3 7 3 0.0000 0.0000
-3 7 4 0.0000 0.0000
-3 7 5 0.0000 0.0000
-3 7 6 0.0000 0.0000
-3 7 7 0.0000 0.0000
-3 7 8 0.0000 0.0000
-3 7 9 0.0000 0.0000
-3 7 10 0.0000 0.0000
-3 7 11 0.0000 0.0000
-3 7 12 0.0000 0.0000
-3 7 13 0.0000 0.0000
-3 7 14 0.0000 0.0000
-3 7 15 0.0000 0.0000
-3 7 16 0.0000 0.0000
-3 7 17 0.0000 0.0000
-3 7 18 0.0000 0.0000
-3 7 19 0.0000 0.0000
-3 7 20 0.0000 0.0000
-3 7 21 0.0000 0.0000
-3 7 22 0.0000 0.0000
-3 7 23 0.0000 0.0000
-3 7 24 0.0000 0.0000
-3 7 25 0.0000 0.0000
-3 7 26 0.0000 0.0000
-3 7 27 0.0000 0.0000
-3 7 28 0.0000 0.0000
-3 7 29 0.0000 0.0000
-3 8 -2 0.0000 0.0000
-3 8 -1 0.0000 0.0000
-3 8 0 0.0000 0.0000
-3 8 2 0.0000 0.0000
-3 8 3 0.0000 0.0000
-3 8 4 0.0000 0.0000
-3 8 5 0.0000 0.0000
-3 8 6 0.0000 0.0000
-3 8 7 0.0000 0.0000
-3 8 8 0.0000 0.0000
-3 8 9 0.0000 0.0000
-3 8 12 0.0000 0.0000
-3 8 13 0.0000 0.0000
-3 8 14 0.0000 0.0000
-3 8 15 0.0000 0.0000
-3 8 16 0.0000 0.0000
-3 8 17 0.0000 0.0000
-3 8 18 0.0000 0.0000
-3 8 19 0.0000 0.0000
-3 8 20 0.0000 0.0000
-3 8 21 0.0000 0.0000
-3 8 22 0.0000 0.0000
-3 8 23 0.0000 0.0000
-3 8 24 0.0000 0.0000
-3 8 25 0.0000 0.0000
-3 8 26 0.0000 0.0000
-3 8 27 0.0000 0.0000
-3 8 28 0.0000 0.0000
-3 9 -2 0.0000 0.0000
-3 9 -1 0.0000 0.0000
-3 9 0 0.0000 0.0000
-3 9 1 0.0000 0.0000
-3 9 2 0.0000 0.0000
-3 9 3 0.0000 0.0000
-3 9 4 0.0000 0.0000
-3 9 5 0.0000 0.0000
-3 9 6 0.0000 0.0000
-3 9 7 0.0000 0.0000
-3 9 8 0.0000 0.0000
-3 9 9 0.0000 0.0000
-3 9 10 0.0000 0.0000
-3 9 11 0.0000 0.0000
-3 9 12 0.0000 0.0000
-3 9 13 0.0000 0.0000
-3 9 14 0.0000 0.0000
-3 9 15 0.0000 0.0000
-3 9 16 0.0000 0.0000
-3 9 17 0.0000 0.0000
-3 9 18 0.0000 0.0000
-3 9 19 0.0000 0.0000
-3 9 20 0.0000 0.0000
-3 9 21 0.0000 0.0000
-3 9 22 0.0000 0.0000
-3 9 23 0.0000 0.0000
-3 9 24 0.0000 0.0000
-3 9 25 0.0000 0.0000
-3 9 26 0.0000 0.0000
-3 9 27 0.0000 0.0000
-3 10 -2 0.0000 0.0000
-3 10 -1 0.0000 0.0000
-3 10 0 0.0000 0.0000
-3 10 1 0.0000 0.0000
-3 10 2 0.0000 0.0000
-3 10 3 0.0000 0.0000
-3 10 4 0.0000 0.0000
-3 10 5 0.0000 0.0000
-3 10 6 0.0000 0.0000
-3 10 7 0.0000 0.0000
-3 10 8 0.0000 0.0000
-3 10 9 0.0000 0.0000
-3 10 10 0.0000 0.0000
-3 10 11 0.0000 0.0000
-3 10 12 0.0000 0.0000
-3 10 13 0.0000 0.0000
-3 10 14 0.0000 0.0000
-3 10 15 0.0000 0.0000
-3 10 16 0.0000 0.0000
-3 10 17 0.0000 0.0000
-3 10 18 0.0000 0.0000
-3 10 19 0.0000 0.0000
-3 10 20 0.0000 0.0000
-3 10 21 0.0000 0.0000
-3 10 22 0.0000 0.0000
-3 10 23 0.0000 0.0000
-3 10 24 0.0000 0.0000
-3 10 25 0.0000 0.0000
-3 10 26 0.0000 0.0000
-3 11 -2 0.0000 0.0000
-3 11 -1 0.0000 0.0000
-3 11 0 0.0000 0.0000
-3 11 1 0.0000 0.0000
-3 11 2 0.0000 0.0000
-3 11 3 0.0000 0.0000
-3 11 4 0.0000 0.0000
-3 11 5 0.0000 0.0000
-3 11 6 0.0000 0.0000
-3 11 7 0.0000 0.0000
-3 11 8 0.0000 0.0000
-3 11 9 0.0000 0.0000
-3 11 10 0.0000 0.0000
-3 11 11 0.0000 0.0000
-3 11 12 0.0000 0.0000
-3 11 13 0.0000 0.0000
-3 11 14 0.0000 0.0000
-3 11 15 0.0000 0.0000
-3 11 16 0.0000 0.0000
-3 11 17 0.0000 0.0000
-3 11 18 0.0000 0.0000
-3 11 19 0.0000 0.0000
-3 11 20 0.0000 0.0000
-3 11 21 0.0000 0.0000
-3 11 22 0.0000 0.0000
-3 11 23 0.0000 0.0000
-3 11 24 0.0000 0.0000
-3 11 25 0.0000 0.0000
-3 12 -2 0.0000 0.0000
-3 12 -1 0.0000 0.0000
-3 12 0 0.0000 0.0000
-3 12 1 0.0000 0.0000
-3 12 2 0.0000 0.0000
-3 12 3 0.0000 0.0000
-3 12 4 0.0000 0.0000
-3 12 5 0.0000 0.0000
-3 12 6 0.0000 0.0000
-3 12 7 0.0000 0.0000
-3 12 8 0.0000 0.0000
-3 12 9 0.0000 0.0000
-3 12 10 0.0000 0.0000
-3 12 11 0.0000 0.0000
-3 12 12 0.0000 0.0000
-3 12 13 0.0000 0.0000
-3 12 14 0.0000 0.0000
-3 12 15 0.0000 0.0000
-3 12 16 0.0000 0.0000
-3 12 17 0.0000 0.0000
-3 12 18 0.0000 0.0000
-3 12 19 0.0000 0.0000
-3 12 20 0.0000 0.0000
-3 12 21 0.0000 0.0000
-3 12 22 0.0000 0.0000
-3 12 23 0.0000 0.0000
-3 13 -2 0.0000 0.0000
-3 13 -1 0.0000 0.0000
-3 13 0 0.0000 0.0000
-3 13 1 0.0000 0.0000
-3 13 2 0.0000 0.0000
-3 13 3 0.0000 0.0000
-3 13 4 0.0000 0.0000
-3 13 5 0.0000 0.0000
-3 13 6 0.0000 0.0000
-3 13 7 0.0000 0.0000
-3 13 8 0.0000 0.0000
-3 13 9 0.0000 0.0000
-3 13 10 0.0000 0.0000
-3 13 11 0.0000 0.0000
-3 13 12 0.0000 0.0000
-3 13 13 0.0000 0.0000
-3 13 14 0.0000 0.0000
-3 13 15 0.0000 0.0000
-3 13 16 0.0000 0.0000
-3 13 17 0.0000 0.0000
-3 13 18 0.0000 0.0000
-3 13 19 0.0000 0.0000
-3 13 20 0.0000 0.0000
-3 13 21 0.0000 0.0000
-3 14 -2 0.0000 0.0000
-3 14 -1 0.0000 0.0000
-3 14 0 0.0000 0.0000
-3 14 1 0.0000 0.0000
-3 14 2 0.0000 0.0000
-3 14 3 0.0000 0.0000
-3 14 4 0.0000 0.0000
-3 14 5 0.0000 0.0000
-3 14 6 0.0000 0.0000
-3 14 7 0.0000 0.0000
-3 14 8 0.0000 0.0000
-3 14 9 0.0000 0.0000
-3 14 10 0.0000 0.0000
-3 14 11 0.0000 0.0000
-3 14 12 0.0000 0.0000
-3 14 13 0.0000 0.0000
-3 14 14 0.0000 0.0000
-3 14 15 0.0000 0.0000
-3 14 16 0.0000 0.0000
-3 14 17 0.0000 0.0000
-3 14 18 0.0000 0.0000
-3 15 -2 0.0000 0.0000
-3 15 -1 0.0000 0.0000
-3 15 0 0.0000 0.0000
-3 15 1 0.0000 0.0000
-3 15 2 0.0000 0.0000
-3 15 3 0.0000 0.0000
-3 15 4 0.0000 0.0000
-3 15 5 0.0000 0.0000
-3 15 6 0.0000 0.0000
-3 15 7 0.0000 0.0000
-3 15 8 0.0000 0.0000
-3 15 9 0.0000 0.0000
-3 15 10 0.0000 0.0000
-3 15 11 0.0000 0.0000
-3 15 12 0.0000 0.0000
-3 15 13 0.0000 0.0000
-3 15 14 0.0000 0.0000
-3 15 15 0.0000 0.0000
-3 16 -2 0.0000 0.0000
-3 16 -1 0.0000 0.0000
-3 16 0 0.0000 0.0000
-3 16 1 0.0000 0.0000
-3 16 2 0.0000 0.0000
-3 16 3 0.0000 0.0000
-3 16 4 0.0000 0.0000
-3 16 5 0.0000 0.0000
-3 16 6 0.0000 0.0000
-3 16 7 0.0000 0.0000
-3 16 8 0.0000 0.0000
-3 16 9 0.0000 0.0000
-3 16 10 0.0000 0.0000
-3 16 11 0.0000 0.0000
-3 17 -1 0.0000 0.0000
-3 17 0 0.0000 0.0000
-3 17 1 0.0000 0.0000
-2 0 0 0.0000 0.0000
-2 0 4 0.0000 0.0000
-2 0 6 0.0000 0.0000
-2 0 8 0.0000 0.0000
-2 0 10 0.0000 0.0000
-2 0 12 0.0000 0.0000
-2 0 16 0.0000 0.0000
-2 0 18 0.0000 0.0000
-2 0 20 0.0000 0.0000
-2 0 22 0.0000 0.0000
-2 0 24 0.0000 0.0000
-2 0 26 0.0000 0.0000
-2 0 28 0.0000 0.0000
-2 0 30 0.0000 0.0000
-2 0 32 0.0000 0.0000
-2 1 -1 0.0000 0.0000
-2 1 0 0.0000 0.0000
-2 1 3 0.0000 0.0000
-2 1 4 0.0000 0.0000
-2 1 5 0.0000 0.0000
-2 1 6 0.0000 0.0000
-2 1 7 0.0000 0.0000
-2 1 8 0.0000 0.0000
-2 1 9 0.0000 0.0000
-2 1 10 0.0000 0.0000
-2 1 11 0.0000 0.0000
-2 1 12 0.0000 0.0000
-2 1 13 0.0000 0.0000
-2 1 14 0.0000 0.0000
-2 1 15 0.0000 0.0000
-2 1 16 0.0000 0.0000
-2 1 17 0.0000 0.0000
-2 1 18 0.0000 0.0000
-2 1 19 0.0000 0.0000
-2 1 20 0.0000 0.0000
-2 1 21 0.0000 0.0000
-2 1 22 0.0000 0.0000
-2 1 23 0.0000 0.0000
-2 1 24 0.0000 0.0000
-2 1 25 0.0000 0.0000
-2 1 26 0.0000 0.0000
-2 1 27 0.0000 0.0000
-2 1 28 0.0000 0.0000
-2 1 29 0.0000 0.0000
-2 1 30 0.0000 0.0000
-2 1 31 0.0000 0.0000
-2 1 32 0.0000 0.0000
-2 1 33 0.0000 0.0000
-2 2 -1 0.0000 0.0000
-2 2 0 0.0000 0.0000
-2 2 1 0.0000 0.0000
-2 2 2 0.0000 0.0000
-2 2 3 0.0000 0.0000
-2 2 4 0.0000 0.0000
-2 2 5 0.0000 0.0000
-2 2 6 0.0000 0.0000
-2 2 7 0.0000 0.0000
-2 2 8 0.0000 0.0000
-2 2 9 0.0000 0.0000
-2 2 10 0.0000 0.0000
-2 2 11 0.0000 0.0000
-2 2 12 0.0000 0.0000
-2 2 13 0.0000 0.0000
-2 2 14 0.0000 0.0000
-2 2 15 0.0000 0.0000
-2 2 16 0.0000 0.0000
-2 2 17 0.0000 0.0000
-2 2 18 0.0000 0.0000
-2 2 19 0.0000 0.0000
-2 2 20 0.0000 0.0000
-2 2 21 0.0000 0.0000
-2 2 22 0.0000 0.0000
-2 2 23 0.0000 0.0000
-2 2 24 0.0000 0.0000
-2 2 25 0.0000 0.0000
-2 2 26 0.0000 0.0000
-2 2 27 0.0000 0.0000
-2 2 28 0.0000 0.0000
-2 2 29 0.0000 0.0000
-2 2 30 0.0000 0.0000
-2 2 31 0.0000 0.0000
-2 2 32 0.0000 0.0000
-2 3 0 0.0000 0.0000
-2 3 1 0.0000 0.0000
-2 3 2 0.0000 0.0000
-2 3 3 0.0000 0.0000
-2 3 7 0.0000 0.0000
-2 3 8 0.0000 0.0000
-2 3 9 0.0000 0.0000
-2 3 10 0.0000 0.0000
-2 3 11 0.0000 0.0000
-2 3 12 0.0000 0.0000
-2 3 13 0.0000 0.0000
-2 3 14 0.0000 0.0000
-2 3 15 0.0000 0.0000
-2 3 16 0.0000 0.0000
-2 3 17 0.0000 0.0000
-2 3 18 0.0000 0.0000
-2 3 19 0.0000 0.0000
-2 3 20 0.0000 0.0000
-2 3 21 0.0000 0.0000
-2 3 22 0.0000 0.0000
-2 3 23 0.0000 0.0000
-2 3 24 0.0000 0.0000
-2 3 25 0.0000 0.0000
-2 3 26 0.0000 0.0000
-2 3 27 0.0000 0.0000
-2 3 28 0.0000 0.0000
-2 3 29 0.0000 0.0000
-2 3 30 0.0000 0.0000
-2 3 31 0.0000 0.0000
-2 3 32 0.0000 0.0000
-2 4 -1 0.0000 0.0000
-2 4 0 0.0000 0.0000
-2 4 1 0.0000 0.0000
-2 4 2 0.0000 0.0000
-2 4 3 0.0000 0.0000
-2 4 4 0.0000 0.0000
-2 4 5 0.0000 0.0000
-2 4 6 0.0000 0.0000
-2 4 7 0.0000 0.0000
-2 4 8 0.0000 0.0000
-2 4 9 0.0000 0.0000
-2 4 10 0.0000 0.0000
-2 4 11 0.0000 0.0000
-2 4 12 0.0000 0.0000
-2 4 13 0.0000 0.0000
-2 4 14 0.0000 0.0000
-2 4 15 0.0000 0.0000
-2 4 16 0.0000 0.0000
-2 4 17 0.0000 0.0000
-2 4 18 0.0000 0.0000
-2 4 19 0.0000 0.0000
-2 4 20 0.0000 0.0000
-2 4 21 0.0000 0.0000
-2 4 22 0.0000 0.0000
-2 4 23 0.0000 0.0000
-2 4 24 0.0000 0.0000
-2 4 25 0.0000 0.0000
-2 4 26 0.0000 0.0000
-2 4 27 0.0000 0.0000
-2 4 28 0.0000 0.0000
-2 4 29 0.0000 0.0000
-2 4 30 0.0000 0.0000
-2 4 31 0.0000 0.0000
-2 4 32 0.0000 0.0000
-2 5 -1 0.0000 0.0000
-2 5 0 0.0000 0.0000
-2 5 2 0.0000 0.0000
-2 5 3 0.0000 0.0000
-2 5 4 0.0000 0.0000
-2 5 5 0.0000 0.0000
-2 5 7 0.0000 0.0000
-2 5 8 0.0000 0.0000
-2 5 9 0.0000 0.0000
-2 5 10 0.0000 0.0000
-2 5 11 0.0000 0.0000
-2 5 12 0.0000 0.0000
-2 5 13 0.0000 0.0000
-2 5 14 0.0000 0.0000
-2 5 15 0.0000 0.0000
-2 5 16 0.0000 0.0000
-2 5 17 0.0000 0.0000
-2 5 18 0.0000 0.0000
-2 5 19 0.0000 0.0000
-2 5 20 0.0000 0.0000
-2 5 21 0.0000 0.0000
-2 5 22 0.0000 0.0000
-2 5 23 0.0000 0.0000
-2 5 24 0.0000 0.0000
-2 5 25 0.0000 0.0000
-2 5 26 0.0000 0.0000
-2 5 27 0.0000 0.0000
-2 5 28 0.0000 0.0000
-2 5 29 0.0000 0.0000
-2 5 30 0.0000 0.0000
-2 5 31 0.0000 0.0000
-2 6 -1 0.0000 0.0000
-2 6 0 0.0000 0.0000
-2 6 1 0.0000 0.0000
-2 6 2 0.0000 0.0000
-2 6 3 0.0000 0.0000
-2 6 4 0.0000 0.0000
-2 6 5 0.0000 0.0000
-2 6 6 0.0000 0.0000
-2 6 7 0.0000 0.0000
-2 6 8 0.0000 0.0000
-2 6 9 0.0000 0.0000
-2 6 10 0.0000 0.0000
-2 6 11 0.0000 0.0000
-2 6 12 0.0000 0.0000
-2 6 13 0.0000 0.0000
-2 6 14 0.0000 0.0000
-2 6 15 0.0000 0.0000
-2 6 16 0.0000 0.0000
-2 6 17 0.0000 0.0000
-2 6 18 0.0000 0.0000
-2 6 19 0.0000 0.0000
-2 6 20 0.0000 0.0000
-2 6 21 0.0000 0.0000
-2 6 22 0.0000 0.0000
-2 6 23 0.0000 0.0000
-2 6 24 0.0000 0.0000
-2 6 25 0.0000 0.0000
-2 6 26 0.0000 0.0000
-2 6 27 0.0000 0.0000
-2 6 28 0.0000 0.0000
-2 6 29 0.0000 0.0000
-2 6 30 0.0000 0.0000
-2 6 31 0.0000 0.0000
-2 7 -1 0.0000 0.0000
-2 7 0 0.0000 0.0000
-2 7 1 0.0000 0.0000
-2 7 2 0.0000 0.0000
-2 7 3 0.0000 0.0000
-2 7 4 0.0000 0.0000
-2 7 5 0.0000 0.0000
-2 7 6 0.0000 0.0000
-2 7 7 0.0000 0.0000
-2 7 8 0.0000 0.0000
-2 7 9 0.0000 0.0000
-2 7 10 0.0000 0.0000
-2 7 11 0.0000 0.0000
-2 7 12 0.0000 0.0000
-2 7 13 0.0000 0.0000
-2 7 14 0.0000 0.0000
-2 7 15 0.0000 0.0000
-2 7 16 0.0000 0.0000
-2 7 17 0.0000 0.0000
-2 7 18 0.0000 0.0000
-2 7 19 0.0000 0.0000
-2 7 20 0.0000 0.0000
-2 7 21 0.0000 0.0000
-2 7 22 0.0000 0.0000
-2 7 23 0.0000 0.0000
-2 7 24 0.0000 0.0000
-2 7 25 0.0000 0.0000
-2 7 26 0.0000 0.0000
-2 7 27 0.0000 0.0000
-2 7 28 0.0000 0.0000
-2 7 29 0.0000 0.0000
-2 7 30 0.0000 0.0000
-2 8 -1 0.0000 0.0000
-2 8 0 0.0000 0.0000
-2 8 1 0.0000 0.0000
-2 8 2 0.0000 0.0000
-2 8 3 0.0000 0.0000
-2 8 4 0.0000 0.0000
-2 8 5 0.0000 0.0000
-2 8 6 0.0000 0.0000
-2 8 7 0.0000 0.0000
-2 8 8 0.0000 0.0000
-2 8 9 0.0000 0.0000
-2 8 10 0.0000 0.0000
-2 8 12 0.0000 0.0000
-2 8 13 0.0000 0.0000
-2 8 14 0.0000 0.0000
-2 8 15 0.0000 0.0000
-2 8 16 0.0000 0.0000
-2 8 17 0.0000 0.0000
-2 8 18 0.0000 0.0000
-2 8 19 0.0000 0.0000
-2 8 20 0.0000 0.0000
-2 8 21 0.0000 0.0000
-2 8 22 0.0000 0.0000
-2 8 23 0.0000 0.0000
-2 8 24 0.0000 0.0000
-2 8 25 0.0000 0.0000
-2 8 26 0.0000 0.0000
-2 8 27 0.0000 0.0000
-2 8 28 0.0000 0.0000
-2 8 29 0.0000 0.0000
-2 9 -1 0.0000 0.0000
-2 9 0 0.0000 0.0000
-2 9 1 0.0000 0.0000
-2 9 2 0.0000 0.0000
-2 9 3 0.0000 0.0000
-2 9 4 0.0000 0.0000
-2 9 5 0.0000 0.0000
-2 9 6 0.0000 0.0000
-2 9 7 0.0000 0.0000
-2 9 8 0.0000 0.0000
-2 9 9 0.0000 0.0000
-2 9 10 0.0000 0.0000
-2 9 11 0.0000 0.0000
-2 9 12 0.0000 0.0000
-2 9 13 0.0000 0.0000
-2 9 14 0.0000 0.0000
-2 9 15 0.0000 0.0000
-2 9 16 0.0000 0.0000
-2 9 17 0.0000 0.0000
-2 9 18 0.0000 0.0000
-2 9 19 0.0000 0.0000
-2 9 20 0.0000 0.0000
-2 9 21 0.0000 0.0000
-2 9 22 0.0000 0.0000
-2 9 23 0.0000 0.0000
-2 9 24 0.0000 0.0000
-2 9 25 0.0000 0.0000
-2 9 26 0.0000 0.0000
-2 9 27 0.0000 0.0000
-2 9 28 0.0000 0.0000
-2 10 -1 0.0000 0.0000
-2 10 0 0.0000 0.0000
-2 10 1 0.0000 0.0000
-2 10 2 0.0000 0.0000
-2 10 3 0.0000 0.0000
-2 10 4 0.0000 0.0000
-2 10 5 0.0000 0.0000
-2 10 6 0.0000 0.0000
-2 10 7 0.0000 0.0000
-2 10 8 0.0000 0.0000
-2 10 9 0.0000 0.0000
-2 10 10 0.0000 0.0000
-2 10 11 0.0000 0.0000
-2 10 12 0.0000 0.0000
-2 10 13 0.0000 0.0000
-2 10 14 0.0000 0.0000
-2 10 15 0.0000 0.0000
-2 10 16 0.0000 0.0000
-2 10 17 0.0000 0.0000
-2 10 18 0.0000 0.0000
-2 10 19 0.0000 0.0000
-2 10 20 0.0000 0.0000
-2 10 21 0.0000 0.0000
-2 10 22 0.0000 0.0000
-2 10 23 0.0000 0.0000
-2 10 24 0.0000 0.0000
-2 10 25 0.0000 0.0000
-2 10 26 0.0000 0.0000
-2 11 -1 0.0000 0.0000
-2 11 0 0.0000 0.0000
-2 11 1 0.0000 0.0000
-2 11 2 0.0000 0.0000
-2 11 3 0.0000 0.0000
-2 11 4 0.0000 0.0000
-2 11 5 0.0000 0.0000
-2 11 6 0.0000 0.0000
-2 11 7 0.0000 0.0000
-2 11 8 0.0000 0.0000
-2 11 9 0.0000 0.0000
-2 11 10 0.0000 0.0000
-2 11 11 0.0000 0.0000
-2 11 12 0.0000 0.0000
-2 11 13 0.0000 0.0000
-2 11 14 0.0000 0.0000
-2 11 15 0.0000 0.0000
-2 11 16 0.0000 0.0000
-2 11 17 0.0000 0.0000
-2 11 18 0.0000 0.0000
-2 11 19 0.0000 0.0000
-2 11 20 0.0000 0.0000
-2 11 21 0.0000 0.0000
-2 11 22 0.0000 0.0000
-2 11 23 0.0000 0.0000
-2 11 24 0.0000 0.0000
-2 11 25 0.0000 0.0000
-2 12 -1 0.0000 0.0000
-2 12 0 0.0000 0.0000
-2 12 1 0.0000 0.0000
-2 12 2 0.0000 0.0000
-2 12 3 0.0000 0.0000
-2 12 4 0.0000 0.0000
-2 12 5 0.0000 0.0000
-2 12 6 0.0000 0.0000
-2 12 7 0.0000 0.0000
-2 12 8 0.0000 0.0000
-2 12 9 0.0000 0.0000
-2 12 10 0.0000 0.0000
-2 12 11 0.0000 0.0000
-2 12 12 0.0000 0.0000
-2 12 13 0.0000 0.0000
-2 12 14 0.0000 0.0000
-2 12 15 0.0000 0.0000
-2 12 16 0.0000 0.0000
-2 12 17 0.0000 0.0000
-2 12 18 0.0000 0.0000
-2 12 19 0.0000 0.0000
-2 12 20 0.0000 0.0000
-2 12 21 0.0000 0.0000
-2 12 22 0.0000 0.0000
-2 12 23 0.0000 0.0000
-2 13 -1 0.0000 0.0000
-2 13 0 0.0000 0.0000
-2 13 1 0.0000 0.0000
-2 13 2 0.0000 0.0000
-2 13 3 0.0000 0.0000
-2 13 4 0.0000 0.0000
-2 13 5 0.0000 0.0000
-2 13 6 0.0000 0.0000
-2 13 7 0.0000 0.0000
-2 13 8 0.0000 0.0000
-2 13 9 0.0000 0.0000
-2 13 10 0.0000 0.0000
-2 13 11 0.0000 0.0000
-2 13 12 0.0000 0.0000
-2 13 13 0.0000 0.0000
-2 13 14 0.0000 0.0000
-2 13 15 0.0000 0.0000
-2 13 16 0.0000 0.0000
-2 13 17 0.0000 0.0000
-2 13 18 0.0000 0.0000
-2 13 19 0.0000 0.0000
-2 13 20 0.0000 0.0000
-2 13 21 0.0000 0.0000
-2 14 -1 0.0000 0.0000
-2 14 0 0.0000 0.0000
-2 14 1 0.0000 0.0000
-2 14 2 0.0000 0.0000
-2 14 3 0.0000 0.0000
-2 14 4 0.0000 0.0000
-2 14 5 0.0000 0.0000
-2 14 6 0.0000 0.0000
-2 14 7 0.0000 0.0000
-2 14 8 0.0000 0.0000
-2 14 9 0.0000 0.0000
-2 14 10 0.0000 0.0000
-2 14 11 0.0000 0.0000
-2 14 12 0.0000 0.0000
-2 14 13 0.0000 0.0000
-2 14 14 0.0000 0.0000
-2 14 15 0.0000 0.0000
-2 14 16 0.0000 0.0000
-2 14 17 0.0000 0.0000
-2 14 18 0.0000 0.0000
-2 14 19 0.0000 0.0000
-2 15 -1 0.0000 0.0000
-2 15 0 0.0000 0.0000
-2 15 1 0.0000 0.0000
-2 15 2 0.0000 0.0000
-2 15 3 0.0000 0.0000
-2 15 4 0.0000 0.0000
-2 15 5 0.0000 0.0000
-2 15 6 0.0000 0.0000
-2 15 7 0.0000 0.0000
-2 15 8 0.0000 0.0000
-2 15 9 0.0000 0.0000
-2 15 10 0.0000 0.0000
-2 15 11 0.0000 0.0000
-2 15 12 0.0000 0.0000
-2 15 13 0.0000 0.0000
-2 15 14 0.0000 0.0000
-2 15 15 0.0000 0.0000
-2 15 16 0.0000 0.0000
-2 16 -1 0.0000 0.0000
-2 16 0 0.0000 0.0000
-2 16 1 0.0000 0.0000
-2 16 2 0.0000 0.0000
-2 16 3 0.0000 0.0000
-2 16 4 0.0000 0.0000
-2 16 5 0.0000 0.0000
-2 16 6 0.0000 0.0000
-2 16 7 0.0000 0.0000
-2 16 8 0.0000 0.0000
-2 16 9 0.0000 0.0000
-2 16 10 0.0000 0.0000
-2 16 11 0.0000 0.0000
-2 16 12 0.0000 0.0000
-2 17 -1 0.0000 0.0000
-2 17 0 0.0000 0.0000
-2 17 1 0.0000 0.0000
-2 17 2 0.0000 0.0000
-2 17 3 0.0000 0.0000
-2 17 4 0.0000 0.0000
-1 0 3 0.0000 0.0000
-1 0 5 0.0000 0.0000
-1 0 7 0.0000 0.0000
-1 0 9 0.0000 0.0000
-1 0 11 0.0000 0.0000
-1 0 13 0.0000 0.0000
-1 0 15 0.0000 0.0000
-1 0 17 0.0000 0.0000
-1 0 19 0.0000 0.0000
-1 0 21 0.0000 0.0000
-1 0 25 0.0000 0.0000
-1 0 27 0.0000 0.0000
-1 0 29 0.0000 0.0000
-1 0 31 0.0000 0.0000
-1 0 33 0.0000 0.0000
-1 1 1 0.0000 0.0000
-1 1 3 0.0000 0.0000
-1 1 4 0.0000 0.0000
-1 1 5 0.0000 0.0000
-1 1 6 0.0000 0.0000
-1 1 7 0.0000 0.0000
-1 1 8 0.0000 0.0000
-1 1 9 0.0000 0.0000
-1 1 10 0.0000 0.0000
-1 1 12 0.0000 0.0000
-1 1 13 0.0000 0.0000
-1 1 14 0.0000 0.0000
-1 1 16 0.0000 0.0000
-1 1 17 0.0000 0.0000
-1 1 19 0.0000 0.0000
-1 1 20 0.0000 0.0000
-1 1 21 0.0000 0.0000
-1 1 22 0.0000 0.0000
-1 1 23 0.0000 0.0000
-1 1 24 0.0000 0.0000
-1 1 25 0.0000 0.0000
-1 1 26 0.0000 0.0000
-1 1 27 0.0000 0.0000
-1 1 28 0.0000 0.0000
-1 1 29 0.0000 0.0000
-1 1 30 0.0000 0.0000
-1 1 31 0.0000 0.0000
-1 1 32 0.0000 0.0000
-1 1 33 0.0000 0.0000
-1 2 1 0.0000 0.0000
-1 2 2 0.0000 0.0000
-1 2 3 0.0000 0.0000
-1 2 4 0.0000 0.0000
-1 2 5 0.0000 0.0000
-1 2 6 0.0000 0.0000
-1 2 7 0.0000 0.0000
-1 2 8 0.0000 0.0000
-1 2 9 0.0000 0.0000
-1 2 11 0.0000 0.0000
-1 2 12 0.0000 0.0000
-1 2 13 0.0000 0.0000
-1 2 14 0.0000 0.0000
-1 2 15 0.0000 0.0000
-1 2 16 0.0000 0.0000
-1 2 17 0.0000 0.0000
-1 2 18 0.0000 0.0000
-1 2 19 0.0000 0.0000
-1 2 20 0.0000 0.0000
-1 2 21 0.0000 0.0000
-1 2 22 0.0000 0.0000
-1 2 23 0.0000 0.0000
-1 2 24 0.0000 0.0000
-1 2 25 0.0000 0.0000
-1 2 26 0.0000 0.0000
-1 2 27 0.0000 0.0000
-1 2 28 0.0000 0.0000
-1 2 29 0.0000 0.0000
-1 2 30 0.0000 0.0000
-1 2 31 0.0000 0.0000
-1 2 32 0.0000 0.0000
-1 3 0 0.0000 0.0000
-1 3 1 0.0000 0.0000
-1 3 2 0.0000 0.0000
-1 3 3 0.0000 0.0000
-1 3 5 0.0000 0.0000
-1 3 6 0.0000 0.0000
-1 3 7 0.0000 0.0000
-1 3 9 0.0000 0.0000
-1 3 10 0.0000 0.0000
-1 3 11 0.0000 0.0000
-1 3 12 0.0000 0.0000
-1 3 13 0.0000 0.0000
-1 3 15 0.0000 0.0000
-1 3 17 0.0000 0.0000
-1 3 18 0.0000 0.0000
-1 3 19 0.0000 0.0000
-1 3 21 0.0000 0.0000
-1 3 22 0.0000 0.0000
-1 3 23 0.0000 0.0000
-1 3 24 0.0000 0.0000
-1 3 25 0.0000 0.0000
-1 3 26 0.0000 0.0000
-1 3 27 0.0000 0.0000
-1 3 28 0.0000 0.0000
-1 3 29 0.0000 0.0000
-1 3 30 0.0000 0.0000
-1 3 31 0.0000 0.0000
-1 3 32 0.0000 0.0000
-1 4 0 0.0000 0.0000
-1 4 1 0.0000 0.0000
-1 4 2 0.0000 0.0000
-1 4 3 0.0000 0.0000
-1 4 4 0.0000 0.0000
-1 4 5 0.0000 0.0000
-1 4 8 0.0000 0.0000
-1 4 9 0.0000 0.0000
-1 4 10 0.0000 0.0000
-1 4 11 0.0000 0.0000
-1 4 12 0.0000 0.0000
-1 4 13 0.0000 0.0000
-1 4 15 0.0000 0.0000
-1 4 16 0.0000 0.0000
-1 4 17 0.0000 0.0000
-1 4 18 0.0000 0.0000
-1 4 19 0.0000 0.0000
-1 4 20 0.0000 0.0000
-1 4 21 0.0000 0.0000
-1 4 22 0.0000 0.0000
-1 4 23 0.0000 0.0000
-1 4 24 0.0000 0.0000
-1 4 25 0.0000 0.0000
-1 4 26 0.0000 0.0000
-1 4 27 0.0000 0.0000
-1 4 28 0.0000 0.0000
-1 4 29 0.0000 0.0000
-1 4 30 0.0000 0.0000
-1 4 31 0.0000 0.0000
-1 4 32 0.0000 0.0000
-1 5 0 0.0000 0.0000
-1 5 1 0.0000 0.0000
-1 5 2 0.0000 0.0000
-1 5 3 0.0000 0.0000
-1 5 4 0.0000 0.0000
-1 5 6 0.0000 0.0000
-1 5 7 0.0000 0.0000
-1 5 8 0.0000 0.0000
-1 5 9 0.0000 0.0000
-1 5 10 0.0000 0.0000
-1 5 11 0.0000 0.0000
-1 5 12 0.0000 0.0000
-1 5 13 0.0000 0.0000
-1 5 14 0.0000 0.0000
-1 5 16 0.0000 0.0000
-1 5 17 0.0000 0.0000
-1 5 18 0.0000 0.0000
-1 5 19 0.0000 0.0000
-1 5 20 0.0000 0.0000
-1 5 21 0.0000 0.0000
-1 5 22 0.0000 0.0000
-1 5 23 0.0000 0.0000
-1 5 24 0.0000 0.0000
-1 5 25 0.0000 0.0000
-1 5 26 0.0000 0.0000
-1 5 27 0.0000 0.0000
-1 5 28 0.0000 0.0000
-1 5 29 0.0000 0.0000
-1 5 30 0.0000 0.0000
-1 5 31 0.0000 0.0000
-1 6 0 0.0000 0.0000
-1 6 1 0.0000 0.0000
-1 6 2 0.0000 0.0000
-1 6 3 0.0000 0.0000
-1 6 4 0.0000 0.0000
-1 6 5 0.0000 0.0000
-1 6 6 0.0000 0.0000
-1 6 7 0.0000 0.0000
-1 6 8 0.0000 0.0000
-1 6 9 0.0000 0.0000
-1 6 10 0.0000 0.0000
-1 6 11 0.0000 0.0000
-1 6 12 0.0000 0.0000
-1 6 14 0.0000 0.0000
-1 6 15 0.0000 0.0000
-1 6 16 0.0000 0.0000
-1 6 17 0.0000 0.0000
-1 6 18 0.0000 0.0000
-1 6 19 0.0000 0.0000
-1 6 20 0.0000 0.0000
-1 6 21 0.0000 0.0000
-1 6 22 0.0000 0.0000
-1 6 23 0.0000 0.0000
-1 6 24 0.0000 0.0000
-1 6 25 0.0000 0.0000
-1 6 26 0.0000 0.0000
-1 6 27 0.0000 0.0000
-1 6 28 0.0000 0.0000
-1 6 29 0.0000 0.0000
-1 6 30 0.0000 0.0000
-1 6 31 0.0000 0.0000
-1 7 0 0.0000 0.0000
-1 7 1 0.0000 0.0000
-1 7 2 0.0000 0.0000
-1 7 3 0.0000 0.0000
-1 7 4 0.0000 0.0000
-1 7 6 0.0000 0.0000
-1 7 7 0.0000 0.0000
-1 7 8 0.0000 0.0000
-1 7 9 0.0000 0.0000
-1 7 13 0.0000 0.0000
-1 7 14 0.0000 0.0000
-1 7 15 0.0000 0.0000
-1 7 16 0.0000 0.0000
-1 7 17 0.0000 0.0000
-1 7 18 0.0000 0.0000
-1 7 19 0.0000 0.0000
-1 7 20 0.0000 0.0000
-1 7 21 0.0000 0.0000
-1 7 22 0.0000 0.0000
-1 7 23 0.0000 0.0000
-1 7 24 0.0000 0.0000
-1 7 25 0.0000 0.0000
-1 7 26 0.0000 0.0000
-1 7 27 0.0000 0.0000
-1 7 28 0.0000 0.0000
-1 7 29 0.0000 0.0000
-1 7 30 0.0000 0.0000
-1 8 0 0.0000 0.0000
-1 8 1 0.0000 0.0000
-1 8 2 0.0000 0.0000
-1 8 5 0.0000 0.0000
-1 8 6 0.0000 0.0000
-1 8 7 0.0000 0.0000
-1 8 8 0.0000 0.0000
-1 8 9 0.0000 0.0000
-1 8 10 0.0000 0.0000
-1 8 11 0.0000 0.0000
-1 8 12 0.0000 0.0000
-1 8 13 0.0000 0.0000
-1 8 14 0.0000 0.0000
-1 8 15 0.0000 0.0000
-1 8 16 0.0000 0.0000
-1 8 17 0.0000 0.0000
-1 8 18 0.0000 0.0000
-1 8 19 0.0000 0.0000
-1 8 20 0.0000 0.0000
-1 8 21 0.0000 0.0000
-1 8 22 0.0000 0.0000
-1 8 23 0.0000 0.0000
-1 8 24 0.0000 0.0000
-1 8 25 0.0000 0.0000
-1 8 26 0.0000 0.0000
-1 8 27 0.0000 0.0000
-1 8 28 0.0000 0.0000
-1 8 29 0.0000 0.0000
-1 9 0 0.0000 0.0000
-1 9 1 0.0000 0.0000
-1 9 2 0.0000 0.0000
-1 9 3 0.0000 0.0000
-1 9 4 0.0000 0.0000
-1 9 5 0.0000 0.0000
-1 9 7 0.0000 0.0000
-1 9 8 0.0000 0.0000
-1 9 9 0.0000 0.0000
-1 9 10 0.0000 0.0000
-1 9 11 0.0000 0.0000
-1 9 12 0.0000 0.0000
-1 9 13 0.0000 0.0000
-1 9 14 0.0000 0.0000
-1 9 15 0.0000 0.0000
-1 9 16 0.0000 0.0000
-1 9 17 0.0000 0.0000
-1 9 18 0.0000 0.0000
-1 9 19 0.0000 0.0000
-1 9 20 0.0000 0.0000
-1 9 21 0.0000 0.0000
-1 9 22 0.0000 0.0000
-1 9 23 0.0000 0.0000
-1 9 24 0.0000 0.0000
-1 9 25 0.0000 0.0000
-1 9 26 0.0000 0.0000
-1 9 27 0.0000 0.0000
-1 9 28 0.0000 0.0000
-1 10 0 0.0000 0.0000
-1 10 1 0.0000 0.0000
-1 10 2 0.0000 0.0000
-1 10 3 0.0000 0.0000
-1 10 4 0.0000 0.0000
-1 10 5 0.0000 0.0000
-1 10 6 0.0000 0.0000
-1 10 7 0.0000 0.0000
-1 10 8 0.0000 0.0000
-1 10 9 0.0000 0.0000
-1 10 10 0.0000 0.0000
-1 10 11 0.0000 0.0000
-1 10 12 0.0000 0.0000
-1 10 13 0.0000 0.0000
-1 10 14 0.0000 0.0000
-1 10 15 0.0000 0.0000
-1 10 16 0.0000 0.0000
-1 10 17 0.0000 0.0000
-1 10 18 0.0000 0.0000
-1 10 19 0.0000 0.0000
-1 10 20 0.0000 0.0000
-1 10 21 0.0000 0.0000
-1 10 22 0.0000 0.0000
-1 10 23 0.0000 0.0000
-1 10 24 0.0000 0.0000
-1 10 25 0.0000 0.0000
-1 10 26 0.0000 0.0000
-1 10 27 0.0000 0.0000
-1 11 0 0.0000 0.0000
-1 11 1 0.0000 0.0000
-1 11 2 0.0000 0.0000
-1 11 3 0.0000 0.0000
-1 11 4 0.0000 0.0000
-1 11 5 0.0000 0.0000
-1 11 6 0.0000 0.0000
-1 11 7 0.0000 0.0000
-1 11 8 0.0000 0.0000
-1 11 9 0.0000 0.0000
-1 11 10 0.0000 0.0000
-1 11 11 0.0000 0.0000
-1 11 12 0.0000 0.0000
-1 11 13 0.0000 0.0000
-1 11 14 0.0000 0.0000
-1 11 15 0.0000 0.0000
-1 11 16 0.0000 0.0000
-1 11 17 0.0000 0.0000
-1 11 18 0.0000 0.0000
-1 11 19 0.0000 0.0000
-1 11 20 0.0000 0.0000
-1 11 21 0.0000 0.0000
-1 11 22 0.0000 0.0000
-1 11 23 0.0000 0.0000
-1 11 24 0.0000 0.0000
-1 11 25 0.0000 0.0000
-1 12 0 0.0000 0.0000
-1 12 1 0.0000 0.0000
-1 12 2 0.0000 0.0000
-1 12 3 0.0000 0.0000
-1 12 4 0.0000 0.0000
-1 12 5 0.0000 0.0000
-1 12 6 0.0000 0.0000
-1 12 7 0.0000 0.0000
-1 12 8 0.0000 0.0000
-1 12 9 0.0000 0.0000
-1 12 10 0.0000 0.0000
-1 12 11 0.0000 0.0000
-1 12 12 0.0000 0.0000
-1 12 13 0.0000 0.0000
-1 12 14 0.0000 0.0000
-1 12 15 0.0000 0.0000
-1 12 16 0.0000 0.0000
-1 12 17 0.0000 0.0000
-1 12 18 0.0000 0.0000
-1 12 19 0.0000 0.0000
-1 12 20 0.0000 0.0000
-1 12 21 0.0000 0.0000
-1 12 22 0.0000 0.0000
-1 12 23 0.0000 0.0000
-1 13 0 0.0000 0.0000
-1 13 1 0.0000 0.0000
-1 13 2 0.0000 0.0000
-1 13 3 0.0000 0.0000
-1 13 4 0.0000 0.0000
-1 13 5 0.0000 0.0000
-1 13 6 0.0000 0.0000
-1 13 7 0.0000 0.0000
-1 13 8 0.0000 0.0000
-1 13 9 0.0000 0.0000
-1 13 10 0.0000 0.0000
-1 13 11 0.0000 0.0000
-1 13 12 0.0000 0.0000
-1 13 13 0.0000 0.0000
-1 13 14 0.0000 0.0000
-1 13 15 0.0000 0.0000
-1 13 16 0.0000 0.0000
-1 13 17 0.0000 0.0000
-1 13 18 0.0000 0.0000
-1 13 19 0.0000 0.0000
-1 13 20 0.0000 0.0000
-1 13 21 0.0000 0.0000
-1 14 0 0.0000 0.0000
-1 14 1 0.0000 0.0000
-1 14 2 0.0000 0.0000
-1 14 3 0.0000 0.0000
-1 14 4 0.0000 0.0000
-1 14 5 0.0000 0.0000
-1 14 6 0.0000 0.0000
-1 14 7 0.0000 0.0000
-1 14 8 0.0000 0.0000
-1 14 9 0.0000 0.0000
-1 14 10 0.0000 0.0000
-1 14 11 0.0000 0.0000
-1 14 12 0.0000 0.0000
-1 14 13 0.0000 0.0000
-1 14 14 0.0000 0.0000
-1 14 15 0.0000 0.0000
-1 14 16 0.0000 0.0000
-1 14 17 0.0000 0.0000
-1 14 18 0.0000 0.0000
-1 14 19 0.0000 0.0000
-1 15 0 0.0000 0.0000
-1 15 1 0.0000 0.0000
-1 15 2 0.0000 0.0000
-1 15 3 0.0000 0.0000
-1 15 4 0.0000 0.0000
-1 15 5 0.0000 0.0000
-1 15 6 0.0000 0.0000
-1 15 7 0.0000 0.0000
-1 15 8 0.0000 0.0000
-1 15 9 0.0000 0.0000
-1 15 10 0.0000 0.0000
-1 15 11 0.0000 0.0000
-1 15 12 0.0000 0.0000
-1 15 13 0.0000 0.0000
-1 15 14 0.0000 0.0000
-1 15 15 0.0000 0.0000
-1 15 16 0.0000 0.0000
-1 16 0 0.0000 0.0000
-1 16 1 0.0000 0.0000
-1 16 2 0.0000 0.0000
-1 16 3 0.0000 0.0000
-1 16 4 0.0000 0.0000
-1 16 5 0.0000 0.0000
-1 16 6 0.0000 0.0000
-1 16 7 0.0000 0.0000
-1 16 8 0.0000 0.0000
-1 16 9 0.0000 0.0000
-1 16 10 0.0000 0.0000
-1 16 11 0.0000 0.0000
-1 16 12 0.0000 0.0000
-1 17 0 0.0000 0.0000
-1 17 1 0.0000 0.0000
-1 17 2 0.0000 0.0000
-1 17 3 0.0000 0.0000
-1 17 4 0.0000 0.0000
-1 17 5 0.0000 0.0000
-1 17 6 0.0000 0.0000
0 0 2 0.0000 0.0000
0 0 4 0.0000 0.0000
0 0 6 0.0000 0.0000
0 0 8 0.0000 0.0000
0 0 10 0.0000 0.0000
0 0 12 0.0000 0.0000
0 0 14 0.0000 0.0000
0 0 18 0.0000 0.0000
0 0 20 0.0000 0.0000
0 0 22 0.0000 0.0000
0 0 24 0.0000 0.0000
0 0 26 0.0000 0.0000
0 0 28 0.0000 0.0000
0 0 30 0.0000 0.0000
0 0 32 0.0000 0.0000
0 1 1 0.0000 0.0000
0 1 2 0.0000 0.0000
0 1 3 0.0000 0.0000
0 1 4 0.0000 0.0000
0 1 5 0.0000 0.0000
0 1 6 0.0000 0.0000
0 1 7 0.0000 0.0000
0 1 8 0.0000 0.0000
0 1 9 0.0000 0.0000
0 1 10 0.0000 0.0000
0 1 11 0.0000 0.0000
0 1 12 0.0000 0.0000
0 1 13 0.0000 0.0000
0 1 14 0.0000 0.0000
0 1 15 0.0000 0.0000
0 1 16 0.0000 0.0000
0 1 17 0.0000 0.0000
0 1 18 0.0000 0.0000
0 1 19 0.0000 0.0000
0 1 20 0.0000 0.0000
0 1 21 0.0000 0.0000
0 1 22 0.0000 0.0000
0 1 23 0.0000 0.0000
0 1 24 0.0000 0.0000
0 1 25 0.0000 0.0000
0 1 26 0.0000 0.0000
0 1 27 0.0000 0.0000
0 1 28 0.0000 0.0000
0 1 29 0.0000 0.0000
0 1 30 0.0000 0.0000
0 1 31 0.0000 0.0000
0 1 32 0.0000 0.0000
0 1 33 0.0000 0.0000
0 2 0 0.0000 0.0000
0 2 3 0.0000 0.0000
0 2 4 0.0000 0.0000
0 2 5 0.0000 0.0000
0 2 6 0.0000 0.0000
0 2 7 0.0000 0.0000
0 2 8 0.0000 0.0000
0 2 9 0.0000 0.0000
0 2 10 0.0000 0.0000
0 2 11 0.0000 0.0000
0 2 12 0.0000 0.0000
0 2 13 0.0000 0.0000
0 2 14 0.0000 0.0000
0 2 15 0.0000 0.0000
0 2 16 0.0000 0.0000
0 2 17 0.0000 0.0000
0 2 18 0.0000 0.0000
0 2 19 0.0000 0.0000
0 2 20 0.0000 0.0000
0 2 21 0.0000 0.0000
0 2 22 0.0000 0.0000
0 2 23 0.0000 0.0000
0 2 24 0.0000 0.0000
0 2 25 0.0000 0.0000
0 2 26 0.0000 0.0000
0 2 27 0.0000 0.0000
0 2 28 0.0000 0.0000
0 2 29 0.0000 0.0000
0 2 30 0.0000 0.0000
0 2 31 0.0000 0.0000
0 2 32 0.0000 0.0000
0 3 1 0.0000 0.0000
0 3 2 0.0000 0.0000
0 3 3 0.0000 0.0000
0 3 4 0.0000 0.0000
0 3 5 0.0000 0.0000
0 3 6 0.0000 0.0000
0 3 7 0.0000 0.0000
0 3 9 0.0000 0.0000
0 3 10 0.0000 0.0000
0 3 11 0.0000 0.0000
0 3 12 0.0000 0.0000
0 3 13 0.0000 0.0000
0 3 14 0.0000 0.0000
0 3 15 0.0000 0.0000
0 3 16 0.0000 0.0000
0 3 17 0.0000 0.0000
0 3 18 0.0000 0.0000
0 3 19 0.0000 0.0000
0 3 20 0.0000 0.0000
0 3 21 0.0000 0.0000
0 3 22 0.0000 0.0000
0 3 23 0.0000 0.0000
0 3 24 0.0000 0.0000
0 3 25 0.0000 0.0000
0 3 26 0.0000 0.0000
0 3 27 0.0000 0.0000
0 3 28 0.0000 0.0000
0 3 29 0.0000 0.0000
0 3 30 0.0000 0.0000
0 3 31 0.0000 0.0000
0 3 32 0.0000 0.0000
0 4 0 0.0000 0.0000
0 4 1 0.0000 0.0000
0 4 2 0.0000 0.0000
0 4 3 0.0000 0.0000
0 4 4 0.0000 0.0000
0 4 5 0.0000 0.0000
0 4 6 0.0000 0.0000
0 4 7 0.0000 0.0000
0 4 8 0.0000 0.0000
0 4 9 0.0000 0.0000
0 4 10 0.0000 0.0000
0 4 11 0.0000 0.0000
0 4 12 0.0000 0.0000
0 4 13 0.0000 0.0000
0 4 14 0.0000 0.0000
0 4 15 0.0000 0.0000
0 4 16 0.0000 0.0000
0 4 17 0.0000 0.0000
0 4 18 0.0000 0.0000
0 4 19 0.0000 0.0000
0 4 20 0.0000 0.0000
0 4 21 0.0000 0.0000
0 4 22 0.0000 0.0000
0 4 23 0.0000 0.0000
0 4 24 0.0000 0.0000
0 4 25 0.0000 0.0000
0 4 26 0.0000 0.0000
0 4 27 0.0000 0.0000
0 4 28 0.0000 0.0000
0 4 29 0.0000 0.0000
0 4 30 0.0000 0.0000
0 4 31 0.0000 0.0000
0 4 32 0.0000 0.0000
0 5 1 0.0000 0.0000
0 5 2 0.0000 0.0000
0 5 3 0.0000 0.0000
0 5 4 0.0000 0.0000
0 5 5 0.0000 0.0000
0 5 6 0.0000 0.0000
0 5 7 0.0000 0.0000
0 5 8 0.0000 0.0000
0 5 9 0.0000 0.0000
0 5 10 0.0000 0.0000
0 5 11 0.0000 0.0000
0 5 12 0.0000 0.0000
0 5 13 0.0000 0.0000
0 5 14 0.0000 0.0000
0 5 15 0.0000 0.0000
0 5 16 0.0000 0.0000
0 5 17 0.0000 0.0000
0 5 18 0.0000 0.0000
0 5 19 0.0000 0.0000
0 5 20 0.0000 0.0000
0 5 21 0.0000 0.0000
0 5 22 0.0000 0.0000
0 5 23 0.0000 0.0000
0 5 24 0.0000 0.0000
0 5 25 0.0000 0.0000
0 5 26 0.0000 0.0000
0 5 27 0.0000 0.0000
0 5 28 0.0000 0.0000
0 5 29 0.0000 0.0000
0 5 30 0.0000 0.0000
0 5 31 0.0000 0.0000
0 6 0 0.0000 0.0000
0 6 1 0.0000 0.0000
0 6 2 0.0000 0.0000
0 6 3 0.0000 0.0000
0 6 4 0.0000 0.0000
0 6 5 0.0000 0.0000
0 6 6 0.0000 0.0000
0 6 7 0.0000 0.0000
0 6 8 0.0000 0.0000
0 6 9 0.0000 0.0000
0 6 10 0.0000 0.0000
0 6 11 0.0000 0.0000
0 6 12 0.0000 0.0000
0 6 13 0.0000 0.0000
0 6 14 0.0000 0.0000
0 6 15 0.0000 0.0000
0 6 16 0.0000 0.0000
0 6 17 0.0000 0.0000
0 6 18 0.0000 0.0000
0 6 19 0.0000 0.0000
0 6 20 0.0000 0.0000
0 6 21 0.0000 0.0000
0 6 22 0.0000 0.0000
0 6 23 0.0000 0.0000
0 6 24 0.0000 0.0000
0 6 25 0.0000 0.0000
0 6 26 0.0000 0.0000
0 6 27 0.0000 0.0000
0 6 28 0.0000 0.0000
0 6 29 0.0000 0.0000
0 6 30 0.0000 0.0000
0 6 31 0.0000 0.0000
0 7 1 0.0000 0.0000
0 7 2 0.0000 0.0000
0 7 3 0.0000 0.0000
0 7 4 0.0000 0.0000
0 7 5 0.0000 0.0000
0 7 6 0.0000 0.0000
0 7 7 0.0000 0.0000
0 7 8 0.0000 0.0000
0 7 9 0.0000 0.0000
0 7 10 0.0000 0.0000
0 7 11 0.0000 0.0000
0 7 12 0.0000 0.0000
0 7 13 0.0000 0.0000
0 7 14 0.0000 0.0000
0 7 15 0.0000 0.0000
0 7 16 0.0000 0.0000
0 7 17 0.0000 0.0000
0 7 18 0.0000 0.0000
0 7 19 0.0000 0.0000
0 7 20 0.0000 0.0000
0 7 21 0.0000 0.0000
0 7 22 0.0000 0.0000
0 7 23 0.0000 0.0000
0 7 24 0.0000 0.0000
0 7 25 0.0000 0.0000
0 7 26 0.0000 0.0000
0 7 27 0.0000 0.0000
0 7 28 0.0000 0.0000
0 7 29 0.0000 0.0000
0 7 30 0.0000 0.0000
0 8 0 0.0000 0.0000
0 8 1 0.0000 0.0000
0 8 2 0.0000 0.0000
0 8 3 0.0000 0.0000
0 8 4 0.0000 0.0000
0 8 5 0.0000 0.0000
0 8 6 0.0000 0.0000
0 8 7 0.0000 0.0000
0 8 8 0.0000 0.0000
0 8 9 0.0000 0.0000
0 8 10 0.0000 0.0000
0 8 11 0.0000 0.0000
0 8 12 0.0000 0.0000
0 8 13 0.0000 0.0000
0 8 14 0.0000 0.0000
0 8 15 0.0000 0.0000
0 8 16 0.0000 0.0000
0 8 17 0.0000 0.0000
0 8 18 0.0000 0.0000
0 8 19 0.0000 0.0000
0 8 20 0.0000 0.0000
0 8 21 0.0000 0.0000
0 8 22 0.0000 0.0000
0 8 23 0.0000 0.0000
0 8 24 0.0000 0.0000
0 8 25 0.0000 0.0000
0 8 26 0.0000 0.0000
0 8 27 0.0000 0.0000
0 8 28 0.0000 0.0000
0 8 29 0.0000 0.0000
0 9 1 0.0000 0.0000
0 9 2 0.0000 0.0000
0 9 3 0.0000 0.0000
0 9 4 0.0000 0.0000
0 9 5 0.0000 0.0000
0 9 6 0.0000 0.0000
0 9 7 0.0000 0.0000
0 9 8 0.0000 0.0000
0 9 9 0.0000 0.0000
0 9 10 0.0000 0.0000
0 9 11 0.0000 0.0000
0 9 12 0.0000 0.0000
0 9 13 0.0000 0.0000
0 9 14 0.0000 0.0000
0 9 15 0.0000 0.0000
0 9 16 0.0000 0.0000
0 9 17 0.0000 0.0000
0 9 18 0.0000 0.0000
0 9 19 0.0000 0.0000
0 9 20 0.0000 0.0000
0 9 21 0.0000 0.0000
0 9 22 0.0000 0.0000
0 9 23 0.0000 0.0000
0 9 24 0.0000 0.0000
0 9 25 0.0000 0.0000
0 9 26 0.0000 0.0000
0 9 27 0.0000 0.0000
0 9 28 0.0000 0.0000
0 10 0 0.0000 0.0000
0 10 1 0.0000 0.0000
0 10 2 0.0000 0.0000
0 10 3 0.0000 0.0000
0 10 4 0.0000 0.0000
0 10 5 0.0000 0.0000
0 10 6 0.0000 0.0000
0 10 7 0.0000 0.0000
0 10 8 0.0000 0.0000
0 10 9 0.0000 0.0000
0 10 10 0.0000 0.0000
0 10 11 0.0000 0.0000
0 10 12 0.0000 0.0000
0 10 13 0.0000 0.0000
0 10 14 0.0000 0.0000
0 10 15 0.0000 0.0000
0 10 16 0.0000 0.0000
0 10 17 0.0000 0.0000
0 10 18 0.0000 0.0000
0 10 19 0.0000 0.0000
0 10 20 0.0000 0.0000
0 10 21 0.0000 0.0000
0 10 22 0.0000 0.0000
0 10 23 0.0000 0.0000
0 10 24 0.0000 0.0000
0 10 25 0.0000 0.0000
0 10 26 0.0000 0.0000
0 10 27 0.0000 0.0000
0 11 1 0.0000 0.0000
0 11 2 0.0000 0.0000
0 11 3 0.0000 0.0000
0 11 4 0.0000 0.0000
0 11 5 0.0000 0.0000
0 11 6 0.0000 0.0000
0 11 7 0.0000 0.0000
0 11 8 0.0000 0.0000
0 11 9 0.0000 0.0000
0 11 10 0.0000 0.0000
0 11 11 0.0000 0.0000
0 11 12 0.0000 0.0000
0 11 13 0.0000 0.0000
0 11 14 0.0000 0.0000
0 11 15 0.0000 0.0000
0 11 16 0.0000 0.0000
0 11 17 0.0000 0.0000
0 11 18 0.0000 0.0000
0 11 19 0.0000 0.0000
0 11 20 0.0000 0.0000
0 11 21 0.0000 0.0000
0 11 22 0.0000 0.0000
0 11 23 0.0000 0.0000
0 11 24 0.0000 0.0000
0 11 25 0.0000 0.0000
0 12 0 0.0000 0.0000
0 12 1 0.0000 0.0000
0 12 2 0.0000 0.0000
0 12 3 0.0000 0.0000
0 12 4 0.0000 0.0000
0 12 5 0.0000 0.0000
0 12 6 0.0000 0.0000
0 12 7 0.0000 0.0000
0 12 8 0.0000 0.0000
0 12 9 0.0000 0.0000
0 12 10 0.0000 0.0000
0 12 11 0.0000 0.0000
0 12 12 0.0000 0.0000
0 12 13 0.0000 0.0000
0 12 14 0.0000 0.0000
0 12 15 0.0000 0.0000
0 12 16 0.0000 0.0000
0 12 17 0.0000 0.0000
0 12 18 0.0000 0.0000
0 12 19 0.0000 0.0000
0 12 20 0.0000 0.0000
0 12 21 0.0000 0.0000
0 12 22 0.0000 0.0000
0 12 23 0.0000 0.0000
0 13 1 0.0000 0.0000
0 13 2 0.0000 0.0000
0 13 3 0.0000 0.0000
0 13 4 0.0000 0.0000
0 13 5 0.0000 0.0000
0 13 6 0.0000 0.0000
0 13 7 0.0000 0.0000
0 13 8 0.0000 0.0000
0 13 9 0.0000 0.0000
0 13 10 0.0000 0.0000
0 13 11 0.0000 0.0000
0 13 12 0.0000 0.0000
0 13 13 0.0000 0.0000
0 13 14 0.0000 0.0000
0 13 15 0.0000 0.0000
0 13 16 0.0000 0.0000
0 13 17 0.0000 0.0000
0 13 18 0.0000 0.0000
0 13 19 0.0000 0.0000
0 13 20 0.0000 0.0000
0 13 21 0.0000 0.0000
0 13 22 0.0000 0.0000
0 14 0 0.0000 0.0000
0 14 1 0.0000 0.0000
0 14 2 0.0000 0.0000
0 14 3 0.0000 0.0000
0 14 4 0.0000 0.0000
0 14 5 0.0000 0.0000
0 14 6 0.0000 0.0000
0 14 7 0.0000 0.0000
0 14 8 0.0000 0.0000
0 14 9 0.0000 0.0000
0 14 10 0.0000 0.0000
0 14 11 0.0000 0.0000
0 14 12 0.0000 0.0000
0 14 13 0.0000 0.0000
0 14 14 0.0000 0.0000
0 14 15 0.0000 0.0000
0 14 16 0.0000 0.0000
0 14 17 0.0000 0.0000
0 14 18 0.0000 0.0000
0 14 19 0.0000 0.0000
0 15 1 0.0000 0.0000
0 15 2 0.0000 0.0000
0 15 3 0.0000 0.0000
0 15 4 0.0000 0.0000
0 15 5 0.0000 0.0000
0 15 6 0.0000 0.0000
0 15 7 0.0000 0.0000
0 15 8 0.0000 0.0000
0 15 9 0.0000 0.0000
0 15 10 0.0000 0.0000
0 15 11 0.0000 0.0000
0 15 12 0.0000 0.0000
0 15 13 0.0000 0.0000
0 15 14 0.0000 0.0000
0 15 15 0.0000 0.0000
0 15 16 0.0000 0.0000
0 16 0 0.0000 0.0000
0 16 1 0.0000 0.0000
0 16 2 0.0000 0.0000
0 16 3 0.0000 0.0000
0 16 4 0.0000 0.0000
0 16 5 0.0000 0.0000
0 16 6 0.0000 0.0000
0 16 7 0.0000 0.0000
0 16 8 0.0000 0.0000
0 16 9 0.0000 0.0000
0 16 10 0.0000 0.0000
0 16 11 0.0000 0.0000
0 16 12 0.0000 0.0000
0 17 1 0.0000 0.0000
0 17 2 0.0000 0.0000
0 17 3 0.0000 0.0000
0 17 4 0.0000 0.0000
0 17 5 0.0000 0.0000
0 17 6 0.0000 0.0000
1 0 3 0.0000 0.0000
1 0 11 0.0000 0.0000
1 0 13 0.0000 0.0000
1 0 17 0.0000 0.0000
1 0 19 0.0000 0.0000
1 0 21 0.0000 0.0000
1 0 23 0.0000 0.0000
1 0 27 0.0000 0.0000
1 0 29 0.0000 0.0000
1 0 31 0.0000 0.0000
1 1 1 0.0000 0.0000
1 1 2 0.0000 0.0000
1 1 3 0.0000 0.0000
1 1 4 0.0000 0.0000
1 1 5 0.0000 0.0000
1 1 6 0.0000 0.0000
1 1 7 0.0000 0.0000
1 1 9 0.0000 0.0000
1 1 11 0.0000 0.0000
1 1 12 0.0000 0.0000
1 1 13 0.0000 0.0000
1 1 14 0.0000 0.0000
1 1 15 0.0000 0.0000
1 1 16 0.0000 0.0000
1 1 18 0.0000 0.0000
1 1 19 0.0000 0.0000
1 1 20 0.0000 0.0000
1 1 21 0.0000 0.0000
1 1 22 0.0000 0.0000
1 1 23 0.0000 0.0000
1 1 24 0.0000 0.0000
1 1 25 0.0000 0.0000
1 1 26 0.0000 0.0000
1 1 27 0.0000 0.0000
1 1 28 0.0000 0.0000
1 1 29 0.0000 0.0000
1 1 30 0.0000 0.0000
1 1 31 0.0000 0.0000
1 1 32 0.0000 0.0000
1 2 2 0.0000 0.0000
1 2 3 0.0000 0.0000
1 2 4 0.0000 0.0000
1 2 5 0.0000 0.0000
1 2 6 0.0000 0.0000
1 2 7 0.0000 0.0000
1 2 8 0.0000 0.0000
1 2 9 0.0000 0.0000
1 2 12 0.0000 0.0000
1 2 13 0.0000 0.0000
1 2 14 0.0000 0.0000
1 2 15 0.0000 0.0000
1 2 16 0.0000 0.0000
1 2 17 0.0000 0.0000
1 2 18 0.0000 0.0000
1 2 19 0.0000 0.0000
1 2 20 0.0000 0.0000
1 2 21 0.0000 0.0000
1 2 22 0.0000 0.0000
1 2 23 0.0000 0.0000
1 2 24 0.0000 0.0000
1 2 25 0.0000 0.0000
1 2 26 0.0000 0.0000
1 2 27 0.0000 0.0000
1 2 28 0.0000 0.0000
1 2 29 0.0000 0.0000
1 2 30 0.0000 0.0000
1 2 31 0.0000 0.0000
1 2 32 0.0000 0.0000
1 3 5 0.0000 0.0000
1 3 6 0.0000 0.0000
1 3 7 0.0000 0.0000
1 3 8 0.0000 0.0000
1 3 9 0.0000 0.0000
1 3 10 0.0000 0.0000
1 3 11 0.0000 0.0000
1 3 12 0.0000 0.0000
1 3 13 0.0000 0.0000
1 3 14 0.0000 0.0000
1 3 15 0.0000 0.0000
1 3 16 0.0000 0.0000
1 3 17 0.0000 0.0000
1 3 18 0.0000 0.0000
1 3 19 0.0000 0.0000
1 3 20 0.0000 0.0000
1 3 21 0.0000 0.0000
1 3 23 0.0000 0.0000
1 3 24 0.0000 0.0000
1 3 25 0.0000 0.0000
1 3 26 0.0000 0.0000
1 3 27 0.0000 0.0000
1 3 28 0.0000 0.0000
1 3 29 0.0000 0.0000
1 3 30 0.0000 0.0000
1 3 31 0.0000 0.0000
1 3 32 0.0000 0.0000
1 4 4 0.0000 0.0000
1 4 6 0.0000 0.0000
1 4 7 0.0000 0.0000
1 4 8 0.0000 0.0000
1 4 9 0.0000 0.0000
1 4 10 0.0000 0.0000
1 4 11 0.0000 0.0000
1 4 12 0.0000 0.0000
1 4 13 0.0000 0.0000
1 4 14 0.0000 0.0000
1 4 15 0.0000 0.0000
1 4 16 0.0000 0.0000
1 4 17 0.0000 0.0000
1 4 18 0.0000 0.0000
1 4 19 0.0000 0.0000
1 4 20 0.0000 0.0000
1 4 21 0.0000 0.0000
1 4 22 0.0000 0.0000
1 4 23 0.0000 0.0000
1 4 24 0.0000 0.0000
1 4 25 0.0000 0.0000
1 4 26 0.0000 0.0000
1 4 27 0.0000 0.0000
1 4 28 0.0000 0.0000
1 4 29 0.0000 0.0000
1 4 30 0.0000 0.0000
1 4 31 0.0000 0.0000
1 4 32 0.0000 0.0000
1 5 1 0.0000 0.0000
1 5 2 0.0000 0.0000
1 5 3 0.0000 0.0000
1 5 4 0.0000 0.0000
1 5 5 0.0000 0.0000
1 5 6 0.0000 0.0000
1 5 7 0.0000 0.0000
1 5 8 0.0000 0.0000
1 5 9 0.0000 0.0000
1 5 10 0.0000 0.0000
1 5 11 0.0000 0.0000
1 5 12 0.0000 0.0000
1 5 14 0.0000 0.0000
1 5 15 0.0000 0.0000
1 5 16 0.0000 0.0000
1 5 17 0.0000 0.0000
1 5 18 0.0000 0.0000
1 5 19 0.0000 0.0000
1 5 20 0.0000 0.0000
1 5 21 0.0000 0.0000
1 5 22 0.0000 0.0000
1 5 24 0.0000 0.0000
1 5 25 0.0000 0.0000
1 5 26 0.0000 0.0000
1 5 27 0.0000 0.0000
1 5 28 0.0000 0.0000
1 5 29 0.0000 0.0000
1 5 30 0.0000 0.0000
1 5 31 0.0000 0.0000
1 6 1 0.0000 0.0000
1 6 2 0.0000 0.0000
1 6 3 0.0000 0.0000
1 6 4 0.0000 0.0000
1 6 5 0.0000 0.0000
1 6 6 0.0000 0.0000
1 6 7 0.0000 0.0000
1 6 8 0.0000 0.0000
1 6 9 0.0000 0.0000
1 6 10 0.0000 0.0000
1 6 11 0.0000 0.0000
1 6 12 0.0000 0.0000
1 6 13 0.0000 0.0000
1 6 14 0.0000 0.0000
1 6 15 0.0000 0.0000
1 6 16 0.0000 0.0000
1 6 17 0.0000 0.0000
1 6 18 0.0000 0.0000
1 6 19 0.0000 0.0000
1 6 20 0.0000 0.0000
1 6 21 0.0000 0.0000
1 6 22 0.0000 0.0000
1 6 23 0.0000 0.0000
1 6 24 0.0000 0.0000
1 6 25 0.0000 0.0000
1 6 26 0.0000 0.0000
1 6 27 0.0000 0.0000
1 6 28 0.0000 0.0000
1 6 29 0.0000 0.0000
1 6 30 0.0000 0.0000
1 7 1 0.0000 0.0000
1 7 2 0.0000 0.0000
1 7 3 0.0000 0.0000
1 7 4 0.0000 0.0000
1 7 5 0.0000 0.0000
1 7 7 0.0000 0.0000
1 7 9 0.0000 0.0000
1 7 10 0.0000 0.0000
1 7 11 0.0000 0.0000
1 7 12 0.0000 0.0000
1 7 13 0.0000 0.0000
1 7 14 0.0000 0.0000
1 7 15 0.0000 0.0000
1 7 16 0.0000 0.0000
1 7 17 0.0000 0.0000
1 7 18 0.0000 0.0000
1 7 19 0.0000 0.0000
1 7 20 0.0000 0.0000
1 7 21 0.0000 0.0000
1 7 22 0.0000 0.0000
1 7 23 0.0000 0.0000
1 7 24 0.0000 0.0000
1 7 25 0.0000 0.0000
1 7 26 0.0000 0.0000
1 7 27 0.0000 0.0000
1 7 28 0.0000 0.0000
1 7 29 0.0000 0.0000
1 7 30 0.0000 0.0000
1 8 1 0.0000 0.0000
1 8 3 0.0000 0.0000
1 8 4 0.0000 0.0000
1 8 5 0.0000 0.0000
1 8 7 0.0000 0.0000
1 8 8 0.0000 0.0000
1 8 9 0.0000 0.0000
1 8 10 0.0000 0.0000
1 8 11 0.0000 0.0000
1 8 12 0.0000 0.0000
1 8 13 0.0000 0.0000
1 8 14 0.0000 0.0000
1 8 15 0.0000 0.0000
1 8 16 0.0000 0.0000
1 8 17 0.0000 0.0000
1 8 18 0.0000 0.0000
1 8 19 0.0000 0.0000
1 8 20 0.0000 0.0000
1 8 21 0.0000 0.0000
1 8 22 0.0000 0.0000
1 8 23 0.0000 0.0000
1 8 24 0.0000 0.0000
1 8 25 0.0000 0.0000
1 8 26 0.0000 0.0000
1 8 27 0.0000 0.0000
1 8 28 0.0000 0.0000
1 8 29 0.0000 0.0000
1 9 1 0.0000 0.0000
1 9 2 0.0000 0.0000
1 9 3 0.0000 0.0000
1 9 4 0.0000 0.0000
1 9 5 0.0000 0.0000
1 9 6 0.0000 0.0000
1 9 8 0.0000 0.0000
1 9 9 0.0000 0.0000
1 9 10 0.0000 0.0000
1 9 11 0.0000 0.0000
1 9 12 0.0000 0.0000
1 9 13 0.0000 0.0000
1 9 14 0.0000 0.0000
1 9 15 0.0000 0.0000
1 9 16 0.0000 0.0000
1 9 17 0.0000 0.0000
1 9 18 0.0000 0.0000
1 9 19 0.0000 0.0000
1 9 20 0.0000 0.0000
1 9 21 0.0000 0.0000
1 9 22 0.0000 0.0000
1 9 23 0.0000 0.0000
1 9 24 0.0000 0.0000
1 9 25 0.0000 0.0000
1 9 26 0.0000 0.0000
1 9 27 0.0000 0.0000
1 9 28 0.0000 0.0000
1 10 1 0.0000 0.0000
1 10 2 0.0000 0.0000
1 10 3 0.0000 0.0000
1 10 4 0.0000 0.0000
1 10 5 0.0000 0.0000
1 10 6 0.0000 0.0000
1 10 7 0.0000 0.0000
1 10 8 0.0000 0.0000
1 10 9 0.0000 0.0000
1 10 10 0.0000 0.0000
1 10 11 0.0000 0.0000
1 10 12 0.0000 0.0000
1 10 13 0.0000 0.0000
1 10 14 0.0000 0.0000
1 10 15 0.0000 0.0000
1 10 16 0.0000 0.0000
1 10 17 0.0000 0.0000
1 10 18 0.0000 0.0000
1 10 19 0.0000 0.0000
1 10 20 0.0000 0.0000
1 10 21 0.0000 0.0000
1 10 22 0.0000 0.0000
1 10 23 0.0000 0.0000
1 10 24 0.0000 0.0000
1 10 25 0.0000 0.0000
1 10 26 0.0000 0.0000
1 11 1 0.0000 0.0000
1 11 2 0.0000 0.0000
1 11 3 0.0000 0.0000
1 11 4 0.0000 0.0000
1 11 5 0.0000 0.0000
1 11 6 0.0000 0.0000
1 11 7 0.0000 0.0000
1 11 8 0.0000 0.0000
1 11 9 0.0000 0.0000
1 11 10 0.0000 0.0000
1 11 11 0.0000 0.0000
1 11 12 0.0000 0.0000
1 11 13 0.0000 0.0000
1 11 14 0.0000 0.0000
1 11 15 0.0000 0.0000
1 11 16 0.0000 0.0000
1 11 17 0.0000 0.0000
1 11 18 0.0000 0.0000
1 11 19 0.0000 0.0000
1 11 20 0.0000 0.0000
1 11 21 0.0000 0.0000
1 11 22 0.0000 0.0000
1 11 23 0.0000 0.0000
1 11 24 0.0000 0.0000
1 11 25 0.0000 0.0000
1 12 1 0.0000 0.0000
1 12 2 0.0000 0.0000
1 12 3 0.0000 0.0000
1 12 4 0.0000 0.0000
1 12 5 0.0000 0.0000
1 12 6 0.0000 0.0000
1 12 7 0.0000 0.0000
1 12 8 0.0000 0.0000
1 12 9 0.0000 0.0000
1 12 10 0.0000 0.0000
1 12 11 0.0000 0.0000
1 12 12 0.0000 0.0000
1 12 13 0.0000 0.0000
1 12 14 0.0000 0.0000
1 12 15 0.0000 0.0000
1 12 16 0.0000 0.0000
1 12 17 0.0000 0.0000
1 12 18 0.0000 0.0000
1 12 19 0.0000 0.0000
1 12 20 0.0000 0.0000
1 12 21 0.0000 0.0000
1 12 22 0.0000 0.0000
1 12 23 0.0000 0.0000
1 13 1 0.0000 0.0000
1 13 2 0.0000 0.0000
1 13 3 0.0000 0.0000
1 13 4 0.0000 0.0000
1 13 5 0.0000 0.0000
1 13 6 0.0000 0.0000
1 13 7 0.0000 0.0000
1 13 8 0.0000 0.0000
1 13 9 0.0000 0.0000
1 13 10 0.0000 0.0000
1 13 11 0.0000 0.0000
1 13 12 0.0000 0.0000
1 13 13 0.0000 0.0000
1 13 14 0.0000 0.0000
1 13 15 0.0000 0.0000
1 13 16 0.0000 0.0000
1 13 17 0.0000 0.0000
1 13 18 0.0000 0.0000
1 13 19 0.0000 0.0000
1 13 20 0.0000 0.0000
1 13 21 0.0000 0.0000
1 14 1 0.0000 0.0000
1 14 2 0.0000 0.0000
1 14 3 0.0000 0.0000
1 14 4 0.0000 0.0000
1 14 5 0.0000 0.0000
1 14 6 0.0000 0.0000
1 14 7 0.0000 0.0000
1 14 8 0.0000 0.0000
1 14 9 0.0000 0.0000
1 14 10 0.0000 0.0000
1 14 11 0.0000 0.0000
1 14 12 0.0000 0.0000
1 14 13 0.0000 0.0000
1 14 14 0.0000 0.0000
1 14 15 0.0000 0.0000
1 14 16 0.0000 0.0000
1 14 17 0.0000 0.0000
1 14 18 0.0000 0.0000
1 14 19 0.0000 0.0000
1 15 1 0.0000 0.0000
1 15 2 0.0000 0.0000
1 15 3 0.0000 0.0000
1 15 4 0.0000 0.0000
1 15 5 0.0000 0.0000
1 15 6 0.0000 0.0000
1 15 7 0.0000 0.0000
1 15 8 0.0000 0.0000
1 15 9 0.0000 0.0000
1 15 10 0.0000 0.0000
1 15 11 0.0000 0.0000
1 15 12 0.0000 0.0000
1 15 13 0.0000 0.0000
1 15 14 0.0000 0.0000
1 15 15 0.0000 0.0000
1 15 16 0.0000 0.0000
1 16 1 0.0000 0.0000
1 16 2 0.0000 0.0000
1 16 3 0.0000 0.0000
1 16 4 0.0000 0.0000
1 16 5 0.0000 0.0000
1 16 6 0.0000 0.0000
1 16 7 0.0000 0.0000
1 16 8 0.0000 0.0000
1 16 9 0.0000 0.0000
1 16 10 0.0000 0.0000
1 16 11 0.0000 0.0000
1 16 12 0.0000 0.0000
1 17 1 0.0000 0.0000
1 17 2 0.0000 0.0000
1 17 3 0.0000 0.0000
1 17 4 0.0000 0.0000
1 17 5 0.0000 0.0000
1 17 6 0.0000 0.0000
2 0 2 0.0000 0.0000
2 0 4 0.0000 0.0000
2 0 6 0.0000 0.0000
2 0 12 0.0000 0.0000
2 0 16 0.0000 0.0000
2 0 18 0.0000 0.0000
2 0 20 0.0000 0.0000
2 0 22 0.0000 0.0000
2 0 24 0.0000 0.0000
2 0 26 0.0000 0.0000
2 0 28 0.0000 0.0000
2 0 30 0.0000 0.0000
2 0 32 0.0000 0.0000
2 1 2 0.0000 0.0000
2 1 3 0.0000 0.0000
2 1 4 0.0000 0.0000
2 1 5 0.0000 0.0000
2 1 6 0.0000 0.0000
2 1 7 0.0000 0.0000
2 1 8 0.0000 0.0000
2 1 9 0.0000 0.0000
2 1 10 0.0000 0.0000
2 1 11 0.0000 0.0000
2 1 12 0.0000 0.0000
2 1 13 0.0000 0.0000
2 1 14 0.0000 0.0000
2 1 15 0.0000 0.0000
2 1 16 0.0000 0.0000
2 1 17 0.0000 0.0000
2 1 18 0.0000 0.0000
2 1 19 0.0000 0.0000
2 1 21 0.0000 0.0000
2 1 22 0.0000 0.0000
2 1 23 0.0000 0.0000
2 1 24 0.0000 0.0000
2 1 25 0.0000 0.0000
2 1 26 0.0000 0.0000
2 1 27 0.0000 0.0000
2 1 28 0.0000 0.0000
2 1 29 0.0000 0.0000
2 1 30 0.0000 0.0000
2 1 31 0.0000 0.0000
2 1 32 0.0000 0.0000
2 2 2 0.0000 0.0000
2 2 3 0.0000 0.0000
2 2 4 0.0000 0.0000
2 2 5 0.0000 0.0000
2 2 6 0.0000 0.0000
2 2 7 0.0000 0.0000
2 2 8 0.0000 0.0000
2 2 9 0.0000 0.0000
2 2 10 0.0000 0.0000
2 2 11 0.0000 0.0000
2 2 12 0.0000 0.0000
2 2 13 0.0000 0.0000
2 2 14 0.0000 0.0000
2 2 15 0.0000 0.0000
2 2 16 0.0000 0.0000
2 2 17 0.0000 0.0000
2 2 18 0.0000 0.0000
2 2 19 0.0000 0.0000
2 2 20 0.0000 0.0000
2 2 21 0.0000 0.0000
2 2 22 0.0000 0.0000
2 2 23 0.0000 0.0000
2 2 24 0.0000 0.0000
2 2 25 0.0000 0.0000
2 2 26 0.0000 0.0000
2 2 27 0.0000 0.0000
2 2 28 0.0000 0.0000
2 2 29 0.0000 0.0000
2 2 30 0.0000 0.0000
2 2 31 0.0000 0.0000
2 2 32 0.0000 0.0000
2 3 2 0.0000 0.0000
2 3 3 0.0000 0.0000
2 3 4 0.0000 0.0000
2 3 5 0.0000 0.0000
2 3 6 0.0000 0.0000
2 3 7 0.0000 0.0000
2 3 8 0.0000 0.0000
2 3 9 0.0000 0.0000
2 3 10 0.0000 0.0000
2 3 11 0.0000 0.0000
2 3 12 0.0000 0.0000
2 3 13 0.0000 0.0000
2 3 14 0.0000 0.0000
2 3 15 0.0000 0.0000
2 3 16 0.0000 0.0000
2 3 17 0.0000 0.0000
2 3 18 0.0000 0.0000
2 3 19 0.0000 0.0000
2 3 20 0.0000 0.0000
2 3 21 0.0000 0.0000
2 3 22 0.0000 0.0000
2 3 23 0.0000 0.0000
2 3 24 0.0000 0.0000
2 3 25 0.0000 0.0000
2 3 26 0.0000 0.0000
2 3 27 0.0000 0.0000
2 3 28 0.0000 0.0000
2 3 29 0.0000 0.0000
2 3 30 0.0000 0.0000
2 3 31 0.0000 0.0000
2 3 32 0.0000 0.0000
2 4 4 0.0000 0.0000
2 4 5 0.0000 0.0000
2 4 6 0.0000 0.0000
2 4 7 0.0000 0.0000
2 4 8 0.0000 0.0000
2 4 9 0.0000 0.0000
2 4 10 0.0000 0.0000
2 4 11 0.0000 0.0000
2 4 12 0.0000 0.0000
2 4 13 0.0000 0.0000
2 4 14 0.0000 0.0000
2 4 15 0.0000 0.0000
2 4 17 0.0000 0.0000
2 4 18 0.0000 0.0000
2 4 19 0.0000 0.0000
2 4 20 0.0000 0.0000
2 4 21 0.0000 0.0000
2 4 22 0.0000 0.0000
2 4 23 0.0000 0.0000
2 4 24 0.0000 0.0000
2 4 25 0.0000 0.0000
2 4 26 0.0000 0.0000
2 4 27 0.0000 0.0000
2 4 28 0.0000 0.0000
2 4 29 0.0000 0.0000
2 4 30 0.0000 0.0000
2 4 31 0.0000 0.0000
2 5 2 0.0000 0.0000
2 5 3 0.0000 0.0000
2 5 4 0.0000 0.0000
2 5 5 0.0000 0.0000
2 5 6 0.0000 0.0000
2 5 7 0.0000 0.0000
2 5 8 0.0000 0.0000
2 5 9 0.0000 0.0000
2 5 10 0.0000 0.0000
2 5 11 0.0000 0.0000
2 5 12 0.0000 0.0000
2 5 13 0.0000 0.0000
2 5 14 0.0000 0.0000
2 5 15 0.0000 0.0000
2 5 16 0.0000 0.0000
2 5 17 0.0000 0.0000
2 5 18 0.0000 0.0000
2 5 19 0.0000 0.0000
2 5 20 0.0000 0.0000
2 5 21 0.0000 0.0000
2 5 22 0.0000 0.0000
2 5 23 0.0000 0.0000
2 5 24 0.0000 0.0000
2 5 25 0.0000 0.0000
2 5 26 0.0000 0.0000
2 5 27 0.0000 0.0000
2 5 28 0.0000 0.0000
2 5 29 0.0000 0.0000
2 5 30 0.0000 0.0000
2 5 31 0.0000 0.0000
2 6 2 0.0000 0.0000
2 6 3 0.0000 0.0000
2 6 4 0.0000 0.0000
2 6 5 0.0000 0.0000
2 6 6 0.0000 0.0000
2 6 7 0.0000 0.0000
2 6 8 0.0000 0.0000
2 6 9 0.0000 0.0000
2 6 10 0.0000 0.0000
2 6 11 0.0000 0.0000
2 6 12 0.0000 0.0000
2 6 13 0.0000 0.0000
2 6 14 0.0000 0.0000
2 6 15 0.0000 0.0000
2 6 16 0.0000 0.0000
2 6 17 0.0000 0.0000
2 6 18 0.0000 0.0000
2 6 19 0.0000 0.0000
2 6 20 0.0000 0.0000
2 6 21 0.0000 0.0000
2 6 22 0.0000 0.0000
2 6 23 0.0000 0.0000
2 6 24 0.0000 0.0000
2 6 25 0.0000 0.0000
2 6 26 0.0000 0.0000
2 6 27 0.0000 0.0000
2 6 28 0.0000 0.0000
2 6 29 0.0000 0.0000
2 6 30 0.0000 0.0000
2 7 2 0.0000 0.0000
2 7 3 0.0000 0.0000
2 7 4 0.0000 0.0000
2 7 5 0.0000 0.0000
2 7 6 0.0000 0.0000
2 7 7 0.0000 0.0000
2 7 8 0.0000 0.0000
2 7 9 0.0000 0.0000
2 7 10 0.0000 0.0000
2 7 11 0.0000 0.0000
2 7 12 0.0000 0.0000
2 7 13 0.0000 0.0000
2 7 14 0.0000 0.0000
2 7 15 0.0000 0.0000
2 7 16 0.0000 0.0000
2 7 17 0.0000 0.0000
2 7 18 0.0000 0.0000
2 7 19 0.0000 0.0000
2 7 20 0.0000 0.0000
2 7 21 0.0000 0.0000
2 7 22 0.0000 0.0000
2 7 23 0.0000 0.0000
2 7 24 0.0000 0.0000
2 7 25 0.0000 0.0000
2 7 26 0.0000 0.0000
2 7 27 0.0000 0.0000
2 7 28 0.0000 0.0000
2 7 29 0.0000 0.0000
2 8 2 0.0000 0.0000
2 8 3 0.0000 0.0000
2 8 4 0.0000 0.0000
2 8 5 0.0000 0.0000
2 8 6 0.0000 0.0000
2 8 7 0.0000 0.0000
2 8 8 0.0000 0.0000
2 8 9 0.0000 0.0000
2 8 10 0.0000 0.0000
2 8 11 0.0000 0.0000
2 8 12 0.0000 0.0000
2 8 13 0.0000 0.0000
2 8 14 0.0000 0.0000
2 8 15 0.0000 0.0000
2 8 16 0.0000 0.0000
2 8 17 0.0000 0.0000
2 8 18 0.0000 0.0000
2 8 19 0.0000 0.0000
2 8 20 0.0000 0.0000
2 8 21 0.0000 0.0000
2 8 22 0.0000 0.0000
2 8 23 0.0000 0.0000
2 8 24 0.0000 0.0000
2 8 25 0.0000 0.0000
2 8 26 0.0000 0.0000
2 8 27 0.0000 0.0000
2 8 28 0.0000 0.0000
2 9 2 0.0000 0.0000
2 9 3 0.0000 0.0000
2 9 4 0.0000 0.0000
2 9 5 0.0000 0.0000
2 9 6 0.0000 0.0000
2 9 7 0.0000 0.0000
2 9 8 0.0000 0.0000
2 9 9 0.0000 0.0000
2 9 10 0.0000 0.0000
2 9 11 0.0000 0.0000
2 9 12 0.0000 0.0000
2 9 13 0.0000 0.0000
2 9 14 0.0000 0.0000
2 9 15 0.0000 0.0000
2 9 16 0.0000 0.0000
2 9 17 0.0000 0.0000
2 9 18 0.0000 0.0000
2 9 19 0.0000 0.0000
2 9 20 0.0000 0.0000
2 9 21 0.0000 0.0000
2 9 22 0.0000 0.0000
2 9 23 0.0000 0.0000
2 9 24 0.0000 0.0000
2 9 25 0.0000 0.0000
2 9 26 0.0000 0.0000
2 9 27 0.0000 0.0000
2 10 2 0.0000 0.0000
2 10 3 0.0000 0.0000
2 10 4 0.0000 0.0000
2 10 5 0.0000 0.0000
2 10 6 0.0000 0.0000
2 10 7 0.0000 0.0000
2 10 8 0.0000 0.0000
2 10 9 0.0000 0.0000
2 10 10 0.0000 0.0000
2 10 11 0.0000 0.0000
2 10 12 0.0000 0.0000
2 10 13 0.0000 0.0000
2 10 14 0.0000 0.0000
2 10 15 0.0000 0.0000
2 10 16 0.0000 0.0000
2 10 17 0.0000 0.0000
2 10 18 0.0000 0.0000
2 10 19 0.0000 0.0000
2 10 20 0.0000 0.0000
2 10 21 0.0000 0.0000
2 10 22 0.0000 0.0000
2 10 23 0.0000 0.0000
2 10 24 0.0000 0.0000
2 10 25 0.0000 0.0000
2 10 26 0.0000 0.0000
2 11 2 0.0000 0.0000
2 11 3 0.0000 0.0000
2 11 4 0.0000 0.0000
2 11 5 0.0000 0.0000
2 11 6 0.0000 0.0000
2 11 7 0.0000 0.0000
2 11 8 0.0000 0.0000
2 11 9 0.0000 0.0000
2 11 10 0.0000 0.0000
2 11 11 0.0000 0.0000
2 11 12 0.0000 0.0000
2 11 13 0.0000 0.0000
2 11 14 0.0000 0.0000
2 11 15 0.0000 0.0000
2 11 16 0.0000 0.0000
2 11 17 0.0000 0.0000
2 11 18 0.0000 0.0000
2 11 19 0.0000 0.0000
2 11 20 0.0000 0.0000
2 11 21 0.0000 0.0000
2 11 22 0.0000 0.0000
2 11 23 0.0000 0.0000
2 11 24 0.0000 0.0000
2 11 25 0.0000 0.0000
2 12 2 0.0000 0.0000
2 12 3 0.0000 0.0000
2 12 4 0.0000 0.0000
2 12 5 0.0000 0.0000
2 12 6 0.0000 0.0000
2 12 7 0.0000 0.0000
2 12 8 0.0000 0.0000
2 12 9 0.0000 0.0000
2 12 10 0.0000 0.0000
2 12 11 0.0000 0.0000
2 12 12 0.0000 0.0000
2 12 13 0.0000 0.0000
2 12 14 0.0000 0.0000
2 12 15 0.0000 0.0000
2 12 16 0.0000 0.0000
2 12 17 0.0000 0.0000
2 12 18 0.0000 0.0000
2 12 19 0.0000 0.0000
2 12 20 0.0000 0.0000
2 12 21 0.0000 0.0000
2 12 22 0.0000 0.0000
2 12 23 0.0000 0.0000
2 13 2 0.0000 0.0000
2 13 3 0.0000 0.0000
2 13 4 0.0000 0.0000
2 13 5 0.0000 0.0000
2 13 6 0.0000 0.0000
2 13 7 0.0000 0.0000
2 13 8 0.0000 0.0000
2 13 9 0.0000 0.0000
2 13 10 0.0000 0.0000
2 13 11 0.0000 0.0000
2 13 12 0.0000 0.0000
2 13 13 0.0000 0.0000
2 13 14 0.0000 0.0000
2 13 15 0.0000 0.0000
2 13 16 0.0000 0.0000
2 13 17 0.0000 0.0000
2 13 18 0.0000 0.0000
2 13 19 0.0000 0.0000
2 13 20 0.0000 0.0000
2 13 21 0.0000 0.0000
2 14 2 0.0000 0.0000
2 14 3 0.0000 0.0000
2 14 4 0.0000 0.0000
2 14 5 0.0000 0.0000
2 14 6 0.0000 0.0000
2 14 7 0.0000 0.0000
2 14 8 0.0000 0.0000
2 14 9 0.0000 0.0000
2 14 10 0.0000 0.0000
2 14 11 0.0000 0.0000
2 14 12 0.0000 0.0000
2 14 13 0.0000 0.0000
2 14 14 0.0000 0.0000
2 14 15 0.0000 0.0000
2 14 16 0.0000 0.0000
2 14 17 0.0000 0.0000
2 14 18 0.0000 0.0000
2 15 2 0.0000 0.0000
2 15 3 0.0000 0.0000
2 15 4 0.0000 0.0000
2 15 5 0.0000 0.0000
2 15 6 0.0000 0.0000
2 15 7 0.0000 0.0000
2 15 8 0.0000 0.0000
2 15 9 0.0000 0.0000
2 15 10 0.0000 0.0000
2 15 11 0.0000 0.0000
2 15 12 0.0000 0.0000
2 15 13 0.0000 0.0000
2 15 14 0.0000 0.0000
2 15 15 0.0000 0.0000
2 16 2 0.0000 0.0000
2 16 3 0.0000 0.0000
2 16 4 0.0000 0.0000
2 16 5 0.0000 0.0000
2 16 6 0.0000 0.0000
2 16 7 0.0000 0.0000
2 16 8 0.0000 0.0000
2 16 9 0.0000 0.0000
2 16 10 0.0000 0.0000
2 16 11 0.0000 0.0000
2 17 2 0.0000 0.0000
2 17 3 0.0000 0.0000
2 17 4 0.0000 0.0000
2 17 5 0.0000 0.0000
3 0 3 0.0000 0.0000
3 0 5 0.0000 0.0000
3 0 9 0.0000 0.0000
3 0 11 0.0000 0.0000
3 0 13 0.0000 0.0000
3 0 15 0.0000 0.0000
3 0 21 0.0000 0.0000
3 0 23 0.0000 0.0000
3 0 25 0.0000 0.0000
3 0 27 0.0000 0.0000
3 0 29 0.0000 0.0000
3 0 31 0.0000 0.0000
3 1 3 0.0000 0.0000
3 1 4 0.0000 0.0000
3 1 5 0.0000 0.0000
3 1 6 0.0000 0.0000
3 1 8 0.0000 0.0000
3 1 9 0.0000 0.0000
3 1 10 0.0000 0.0000
3 1 11 0.0000 0.0000
3 1 12 0.0000 0.0000
3 1 13 0.0000 0.0000
3 1 14 0.0000 0.0000
3 1 15 0.0000 0.0000
3 1 16 0.0000 0.0000
3 1 17 0.0000 0.0000
3 1 18 0.0000 0.0000
3 1 20 0.0000 0.0000
3 1 21 0.0000 0.0000
3 1 22 0.0000 0.0000
3 1 23 0.0000 0.0000
3 1 24 0.0000 0.0000
3 1 25 0.0000 0.0000
3 1 26 0.0000 0.0000
3 1 27 0.0000 0.0000
3 1 28 0.0000 0.0000
3 1 29 0.0000 0.0000
3 1 30 0.0000 0.0000
3 1 31 0.0000 0.0000
3 1 32 0.0000 0.0000
3 2 3 0.0000 0.0000
3 2 4 0.0000 0.0000
3 2 5 0.0000 0.0000
3 2 6 0.0000 0.0000
3 2 7 0.0000 0.0000
3 2 8 0.0000 0.0000
3 2 9 0.0000 0.0000
3 2 10 0.0000 0.0000
3 2 12 0.0000 0.0000
3 2 13 0.0000 0.0000
3 2 14 0.0000 0.0000
3 2 15 0.0000 0.0000
3 2 16 0.0000 0.0000
3 2 17 0.0000 0.0000
3 2 18 0.0000 0.0000
3 2 19 0.0000 0.0000
3 2 20 0.0000 0.0000
3 2 21 0.0000 0.0000
3 2 22 0.0000 0.0000
3 2 23 0.0000 0.0000
3 2 24 0.0000 0.0000
3 2 25 0.0000 0.0000
3 2 26 0.0000 0.0000
3 2 27 0.0000 0.0000
3 2 28 0.0000 0.0000
3 2 29 0.0000 0.0000
3 2 30 0.0000 0.0000
3 2 31 0.0000 0.0000
3 3 3 0.0000 0.0000
3 3 4 0.0000 0.0000
3 3 5 0.0000 0.0000
3 3 6 0.0000 0.0000
3 3 7 0.0000 0.0000
3 3 8 0.0000 0.0000
3 3 9 0.0000 0.0000
3 3 10 0.0000 0.0000
3 3 11 0.0000 0.0000
3 3 12 0.0000 0.0000
3 3 13 0.0000 0.0000
3 3 14 0.0000 0.0000
3 3 15 0.0000 0.0000
3 3 16 0.0000 0.0000
3 3 17 0.0000 0.0000
3 3 18 0.0000 0.0000
3 3 19 0.0000 0.0000
3 3 20 0.0000 0.0000
3 3 21 0.0000 0.0000
3 3 22 0.0000 0.0000
3 3 23 0.0000 0.0000
3 3 24 0.0000 0.0000
3 3 25 0.0000 0.0000
3 3 26 0.0000 0.0000
3 3 27 0.0000 0.0000
3 3 28 0.0000 0.0000
3 3 29 0.0000 0.0000
3 3 30 0.0000 0.0000
3 3 31 0.0000 0.0000
3 4 3 0.0000 0.0000
3 4 4 0.0000 0.0000
3 4 5 0.0000 0.0000
3 4 6 0.0000 0.0000
3 4 7 0.0000 0.0000
3 4 8 0.0000 0.0000
3 4 9 0.0000 0.0000
3 4 10 0.0000 0.0000
3 4 11 0.0000 0.0000
3 4 12 0.0000 0.0000
3 4 13 0.0000 0.0000
3 4 14 0.0000 0.0000
3 4 15 0.0000 0.0000
3 4 16 0.0000 0.0000
3 4 17 0.0000 0.0000
3 4 18 0.0000 0.0000
3 4 19 0.0000 0.0000
3 4 20 0.0000 0.0000
3 4 21 0.0000 0.0000
3 4 22 0.0000 0.0000
3 4 23 0.0000 0.0000
3 4 24 0.0000 0.0000
3 4 25 0.0000 0.0000
3 4 26 0.0000 0.0000
3 4 27 0.0000 0.0000
3 4 28 0.0000 0.0000
3 4 29 0.0000 0.0000
3 4 30 0.0000 0.0000
3 4 31 0.0000 0.0000
3 5 3 0.0000 0.0000
3 5 4 0.0000 0.0000
3 5 5 0.0000 0.0000
3 5 6 0.0000 0.0000
3 5 7 0.0000 0.0000
3 5 8 0.0000 0.0000
3 5 9 0.0000 0.0000
3 5 10 0.0000 0.0000
3 5 11 0.0000 0.0000
3 5 12 0.0000 0.0000
3 5 13 0.0000 0.0000
3 5 14 0.0000 0.0000
3 5 15 0.0000 0.0000
3 5 16 0.0000 0.0000
3 5 17 0.0000 0.0000
3 5 18 0.0000 0.0000
3 5 19 0.0000 0.0000
3 5 20 0.0000 0.0000
3 5 21 0.0000 0.0000
3 5 22 0.0000 0.0000
3 5 23 0.0000 0.0000
3 5 24 0.0000 0.0000
3 5 25 0.0000 0.0000
3 5 26 0.0000 0.0000
3 5 27 0.0000 0.0000
3 5 28 0.0000 0.0000
3 5 29 0.0000 0.0000
3 5 30 0.0000 0.0000
3 6 4 0.0000 0.0000
3 6 5 0.0000 0.0000
3 6 6 0.0000 0.0000
3 6 7 0.0000 0.0000
3 6 8 0.0000 0.0000
3 6 9 0.0000 0.0000
3 6 10 0.0000 0.0000
3 6 11 0.0000 0.0000
3 6 12 0.0000 0.0000
3 6 13 0.0000 0.0000
3 6 14 0.0000 0.0000
3 6 15 0.0000 0.0000
3 6 16 0.0000 0.0000
3 6 17 0.0000 0.0000
3 6 18 0.0000 0.0000
3 6 19 0.0000 0.0000
3 6 20 0.0000 0.0000
3 6 21 0.0000 0.0000
3 6 22 0.0000 0.0000
3 6 23 0.0000 0.0000
3 6 24 0.0000 0.0000
3 6 25 0.0000 0.0000
3 6 26 0.0000 0.0000
3 6 27 0.0000 0.0000
3 6 28 0.0000 0.0000
3 6 29 0.0000 0.0000
3 6 30 0.0000 0.0000
3 7 3 0.0000 0.0000
3 7 4 0.0000 0.0000
3 7 5 0.0000 0.0000
3 7 6 0.0000 0.0000
3 7 7 0.0000 0.0000
3 7 8 0.0000 0.0000
3 7 9 0.0000 0.0000
3 7 10 0.0000 0.0000
3 7 11 0.0000 0.0000
3 7 12 0.0000 0.0000
3 7 13 0.0000 0.0000
3 7 14 0.0000 0.0000
3 7 15 0.0000 0.0000
3 7 16 0.0000 0.0000
3 7 17 0.0000 0.0000
3 7 18 0.0000 0.0000
3 7 19 0.0000 0.0000
3 7 20 0.0000 0.0000
3 7 21 0.0000 0.0000
3 7 22 0.0000 0.0000
3 7 23 0.0000 0.0000
3 7 24 0.0000 0.0000
3 7 25 0.0000 0.0000
3 7 26 0.0000 0.0000
3 7 27 0.0000 0.0000
3 7 28 0.0000 0.0000
3 7 29 0.0000 0.0000
3 8 3 0.0000 0.0000
3 8 4 0.0000 0.0000
3 8 5 0.0000 0.0000
3 8 6 0.0000 0.0000
3 8 7 0.0000 0.0000
3 8 8 0.0000 0.0000
3 8 9 0.0000 0.0000
3 8 10 0.0000 0.0000
3 8 11 0.0000 0.0000
3 8 12 0.0000 0.0000
3 8 13 0.0000 0.0000
3 8 14 0.0000 0.0000
3 8 15 0.0000 0.0000
3 8 16 0.0000 0.0000
3 8 17 0.0000 0.0000
3 8 18 0.0000 0.0000
3 8 19 0.0000 0.0000
3 8 20 0.0000 0.0000
3 8 21 0.0000 0.0000
3 8 22 0.0000 0.0000
3 8 23 0.0000 0.0000
3 8 24 0.0000 0.0000
3 8 25 0.0000 0.0000
3 8 26 0.0000 0.0000
3 8 27 0.0000 0.0000
3 8 28 0.0000 0.0000
3 9 3 0.0000 0.0000
3 9 4 0.0000 0.0000
3 9 5 0.0000 0.0000
3 9 6 0.0000 0.0000
3 9 7 0.0000 0.0000
3 9 8 0.0000 0.0000
3 9 9 0.0000 0.0000
3 9 10 0.0000 0.0000
3 9 11 0.0000 0.0000
3 9 12 0.0000 0.0000
3 9 13 0.0000 0.0000
3 9 14 0.0000 0.0000
3 9 15 0.0000 0.0000
3 9 16 0.0000 0.0000
3 9 17 0.0000 0.0000
3 9 18 0.0000 0.0000
3 9 19 0.0000 0.0000
3 9 20 0.0000 0.0000
3 9 21 0.0000 0.0000
3 9 22 0.0000 0.0000
3 9 23 0.0000 0.0000
3 9 24 0.0000 0.0000
3 9 25 0.0000 0.0000
3 9 26 0.0000 0.0000
3 9 27 0.0000 0.0000
3 10 3 0.0000 0.0000
3 10 4 0.0000 0.0000
3 10 5 0.0000 0.0000
3 10 6 0.0000 0.0000
3 10 7 0.0000 0.0000
3 10 8 0.0000 0.0000
3 10 9 0.0000 0.0000
3 10 10 0.0000 0.0000
3 10 11 0.0000 0.0000
3 10 12 0.0000 0.0000
3 10 13 0.0000 0.0000
3 10 14 0.0000 0.0000
3 10 15 0.0000 0.0000
3 10 16 0.0000 0.0000
3 10 17 0.0000 0.0000
3 10 18 0.0000 0.0000
3 10 19 0.0000 0.0000
3 10 20 0.0000 0.0000
3 10 21 0.0000 0.0000
3 10 22 0.0000 0.0000
3 10 23 0.0000 0.0000
3 10 24 0.0000 0.0000
3 10 25 0.0000 0.0000
3 11 3 0.0000 0.0000
3 11 4 0.0000 0.0000
3 11 5 0.0000 0.0000
3 11 6 0.0000 0.0000
3 11 7 0.0000 0.0000
3 11 8 0.0000 0.0000
3 11 9 0.0000 0.0000
3 11 10 0.0000 0.0000
3 11 11 0.0000 0.0000
3 11 12 0.0000 0.0000
3 11 13 0.0000 0.0000
3 11 14 0.0000 0.0000
3 11 15 0.0000 0.0000
3 11 16 0.0000 0.0000
3 11 17 0.0000 0.0000
3 11 18 0.0000 0.0000
3 11 19 0.0000 0.0000
3 11 20 0.0000 0.0000
3 11 21 0.0000 0.0000
3 11 22 0.0000 0.0000
3 11 23 0.0000 0.0000
3 11 24 0.0000 0.0000
3 12 3 0.0000 0.0000
3 12 4 0.0000 0.0000
3 12 5 0.0000 0.0000
3 12 6 0.0000 0.0000
3 12 7 0.0000 0.0000
3 12 8 0.0000 0.0000
3 12 9 0.0000 0.0000
3 12 10 0.0000 0.0000
3 12 11 0.0000 0.0000
3 12 13 0.0000 0.0000
3 12 14 0.0000 0.0000
3 12 15 0.0000 0.0000
3 12 16 0.0000 0.0000
3 12 17 0.0000 0.0000
3 12 18 0.0000 0.0000
3 12 19 0.0000 0.0000
3 12 20 0.0000 0.0000
3 12 21 0.0000 0.0000
3 12 22 0.0000 0.0000
3 13 3 0.0000 0.0000
3 13 4 0.0000 0.0000
3 13 5 0.0000 0.0000
3 13 6 0.0000 0.0000
3 13 7 0.0000 0.0000
3 13 8 0.0000 0.0000
3 13 9 0.0000 0.0000
3 13 10 0.0000 0.0000
3 13 11 0.0000 0.0000
3 13 12 0.0000 0.0000
3 13 13 0.0000 0.0000
3 13 14 0.0000 0.0000
3 13 15 0.0000 0.0000
3 13 16 0.0000 0.0000
3 13 17 0.0000 0.0000
3 13 18 0.0000 0.0000
3 13 19 0.0000 0.0000
3 13 20 0.0000 0.0000
3 14 3 0.0000 0.0000
3 14 4 0.0000 0.0000
3 14 5 0.0000 0.0000
3 14 6 0.0000 0.0000
3 14 7 0.0000 0.0000
3 14 8 0.0000 0.0000
3 14 9 0.0000 0.0000
3 14 10 0.0000 0.0000
3 14 11 0.0000 0.0000
3 14 12 0.0000 0.0000
3 14 13 0.0000 0.0000
3 14 14 0.0000 0.0000
3 14 15 0.0000 0.0000
3 14 16 0.0000 0.0000
3 14 17 0.0000 0.0000
3 14 18 0.0000 0.0000
3 15 3 0.0000 0.0000
3 15 4 0.0000 0.0000
3 15 5 0.0000 0.0000
3 15 6 0.0000 0.0000
3 15 7 0.0000 0.0000
3 15 8 0.0000 0.0000
3 15 9 0.0000 0.0000
3 15 10 0.0000 0.0000
3 15 11 0.0000 0.0000
3 15 12 0.0000 0.0000
3 15 13 0.0000 0.0000
3 15 14 0.0000 0.0000
3 15 15 0.0000 0.0000
3 16 3 0.0000 0.0000
3 16 4 0.0000 0.0000
3 16 5 0.0000 0.0000
3 16 6 0.0000 0.0000
3 16 7 0.0000 0.0000
3 16 8 0.0000 0.0000
3 16 9 0.0000 0.0000
3 16 10 0.0000 0.0000
4 0 6 0.0000 0.0000
4 0 8 0.0000 0.0000
4 0 10 0.0000 0.0000
4 0 12 0.0000 0.0000
4 0 14 0.0000 0.0000
4 0 16 0.0000 0.0000
4 0 18 0.0000 0.0000
4 0 20 0.0000 0.0000
4 0 22 0.0000 0.0000
4 0 24 0.0000 0.0000
4 0 26 0.0000 0.0000
4 0 28 0.0000 0.0000
4 0 30 0.0000 0.0000
4 1 5 0.0000 0.0000
4 1 6 0.0000 0.0000
4 1 7 0.0000 0.0000
4 1 8 0.0000 0.0000
4 1 9 0.0000 0.0000
4 1 10 0.0000 0.0000
4 1 11 0.0000 0.0000
4 1 12 0.0000 0.0000
4 1 13 0.0000 0.0000
4 1 14 0.0000 0.0000
4 1 15 0.0000 0.0000
4 1 16 0.0000 0.0000
4 1 18 0.0000 0.0000
4 1 19 0.0000 0.0000
4 1 20 0.0000 0.0000
4 1 21 0.0000 0.0000
4 1 22 0.0000 0.0000
4 1 23 0.0000 0.0000
4 1 24 0.0000 0.0000
4 1 25 0.0000 0.0000
4 1 26 0.0000 0.0000
4 1 27 0.0000 0.0000
4 1 28 0.0000 0.0000
4 1 29 0.0000 0.0000
4 1 30 0.0000 0.0000
4 1 31 0.0000 0.0000
4 2 5 0.0000 0.0000
4 2 7 0.0000 0.0000
4 2 9 0.0000 0.0000
4 2 10 0.0000 0.0000
4 2 11 0.0000 0.0000
4 2 12 0.0000 0.0000
4 2 13 0.0000 0.0000
4 2 14 0.0000 0.0000
4 2 15 0.0000 0.0000
4 2 16 0.0000 0.0000
4 2 17 0.0000 0.0000
4 2 18 0.0000 0.0000
4 2 19 0.0000 0.0000
4 2 20 0.0000 0.0000
4 2 21 0.0000 0.0000
4 2 22 0.0000 0.0000
4 2 23 0.0000 0.0000
4 2 24 0.0000 0.0000
4 2 25 0.0000 0.0000
4 2 26 0.0000 0.0000
4 2 27 0.0000 0.0000
4 2 28 0.0000 0.0000
4 2 29 0.0000 0.0000
4 2 30 0.0000 0.0000
4 2 31 0.0000 0.0000
4 3 4 0.0000 0.0000
4 3 5 0.0000 0.0000
4 3 6 0.0000 0.0000
4 3 7 0.0000 0.0000
4 3 8 0.0000 0.0000
4 3 9 0.0000 0.0000
4 3 10 0.0000 0.0000
4 3 11 0.0000 0.0000
4 3 12 0.0000 0.0000
4 3 13 0.0000 0.0000
4 3 14 0.0000 0.0000
4 3 15 0.0000 0.0000
4 3 16 0.0000 0.0000
4 3 17 0.0000 0.0000
4 3 18 0.0000 0.0000
4 3 19 0.0000 0.0000
4 3 20 0.0000 0.0000
4 3 21 0.0000 0.0000
4 3 22 0.0000 0.0000
4 3 23 0.0000 0.0000
4 3 24 0.0000 0.0000
4 3 25 0.0000 0.0000
4 3 26 0.0000 0.0000
4 3 27 0.0000 0.0000
4 3 28 0.0000 0.0000
4 3 29 0.0000 0.0000
4 3 30 0.0000 0.0000
4 4 4 0.0000 0.0000
4 4 5 0.0000 0.0000
4 4 6 0.0000 0.0000
4 4 7 0.0000 0.0000
4 4 8 0.0000 0.0000
4 4 9 0.0000 0.0000
4 4 10 0.0000 0.0000
4 4 11 0.0000 0.0000
4 4 13 0.0000 0.0000
4 4 14 0.0000 0.0000
4 4 15 0.0000 0.0000
4 4 16 0.0000 0.0000
4 4 17 0.0000 0.0000
4 4 18 0.0000 0.0000
4 4 19 0.0000 0.0000
4 4 20 0.0000 0.0000
4 4 21 0.0000 0.0000
4 4 22 0.0000 0.0000
4 4 23 0.0000 0.0000
4 4 24 0.0000 0.0000
4 4 25 0.0000 0.0000
4 4 26 0.0000 0.0000
4 4 27 0.0000 0.0000
4 4 28 0.0000 0.0000
4 4 29 0.0000 0.0000
4 4 30 0.0000 0.0000
4 5 4 0.0000 0.0000
4 5 5 0.0000 0.0000
4 5 6 0.0000 0.0000
4 5 7 0.0000 0.0000
4 5 8 0.0000 0.0000
4 5 9 0.0000 0.0000
4 5 10 0.0000 0.0000
4 5 11 0.0000 0.0000
4 5 12 0.0000 0.0000
4 5 13 0.0000 0.0000
4 5 14 0.0000 0.0000
4 5 16 0.0000 0.0000
4 5 17 0.0000 0.0000
4 5 18 0.0000 0.0000
4 5 19 0.0000 0.0000
4 5 20 0.0000 0.0000
4 5 21 0.0000 0.0000
4 5 22 0.0000 0.0000
4 5 23 0.0000 0.0000
4 5 24 0.0000 0.0000
4 5 25 0.0000 0.0000
4 5 26 0.0000 0.0000
4 5 27 0.0000 0.0000
4 5 28 0.0000 0.0000
4 5 29 0.0000 0.0000
4 5 30 0.0000 0.0000
4 6 4 0.0000 0.0000
4 6 5 0.0000 0.0000
4 6 6 0.0000 0.0000
4 6 8 0.0000 0.0000
4 6 9 0.0000 0.0000
4 6 10 0.0000 0.0000
4 6 12 0.0000 0.0000
4 6 14 0.0000 0.0000
4 6 15 0.0000 0.0000
4 6 16 0.0000 0.0000
4 6 17 0.0000 0.0000
4 6 18 0.0000 0.0000
4 6 19 0.0000 0.0000
4 6 20 0.0000 0.0000
4 6 21 0.0000 0.0000
4 6 22 0.0000 0.0000
4 6 23 0.0000 0.0000
4 6 24 0.0000 0.0000
4 6 25 0.0000 0.0000
4 6 26 0.0000 0.0000
4 6 27 0.0000 0.0000
4 6 28 0.0000 0.0000
4 6 29 0.0000 0.0000
4 7 4 0.0000 0.0000
4 7 5 0.0000 0.0000
4 7 7 0.0000 0.0000
4 7 8 0.0000 0.0000
4 7 9 0.0000 0.0000
4 7 10 0.0000 0.0000
4 7 11 0.0000 0.0000
4 7 12 0.0000 0.0000
4 7 13 0.0000 0.0000
4 7 14 0.0000 0.0000
4 7 15 0.0000 0.0000
4 7 16 0.0000 0.0000
4 7 17 0.0000 0.0000
4 7 18 0.0000 0.0000
4 7 19 0.0000 0.0000
4 7 20 0.0000 0.0000
4 7 21 0.0000 0.0000
4 7 22 0.0000 0.0000
4 7 23 0.0000 0.0000
4 7 24 0.0000 0.0000
4 7 25 0.0000 0.0000
4 7 26 0.0000 0.0000
4 7 27 0.0000 0.0000
4 7 28 0.0000 0.0000
4 8 5 0.0000 0.0000
4 8 7 0.0000 0.0000
4 8 8 0.0000 0.0000
4 8 9 0.0000 0.0000
4 8 10 0.0000 0.0000
4 8 11 0.0000 0.0000
4 8 13 0.0000 0.0000
4 8 14 0.0000 0.0000
4 8 15 0.0000 0.0000
4 8 16 0.0000 0.0000
4 8 17 0.0000 0.0000
4 8 18 0.0000 0.0000
4 8 19 0.0000 0.0000
4 8 20 0.0000 0.0000
4 8 21 0.0000 0.0000
4 8 22 0.0000 0.0000
4 8 23 0.0000 0.0000
4 8 24 0.0000 0.0000
4 8 25 0.0000 0.0000
4 8 26 0.0000 0.0000
4 8 27 0.0000 0.0000
4 9 4 0.0000 0.0000
4 9 5 0.0000 0.0000
4 9 6 0.0000 0.0000
4 9 7 0.0000 0.0000
4 9 8 0.0000 0.0000
4 9 9 0.0000 0.0000
4 9 10 0.0000 0.0000
4 9 11 0.0000 0.0000
4 9 12 0.0000 0.0000
4 9 13 0.0000 0.0000
4 9 14 0.0000 0.0000
4 9 15 0.0000 0.0000
4 9 16 0.0000 0.0000
4 9 17 0.0000 0.0000
4 9 18 0.0000 0.0000
4 9 19 0.0000 0.0000
4 9 20 0.0000 0.0000
4 9 21 0.0000 0.0000
4 9 22 0.0000 0.0000
4 9 23 0.0000 0.0000
4 9 24 0.0000 0.0000
4 9 25 0.0000 0.0000
4 9 26 0.0000 0.0000
4 10 4 0.0000 0.0000
4 10 5 0.0000 0.0000
4 10 6 0.0000 0.0000
4 10 7 0.0000 0.0000
4 10 9 0.0000 0.0000
4 10 10 0.0000 0.0000
4 10 11 0.0000 0.0000
4 10 12 0.0000 0.0000
4 10 13 0.0000 0.0000
4 10 14 0.0000 0.0000
4 10 15 0.0000 0.0000
4 10 16 0.0000 0.0000
4 10 17 0.0000 0.0000
4 10 18 0.0000 0.0000
4 10 19 0.0000 0.0000
4 10 20 0.0000 0.0000
4 10 21 0.0000 0.0000
4 10 22 0.0000 0.0000
4 10 23 0.0000 0.0000
4 10 24 0.0000 0.0000
4 10 25 0.0000 0.0000
4 11 4 0.0000 0.0000
4 11 5 0.0000 0.0000
4 11 6 0.0000 0.0000
4 11 7 0.0000 0.0000
4 11 8 0.0000 0.0000
4 11 9 0.0000 0.0000
4 11 10 0.0000 0.0000
4 11 11 0.0000 0.0000
4 11 12 0.0000 0.0000
4 11 13 0.0000 0.0000
4 11 14 0.0000 0.0000
4 11 15 0.0000 0.0000
4 11 16 0.0000 0.0000
4 11 17 0.0000 0.0000
4 11 18 0.0000 0.0000
4 11 19 0.0000 0.0000
4 11 20 0.0000 0.0000
4 11 21 0.0000 0.0000
4 11 22 0.0000 0.0000
4 11 23 0.0000 0.0000
4 12 4 0.0000 0.0000
4 12 5 0.0000 0.0000
4 12 6 0.0000 0.0000
4 12 7 0.0000 0.0000
4 12 8 0.0000 0.0000
4 12 9 0.0000 0.0000
4 12 10 0.0000 0.0000
4 12 11 0.0000 0.0000
4 12 12 0.0000 0.0000
4 12 13 0.0000 0.0000
4 12 14 0.0000 0.0000
4 12 15 0.0000 0.0000
4 12 16 0.0000 0.0000
4 12 17 0.0000 0.0000
4 12 18 0.0000 0.0000
4 12 19 0.0000 0.0000
4 12 20 0.0000 0.0000
4 12 21 0.0000 0.0000
4 13 4 0.0000 0.0000
4 13 5 0.0000 0.0000
4 13 6 0.0000 0.0000
4 13 7 0.0000 0.0000
4 13 8 0.0000 0.0000
4 13 9 0.0000 0.0000
4 13 10 0.0000 0.0000
4 13 11 0.0000 0.0000
4 13 12 0.0000 0.0000
4 13 13 0.0000 0.0000
4 13 14 0.0000 0.0000
4 13 15 0.0000 0.0000
4 13 16 0.0000 0.0000
4 13 17 0.0000 0.0000
4 13 18 0.0000 0.0000
4 13 19 0.0000 0.0000
4 14 5 0.0000 0.0000
4 14 6 0.0000 0.0000
4 14 7 0.0000 0.0000
4 14 8 0.0000 0.0000
4 14 9 0.0000 0.0000
4 14 10 0.0000 0.0000
4 14 11 0.0000 0.0000
4 14 12 0.0000 0.0000
4 14 13 0.0000 0.0000
4 14 14 0.0000 0.0000
4 14 15 0.0000 0.0000
4 14 16 0.0000 0.0000
4 14 17 0.0000 0.0000
4 15 4 0.0000 0.0000
4 15 5 0.0000 0.0000
4 15 6 0.0000 0.0000
4 15 7 0.0000 0.0000
4 15 8 0.0000 0.0000
4 15 9 0.0000 0.0000
4 15 10 0.0000 0.0000
4 15 11 0.0000 0.0000
4 15 12 0.0000 0.0000
4 15 13 0.0000 0.0000
4 16 4 0.0000 0.0000
4 16 5 0.0000 0.0000
4 16 6 0.0000 0.0000
4 16 7 0.0000 0.0000
4 16 8 0.0000 0.0000
5 0 5 0.0000 0.0000
5 0 7 0.0000 0.0000
5 0 9 0.0000 0.0000
5 0 11 0.0000 0.0000
5 0 13 0.0000 0.0000
5 0 15 0.0000 0.0000
5 0 17 0.0000 0.0000
5 0 19 0.0000 0.0000
5 0 21 0.0000 0.0000
5 0 23 0.0000 0.0000
5 0 25 0.0000 0.0000
5 0 27 0.0000 0.0000
5 0 29 0.0000 0.0000
5 1 5 0.0000 0.0000
5 1 6 0.0000 0.0000
5 1 7 0.0000 0.0000
5 1 8 0.0000 0.0000
5 1 9 0.0000 0.0000
5 1 10 0.0000 0.0000
5 1 11 0.0000 0.0000
5 1 12 0.0000 0.0000
5 1 13 0.0000 0.0000
5 1 14 0.0000 0.0000
5 1 15 0.0000 0.0000
5 1 17 0.0000 0.0000
5 1 18 0.0000 0.0000
5 1 19 0.0000 0.0000
5 1 20 0.0000 0.0000
5 1 21 0.0000 0.0000
5 1 22 0.0000 0.0000
5 1 23 0.0000 0.0000
5 1 24 0.0000 0.0000
5 1 25 0.0000 0.0000
5 1 26 0.0000 0.0000
5 1 27 0.0000 0.0000
5 1 28 0.0000 0.0000
5 1 29 0.0000 0.0000
5 1 30 0.0000 0.0000
5 2 5 0.0000 0.0000
5 2 6 0.0000 0.0000
5 2 9 0.0000 0.0000
5 2 11 0.0000 0.0000
5 2 12 0.0000 0.0000
5 2 14 0.0000 0.0000
5 2 15 0.0000 0.0000
5 2 16 0.0000 0.0000
5 2 18 0.0000 0.0000
5 2 19 0.0000 0.0000
5 2 20 0.0000 0.0000
5 2 21 0.0000 0.0000
5 2 22 0.0000 0.0000
5 2 23 0.0000 0.0000
5 2 24 0.0000 0.0000
5 2 25 0.0000 0.0000
5 2 26 0.0000 0.0000
5 2 27 0.0000 0.0000
5 2 28 0.0000 0.0000
5 2 29 0.0000 0.0000
5 2 30 0.0000 0.0000
5 3 5 0.0000 0.0000
5 3 6 0.0000 0.0000
5 3 8 0.0000 0.0000
5 3 9 0.0000 0.0000
5 3 10 0.0000 0.0000
5 3 12 0.0000 0.0000
5 3 13 0.0000 0.0000
5 3 14 0.0000 0.0000
5 3 15 0.0000 0.0000
5 3 16 0.0000 0.0000
5 3 17 0.0000 0.0000
5 3 18 0.0000 0.0000
5 3 19 0.0000 0.0000
5 3 20 0.0000 0.0000
5 3 22 0.0000 0.0000
5 3 23 0.0000 0.0000
5 3 24 0.0000 0.0000
5 3 25 0.0000 0.0000
5 3 26 0.0000 0.0000
5 3 27 0.0000 0.0000
5 3 28 0.0000 0.0000
5 3 29 0.0000 0.0000
5 3 30 0.0000 0.0000
5 4 5 0.0000 0.0000
5 4 6 0.0000 0.0000
5 4 7 0.0000 0.0000
5 4 8 0.0000 0.0000
5 4 9 0.0000 0.0000
5 4 10 0.0000 0.0000
5 4 11 0.0000 0.0000
5 4 12 0.0000 0.0000
5 4 13 0.0000 0.0000
5 4 14 0.0000 0.0000
5 4 15 0.0000 0.0000
5 4 16 0.0000 0.0000
5 4 17 0.0000 0.0000
5 4 18 0.0000 0.0000
5 4 19 0.0000 0.0000
5 4 20 0.0000 0.0000
5 4 21 0.0000 0.0000
5 4 22 0.0000 0.0000
5 4 23 0.0000 0.0000
5 4 24 0.0000 0.0000
5 4 25 0.0000 0.0000
5 4 26 0.0000 0.0000
5 4 27 0.0000 0.0000
5 4 28 0.0000 0.0000
5 4 29 0.0000 0.0000
5 5 5 0.0000 0.0000
5 5 7 0.0000 0.0000
5 5 8 0.0000 0.0000
5 5 9 0.0000 0.0000
5 5 10 0.0000 0.0000
5 5 11 0.0000 0.0000
5 5 12 0.0000 0.0000
5 5 13 0.0000 0.0000
5 5 14 0.0000 0.0000
5 5 15 0.0000 0.0000
5 5 16 0.0000 0.0000
5 5 17 0.0000 0.0000
5 5 18 0.0000 0.0000
5 5 19 0.0000 0.0000
5 5 20 0.0000 0.0000
5 5 21 0.0000 0.0000
5 5 22 0.0000 0.0000
5 5 23 0.0000 0.0000
5 5 24 0.0000 0.0000
5 5 25 0.0000 0.0000
5 5 26 0.0000 0.0000
5 5 27 0.0000 0.0000
5 5 28 0.0000 0.0000
5 5 29 0.0000 0.0000
5 6 5 0.0000 0.0000
5 6 7 0.0000 0.0000
5 6 8 0.0000 0.0000
5 6 9 0.0000 0.0000
5 6 11 0.0000 0.0000
5 6 12 0.0000 0.0000
5 6 13 0.0000 0.0000
5 6 14 0.0000 0.0000
5 6 15 0.0000 0.0000
5 6 16 0.0000 0.0000
5 6 17 0.0000 0.0000
5 6 18 0.0000 0.0000
5 6 19 0.0000 0.0000
5 6 20 0.0000 0.0000
5 6 21 0.0000 0.0000
5 6 22 0.0000 0.0000
5 6 23 0.0000 0.0000
5 6 24 0.0000 0.0000
5 6 25 0.0000 0.0000
5 6 26 0.0000 0.0000
5 6 27 0.0000 0.0000
5 6 28 0.0000 0.0000
5 7 5 0.0000 0.0000
5 7 6 0.0000 0.0000
5 7 7 0.0000 0.0000
5 7 8 0.0000 0.0000
5 7 9 0.0000 0.0000
5 7 10 0.0000 0.0000
5 7 11 0.0000 0.0000
5 7 12 0.0000 0.0000
5 7 13 0.0000 0.0000
5 7 14 0.0000 0.0000
5 7 15 0.0000 0.0000
5 7 16 0.0000 0.0000
5 7 17 0.0000 0.0000
5 7 18 0.0000 0.0000
5 7 19 0.0000 0.0000
5 7 20 0.0000 0.0000
5 7 21 0.0000 0.0000
5 7 22 0.0000 0.0000
5 7 23 0.0000 0.0000
5 7 24 0.0000 0.0000
5 7 25 0.0000 0.0000
5 7 26 0.0000 0.0000
5 7 27 0.0000 0.0000
5 8 6 0.0000 0.0000
5 8 7 0.0000 0.0000
5 8 8 0.0000 0.0000
5 8 10 0.0000 0.0000
5 8 12 0.0000 0.0000
5 8 13 0.0000 0.0000
5 8 14 0.0000 0.0000
5 8 15 0.0000 0.0000
5 8 16 0.0000 0.0000
5 8 17 0.0000 0.0000
5 8 18 0.0000 0.0000
5 8 19 0.0000 0.0000
5 8 20 0.0000 0.0000
5 8 21 0.0000 0.0000
5 8 22 0.0000 0.0000
5 8 23 0.0000 0.0000
5 8 24 0.0000 0.0000
5 8 25 0.0000 0.0000
5 8 26 0.0000 0.0000
5 9 5 0.0000 0.0000
5 9 6 0.0000 0.0000
5 9 7 0.0000 0.0000
5 9 8 0.0000 0.0000
5 9 9 0.0000 0.0000
5 9 10 0.0000 0.0000
5 9 11 0.0000 0.0000
5 9 12 0.0000 0.0000
5 9 13 0.0000 0.0000
5 9 14 0.0000 0.0000
5 9 15 0.0000 0.0000
5 9 16 0.0000 0.0000
5 9 17 0.0000 0.0000
5 9 18 0.0000 0.0000
5 9 19 0.0000 0.0000
5 9 20 0.0000 0.0000
5 9 21 0.0000 0.0000
5 9 22 0.0000 0.0000
5 9 23 0.0000 0.0000
5 9 24 0.0000 0.0000
5 9 25 0.0000 0.0000
5 10 5 0.0000 0.0000
5 10 6 0.0000 0.0000
5 10 7 0.0000 0.0000
5 10 8 0.0000 0.0000
5 10 9 0.0000 0.0000
5 10 10 0.0000 0.0000
5 10 11 0.0000 0.0000
5 10 12 0.0000 0.0000
5 10 13 0.0000 0.0000
5 10 14 0.0000 0.0000
5 10 15 0.0000 0.0000
5 10 16 0.0000 0.0000
5 10 17 0.0000 0.0000
5 10 18 0.0000 0.0000
5 10 19 0.0000 0.0000
5 10 20 0.0000 0.0000
5 10 21 0.0000 0.0000
5 10 22 0.0000 0.0000
5 10 23 0.0000 0.0000
5 10 24 0.0000 0.0000
5 11 5 0.0000 0.0000
5 11 6 0.0000 0.0000
5 11 7 0.0000 0.0000
5 11 8 0.0000 0.0000
5 11 9 0.0000 0.0000
5 11 10 0.0000 0.0000
5 11 11 0.0000 0.0000
5 11 12 0.0000 0.0000
5 11 13 0.0000 0.0000
5 11 14 0.0000 0.0000
5 11 15 0.0000 0.0000
5 11 16 0.0000 0.0000
5 11 17 0.0000 0.0000
5 11 18 0.0000 0.0000
5 11 19 0.0000 0.0000
5 11 20 0.0000 0.0000
5 11 21 0.0000 0.0000
5 11 22 0.0000 0.0000
5 12 5 0.0000 0.0000
5 12 6 0.0000 0.0000
5 12 7 0.0000 0.0000
5 12 8 0.0000 0.0000
5 12 9 0.0000 0.0000
5 12 10 0.0000 0.0000
5 12 11 0.0000 0.0000
5 12 12 0.0000 0.0000
5 12 13 0.0000 0.0000
5 12 14 0.0000 0.0000
5 12 15 0.0000 0.0000
5 12 16 0.0000 0.0000
5 12 17 0.0000 0.0000
5 12 18 0.0000 0.0000
5 12 19 0.0000 0.0000
5 12 20 0.0000 0.0000
5 13 5 0.0000 0.0000
5 13 6 0.0000 0.0000
5 13 7 0.0000 0.0000
5 13 8 0.0000 0.0000
5 13 9 0.0000 0.0000
5 13 10 0.0000 0.0000
5 13 11 0.0000 0.0000
5 13 12 0.0000 0.0000
5 13 13 0.0000 0.0000
5 13 14 0.0000 0.0000
5 13 15 0.0000 0.0000
5 13 16 0.0000 0.0000
5 13 17 0.0000 0.0000
5 13 18 0.0000 0.0000
5 14 5 0.0000 0.0000
5 14 6 0.0000 0.0000
5 14 7 0.0000 0.0000
5 14 8 0.0000 0.0000
5 14 9 0.0000 0.0000
5 14 10 0.0000 0.0000
5 14 11 0.0000 0.0000
5 14 12 0.0000 0.0000
5 14 13 0.0000 0.0000
5 14 14 0.0000 0.0000
5 14 15 0.0000 0.0000
5 15 5 0.0000 0.0000
5 15 6 0.0000 0.0000
5 15 7 0.0000 0.0000
5 15 8 0.0000 0.0000
5 15 9 0.0000 0.0000
5 15 10 0.0000 0.0000
5 15 11 0.0000 0.0000
5 16 5 0.0000 0.0000
5 16 6 0.0000 0.0000
6 0 6 0.0000 0.0000
6 0 8 0.0000 0.0000
6 0 10 0.0000 0.0000
6 0 12 0.0000 0.0000
6 0 14 0.0000 0.0000
6 0 16 0.0000 0.0000
6 0 18 0.0000 0.0000
6 0 20 0.0000 0.0000
6 0 22 0.0000 0.0000
6 0 24 0.0000 0.0000
6 0 26 0.0000 0.0000
6 0 28 0.0000 0.0000
6 1 6 0.0000 0.0000
6 1 7 0.0000 0.0000
6 1 8 0.0000 0.0000
6 1 9 0.0000 0.0000
6 1 10 0.0000 0.0000
6 1 11 0.0000 0.0000
6 1 12 0.0000 0.0000
6 1 13 0.0000 0.0000
6 1 14 0.0000 0.0000
6 1 15 0.0000 0.0000
6 1 16 0.0000 0.0000
6 1 17 0.0000 0.0000
6 1 18 0.0000 0.0000
6 1 19 0.0000 0.0000
6 1 20 0.0000 0.0000
6 1 21 0.0000 0.0000
6 1 23 0.0000 0.0000
6 1 24 0.0000 0.0000
6 1 25 0.0000 0.0000
6 1 26 0.0000 0.0000
6 1 27 0.0000 0.0000
6 1 28 0.0000 0.0000
6 1 29 0.0000 0.0000
6 2 6 0.0000 0.0000
6 2 7 0.0000 0.0000
6 2 8 0.0000 0.0000
6 2 9 0.0000 0.0000
6 2 10 0.0000 0.0000
6 2 11 0.0000 0.0000
6 2 12 0.0000 0.0000
6 2 13 0.0000 0.0000
6 2 14 0.0000 0.0000
6 2 15 0.0000 0.0000
6 2 16 0.0000 0.0000
6 2 17 0.0000 0.0000
6 2 18 0.0000 0.0000
6 2 19 0.0000 0.0000
6 2 20 0.0000 0.0000
6 2 21 0.0000 0.0000
6 2 22 0.0000 0.0000
6 2 23 0.0000 0.0000
6 2 24 0.0000 0.0000
6 2 25 0.0000 0.0000
6 2 26 0.0000 0.0000
6 2 27 0.0000 0.0000
6 2 28 0.0000 0.0000
6 2 29 0.0000 0.0000
6 3 6 0.0000 0.0000
6 3 8 0.0000 0.0000
6 3 9 0.0000 0.0000
6 3 10 0.0000 0.0000
6 3 11 0.0000 0.0000
6 3 12 0.0000 0.0000
6 3 13 0.0000 0.0000
6 3 14 0.0000 0.0000
6 3 15 0.0000 0.0000
6 3 16 0.0000 0.0000
6 3 17 0.0000 0.0000
6 3 18 0.0000 0.0000
6 3 19 0.0000 0.0000
6 3 20 0.0000 0.0000
6 3 21 0.0000 0.0000
6 3 22 0.0000 0.0000
6 3 23 0.0000 0.0000
6 3 24 0.0000 0.0000
6 3 25 0.0000 0.0000
6 3 26 0.0000 0.0000
6 3 27 0.0000 0.0000
6 3 28 0.0000 0.0000
6 3 29 0.0000 0.0000
6 4 6 0.0000 0.0000
6 4 7 0.0000 0.0000
6 4 8 0.0000 0.0000
6 4 9 0.0000 0.0000
6 4 11 0.0000 0.0000
6 4 12 0.0000 0.0000
6 4 13 0.0000 0.0000
6 4 14 0.0000 0.0000
6 4 15 0.0000 0.0000
6 4 17 0.0000 0.0000
6 4 18 0.0000 0.0000
6 4 19 0.0000 0.0000
6 4 20 0.0000 0.0000
6 4 21 0.0000 0.0000
6 4 22 0.0000 0.0000
6 4 23 0.0000 0.0000
6 4 24 0.0000 0.0000
6 4 25 0.0000 0.0000
6 4 26 0.0000 0.0000
6 4 27 0.0000 0.0000
6 4 28 0.0000 0.0000
6 5 6 0.0000 0.0000
6 5 7 0.0000 0.0000
6 5 8 0.0000 0.0000
6 5 9 0.0000 0.0000
6 5 10 0.0000 0.0000
6 5 11 0.0000 0.0000
6 5 12 0.0000 0.0000
6 5 13 0.0000 0.0000
6 5 14 0.0000 0.0000
6 5 15 0.0000 0.0000
6 5 16 0.0000 0.0000
6 5 17 0.0000 0.0000
6 5 18 0.0000 0.0000
6 5 19 0.0000 0.0000
6 5 20 0.0000 0.0000
6 5 21 0.0000 0.0000
6 5 22 0.0000 0.0000
6 5 23 0.0000 0.0000
6 5 24 0.0000 0.0000
6 5 25 0.0000 0.0000
6 5 26 0.0000 0.0000
6 5 27 0.0000 0.0000
6 5 28 0.0000 0.0000
6 6 6 0.0000 0.0000
6 6 7 0.0000 0.0000
6 6 8 0.0000 0.0000
6 6 10 0.0000 0.0000
6 6 12 0.0000 0.0000
6 6 13 0.0000 0.0000
6 6 14 0.0000 0.0000
6 6 16 0.0000 0.0000
6 6 17 0.0000 0.0000
6 6 18 0.0000 0.0000
6 6 19 0.0000 0.0000
6 6 20 0.0000 0.0000
6 6 21 0.0000 0.0000
6 6 22 0.0000 0.0000
6 6 23 0.0000 0.0000
6 6 24 0.0000 0.0000
6 6 25 0.0000 0.0000
6 6 26 0.0000 0.0000
6 6 27 0.0000 0.0000
6 7 6 0.0000 0.0000
6 7 7 0.0000 0.0000
6 7 8 0.0000 0.0000
6 7 9 0.0000 0.0000
6 7 10 0.0000 0.0000
6 7 11 0.0000 0.0000
6 7 12 0.0000 0.0000
6 7 13 0.0000 0.0000
6 7 14 0.0000 0.0000
6 7 15 0.0000 0.0000
6 7 16 0.0000 0.0000
6 7 17 0.0000 0.0000
6 7 18 0.0000 0.0000
6 7 19 0.0000 0.0000
6 7 20 0.0000 0.0000
6 7 21 0.0000 0.0000
6 7 22 0.0000 0.0000
6 7 23 0.0000 0.0000
6 7 24 0.0000 0.0000
6 7 25 0.0000 0.0000
6 7 26 0.0000 0.0000
6 8 6 0.0000 0.0000
6 8 7 0.0000 0.0000
6 8 8 0.0000 0.0000
6 8 9 0.0000 0.0000
6 8 11 0.0000 0.0000
6 8 12 0.0000 0.0000
6 8 13 0.0000 0.0000
6 8 14 0.0000 0.0000
6 8 15 0.0000 0.0000
6 8 17 0.0000 0.0000
6 8 18 0.0000 0.0000
6 8 19 0.0000 0.0000
6 8 20 0.0000 0.0000
6 8 21 0.0000 0.0000
6 8 22 0.0000 0.0000
6 8 23 0.0000 0.0000
6 8 24 0.0000 0.0000
6 8 25 0.0000 0.0000
6 9 6 0.0000 0.0000
6 9 7 0.0000 0.0000
6 9 8 0.0000 0.0000
6 9 9 0.0000 0.0000
6 9 10 0.0000 0.0000
6 9 11 0.0000 0.0000
6 9 12 0.0000 0.0000
6 9 13 0.0000 0.0000
6 9 14 0.0000 0.0000
6 9 15 0.0000 0.0000
6 9 16 0.0000 0.0000
6 9 17 0.0000 0.0000
6 9 18 0.0000 0.0000
6 9 19 0.0000 0.0000
6 9 20 0.0000 0.0000
6 9 21 0.0000 0.0000
6 9 22 0.0000 0.0000
6 9 23 0.0000 0.0000
6 9 24 0.0000 0.0000
6 10 6 0.0000 0.0000
6 10 7 0.0000 0.0000
6 10 8 0.0000 0.0000
6 10 9 0.0000 0.0000
6 10 10 0.0000 0.0000
6 10 12 0.0000 0.0000
6 10 13 0.0000 0.0000
6 10 14 0.0000 0.0000
6 10 15 0.0000 0.0000
6 10 16 0.0000 0.0000
6 10 17 0.0000 0.0000
6 10 18 0.0000 0.0000
6 10 19 0.0000 0.0000
6 10 20 0.0000 0.0000
6 10 21 0.0000 0.0000
6 10 22 0.0000 0.0000
6 11 6 0.0000 0.0000
6 11 7 0.0000 0.0000
6 11 8 0.0000 0.0000
6 11 9 0.0000 0.0000
6 11 10 0.0000 0.0000
6 11 11 0.0000 0.0000
6 11 12 0.0000 0.0000
6 11 13 0.0000 0.0000
6 11 14 0.0000 0.0000
6 11 15 0.0000 0.0000
6 11 16 0.0000 0.0000
6 11 17 0.0000 0.0000
6 11 18 0.0000 0.0000
6 11 19 0.0000 0.0000
6 11 20 0.0000 0.0000
6 11 21 0.0000 0.0000
6 12 6 0.0000 0.0000
6 12 7 0.0000 0.0000
6 12 8 0.0000 0.0000
6 12 9 0.0000 0.0000
6 12 10 0.0000 0.0000
6 12 11 0.0000 0.0000
6 12 12 0.0000 0.0000
6 12 13 0.0000 0.0000
6 12 14 0.0000 0.0000
6 12 15 0.0000 0.0000
6 12 16 0.0000 0.0000
6 12 17 0.0000 0.0000
6 12 18 0.0000 0.0000
6 12 19 0.0000 0.0000
6 13 6 0.0000 0.0000
6 13 7 0.0000 0.0000
6 13 8 0.0000 0.0000
6 13 9 0.0000 0.0000
6 13 10 0.0000 0.0000
6 13 11 0.0000 0.0000
6 13 12 0.0000 0.0000
6 13 13 0.0000 0.0000
6 13 14 0.0000 0.0000
6 13 15 0.0000 0.0000
6 13 16 0.0000 0.0000
6 14 6 0.0000 0.0000
6 14 7 0.0000 0.0000
6 14 8 0.0000 0.0000
6 14 9 0.0000 0.0000
6 14 10 0.0000 0.0000
6 14 11 0.0000 0.0000
6 14 12 0.0000 0.0000
6 14 13 0.0000 0.0000
6 15 6 0.0000 0.0000
6 15 7 0.0000 0.0000
6 15 8 0.0000 0.0000
6 15 9 0.0000 0.0000
7 0 7 0.0000 0.0000
7 0 9 0.0000 0.0000
7 0 11 0.0000 0.0000
7 0 13 0.0000 0.0000
7 0 15 0.0000 0.0000
7 0 19 0.0000 0.0000
7 0 21 0.0000 0.0000
7 0 23 0.0000 0.0000
7 0 25 0.0000 0.0000
7 0 27 0.0000 0.0000
7 1 7 0.0000 0.0000
7 1 8 0.0000 0.0000
7 1 9 0.0000 0.0000
7 1 10 0.0000 0.0000
7 1 11 0.0000 0.0000
7 1 12 0.0000 0.0000
7 1 13 0.0000 0.0000
7 1 14 0.0000 0.0000
7 1 15 0.0000 0.0000
7 1 16 0.0000 0.0000
7 1 17 0.0000 0.0000
7 1 18 0.0000 0.0000
7 1 19 0.0000 0.0000
7 1 20 0.0000 0.0000
7 1 21 0.0000 0.0000
7 1 22 0.0000 0.0000
7 1 23 0.0000 0.0000
7 1 24 0.0000 0.0000
7 1 25 0.0000 0.0000
7 1 26 0.0000 0.0000
7 1 27 0.0000 0.0000
7 1 28 0.0000 0.0000
7 2 7 0.0000 0.0000
7 2 8 0.0000 0.0000
7 2 9 0.0000 0.0000
7 2 10 0.0000 0.0000
7 2 11 0.0000 0.0000
7 2 12 0.0000 0.0000
7 2 13 0.0000 0.0000
7 2 14 0.0000 0.0000
7 2 15 0.0000 0.0000
7 2 16 0.0000 0.0000
7 2 17 0.0000 0.0000
7 2 18 0.0000 0.0000
7 2 19 0.0000 0.0000
7 2 20 0.0000 0.0000
7 2 21 0.0000 0.0000
7 2 22 0.0000 0.0000
7 2 23 0.0000 0.0000
7 2 24 0.0000 0.0000
7 2 25 0.0000 0.0000
7 2 26 0.0000 0.0000
7 2 27 0.0000 0.0000
7 2 28 0.0000 0.0000
7 3 7 0.0000 0.0000
7 3 8 0.0000 0.0000
7 3 9 0.0000 0.0000
7 3 10 0.0000 0.0000
7 3 11 0.0000 0.0000
7 3 12 0.0000 0.0000
7 3 13 0.0000 0.0000
7 3 14 0.0000 0.0000
7 3 15 0.0000 0.0000
7 3 16 0.0000 0.0000
7 3 17 0.0000 0.0000
7 3 18 0.0000 0.0000
7 3 19 0.0000 0.0000
7 3 20 0.0000 0.0000
7 3 21 0.0000 0.0000
7 3 22 0.0000 0.0000
7 3 23 0.0000 0.0000
7 3 24 0.0000 0.0000
7 3 25 0.0000 0.0000
7 3 26 0.0000 0.0000
7 3 27 0.0000 0.0000
7 4 7 0.0000 0.0000
7 4 8 0.0000 0.0000
7 4 9 0.0000 0.0000
7 4 10 0.0000 0.0000
7 4 11 0.0000 0.0000
7 4 12 0.0000 0.0000
7 4 13 0.0000 0.0000
7 4 14 0.0000 0.0000
7 4 15 0.0000 0.0000
7 4 16 0.0000 0.0000
7 4 17 0.0000 0.0000
7 4 18 0.0000 0.0000
7 4 19 0.0000 0.0000
7 4 20 0.0000 0.0000
7 4 21 0.0000 0.0000
7 4 22 0.0000 0.0000
7 4 23 0.0000 0.0000
7 4 24 0.0000 0.0000
7 4 25 0.0000 0.0000
7 4 26 0.0000 0.0000
7 4 27 0.0000 0.0000
7 5 7 0.0000 0.0000
7 5 8 0.0000 0.0000
7 5 9 0.0000 0.0000
7 5 10 0.0000 0.0000
7 5 11 0.0000 0.0000
7 5 12 0.0000 0.0000
7 5 13 0.0000 0.0000
7 5 14 0.0000 0.0000
7 5 15 0.0000 0.0000
7 5 16 0.0000 0.0000
7 5 17 0.0000 0.0000
7 5 18 0.0000 0.0000
7 5 19 0.0000 0.0000
7 5 20 0.0000 0.0000
7 5 21 0.0000 0.0000
7 5 22 0.0000 0.0000
7 5 23 0.0000 0.0000
7 5 24 0.0000 0.0000
7 5 25 0.0000 0.0000
7 5 26 0.0000 0.0000
7 6 7 0.0000 0.0000
7 6 8 0.0000 0.0000
7 6 9 0.0000 0.0000
7 6 10 0.0000 0.0000
7 6 11 0.0000 0.0000
7 6 12 0.0000 0.0000
7 6 13 0.0000 0.0000
7 6 14 0.0000 0.0000
7 6 15 0.0000 0.0000
7 6 16 0.0000 0.0000
7 6 17 0.0000 0.0000
7 6 18 0.0000 0.0000
7 6 19 0.0000 0.0000
7 6 20 0.0000 0.0000
7 6 21 0.0000 0.0000
7 6 22 0.0000 0.0000
7 6 23 0.0000 0.0000
7 6 24 0.0000 0.0000
7 6 25 0.0000 0.0000
7 6 26 0.0000 0.0000
7 7 7 0.0000 0.0000
7 7 8 0.0000 0.0000
7 7 9 0.0000 0.0000
7 7 10 0.0000 0.0000
7 7 11 0.0000 0.0000
7 7 12 0.0000 0.0000
7 7 13 0.0000 0.0000
7 7 14 0.0000 0.0000
7 7 15 0.0000 0.0000
7 7 16 0.0000 0.0000
7 7 17 0.0000 0.0000
7 7 18 0.0000 0.0000
7 7 19 0.0000 0.0000
7 7 20 0.0000 0.0000
7 7 21 0.0000 0.0000
7 7 22 0.0000 0.0000
7 7 23 0.0000 0.0000
7 7 24 0.0000 0.0000
7 7 25 0.0000 0.0000
7 8 7 0.0000 0.0000
7 8 8 0.0000 0.0000
7 8 9 0.0000 0.0000
7 8 10 0.0000 0.0000
7 8 11 0.0000 0.0000
7 8 12 0.0000 0.0000
7 8 13 0.0000 0.0000
7 8 14 0.0000 0.0000
7 8 15 0.0000 0.0000
7 8 16 0.0000 0.0000
7 8 17 0.0000 0.0000
7 8 18 0.0000 0.0000
7 8 19 0.0000 0.0000
7 8 20 0.0000 0.0000
7 8 21 0.0000 0.0000
7 8 22 0.0000 0.0000
7 8 23 0.0000 0.0000
7 8 24 0.0000 0.0000
7 9 7 0.0000 0.0000
7 9 8 0.0000 0.0000
7 9 9 0.0000 0.0000
7 9 10 0.0000 0.0000
7 9 11 0.0000 0.0000
7 9 12 0.0000 0.0000
7 9 13 0.0000 0.0000
7 9 14 0.0000 0.0000
7 9 15 0.0000 0.0000
7 9 16 0.0000 0.0000
7 9 17 0.0000 0.0000
7 9 18 0.0000 0.0000
7 9 19 0.0000 0.0000
7 9 20 0.0000 0.0000
7 9 21 0.0000 0.0000
7 9 22 0.0000 0.0000
7 10 7 0.0000 0.0000
7 10 8 0.0000 0.0000
7 10 9 0.0000 0.0000
7 10 10 0.0000 0.0000
7 10 11 0.0000 0.0000
7 10 12 0.0000 0.0000
7 10 13 0.0000 0.0000
7 10 14 0.0000 0.0000
7 10 15 0.0000 0.0000
7 10 16 0.0000 0.0000
7 10 17 0.0000 0.0000
7 10 18 0.0000 0.0000
7 10 19 0.0000 0.0000
7 10 20 0.0000 0.0000
7 10 21 0.0000 0.0000
7 11 7 0.0000 0.0000
7 11 8 0.0000 0.0000
7 11 9 0.0000 0.0000
7 11 10 0.0000 0.0000
7 11 11 0.0000 0.0000
7 11 12 0.0000 0.0000
7 11 13 0.0000 0.0000
7 11 14 0.0000 0.0000
7 11 15 0.0000 0.0000
7 11 16 0.0000 0.0000
7 11 17 0.0000 0.0000
7 11 18 0.0000 0.0000
7 11 19 0.0000 0.0000
7 12 7 0.0000 0.0000
7 12 8 0.0000 0.0000
7 12 9 0.0000 0.0000
7 12 10 0.0000 0.0000
7 12 11 0.0000 0.0000
7 12 12 0.0000 0.0000
7 12 13 0.0000 0.0000
7 12 14 0.0000 0.0000
7 12 15 0.0000 0.0000
7 12 16 0.0000 0.0000
7 12 17 0.0000 0.0000
7 13 7 0.0000 0.0000
7 13 8 0.0000 0.0000
7 13 9 0.0000 0.0000
7 13 10 0.0000 0.0000
7 13 11 0.0000 0.0000
7 13 12 0.0000 0.0000
7 13 13 0.0000 0.0000
7 13 14 0.0000 0.0000
7 14 7 0.0000 0.0000
7 14 8 0.0000 0.0000
7 14 9 0.0000 0.0000
7 14 10 0.0000 0.0000
7 14 11 0.0000 0.0000
8 0 8 0.0000 0.0000
8 0 10 0.0000 0.0000
8 0 12 0.0000 0.0000
8 0 14 0.0000 0.0000
8 0 16 0.0000 0.0000
8 0 18 0.0000 0.0000
8 0 20 0.0000 0.0000
8 0 22 0.0000 0.0000
8 0 24 0.0000 0.0000
8 0 26 0.0000 0.0000
8 1 8 0.0000 0.0000
8 1 9 0.0000 0.0000
8 1 10 0.0000 0.0000
8 1 11 0.0000 0.0000
8 1 12 0.0000 0.0000
8 1 13 0.0000 0.0000
8 1 14 0.0000 0.0000
8 1 15 0.0000 0.0000
8 1 16 0.0000 0.0000
8 1 17 0.0000 0.0000
8 1 18 0.0000 0.0000
8 1 19 0.0000 0.0000
8 1 20 0.0000 0.0000
8 1 21 0.0000 0.0000
8 1 22 0.0000 0.0000
8 1 23 0.0000 0.0000
8 1 24 0.0000 0.0000
8 1 25 0.0000 0.0000
8 1 26 0.0000 0.0000
8 2 8 0.0000 0.0000
8 2 9 0.0000 0.0000
8 2 10 0.0000 0.0000
8 2 11 0.0000 0.0000
8 2 12 0.0000 0.0000
8 2 13 0.0000 0.0000
8 2 14 0.0000 0.0000
8 2 15 0.0000 0.0000
8 2 16 0.0000 0.0000
8 2 17 0.0000 0.0000
8 2 18 0.0000 0.0000
8 2 19 0.0000 0.0000
8 2 20 0.0000 0.0000
8 2 21 0.0000 0.0000
8 2 22 0.0000 0.0000
8 2 23 0.0000 0.0000
8 2 24 0.0000 0.0000
8 2 25 0.0000 0.0000
8 2 26 0.0000 0.0000
8 3 8 0.0000 0.0000
8 3 9 0.0000 0.0000
8 3 10 0.0000 0.0000
8 3 11 0.0000 0.0000
8 3 12 0.0000 0.0000
8 3 13 0.0000 0.0000
8 3 14 0.0000 0.0000
8 3 15 0.0000 0.0000
8 3 16 0.0000 0.0000
8 3 17 0.0000 0.0000
8 3 18 0.0000 0.0000
8 3 19 0.0000 0.0000
8 3 20 0.0000 0.0000
8 3 21 0.0000 0.0000
8 3 22 0.0000 0.0000
8 3 23 0.0000 0.0000
8 3 24 0.0000 0.0000
8 3 25 0.0000 0.0000
8 3 26 0.0000 0.0000
8 4 8 0.0000 0.0000
8 4 9 0.0000 0.0000
8 4 10 0.0000 0.0000
8 4 11 0.0000 0.0000
8 4 12 0.0000 0.0000
8 4 13 0.0000 0.0000
8 4 14 0.0000 0.0000
8 4 15 0.0000 0.0000
8 4 16 0.0000 0.0000
8 4 17 0.0000 0.0000
8 4 18 0.0000 0.0000
8 4 19 0.0000 0.0000
8 4 20 0.0000 0.0000
8 4 21 0.0000 0.0000
8 4 22 0.0000 0.0000
8 4 23 0.0000 0.0000
8 4 24 0.0000 0.0000
8 4 25 0.0000 0.0000
8 5 8 0.0000 0.0000
8 5 9 0.0000 0.0000
8 5 11 0.0000 0.0000
8 5 12 0.0000 0.0000
8 5 13 0.0000 0.0000
8 5 14 0.0000 0.0000
8 5 15 0.0000 0.0000
8 5 16 0.0000 0.0000
8 5 17 0.0000 0.0000
8 5 18 0.0000 0.0000
8 5 19 0.0000 0.0000
8 5 20 0.0000 0.0000
8 5 21 0.0000 0.0000
8 5 22 0.0000 0.0000
8 5 23 0.0000 0.0000
8 5 24 0.0000 0.0000
8 5 25 0.0000 0.0000
8 6 8 0.0000 0.0000
8 6 9 0.0000 0.0000
8 6 10 0.0000 0.0000
8 6 11 0.0000 0.0000
8 6 12 0.0000 0.0000
8 6 13 0.0000 0.0000
8 6 14 0.0000 0.0000
8 6 15 0.0000 0.0000
8 6 16 0.0000 0.0000
8 6 17 0.0000 0.0000
8 6 18 0.0000 0.0000
8 6 19 0.0000 0.0000
8 6 20 0.0000 0.0000
8 6 21 0.0000 0.0000
8 6 22 0.0000 0.0000
8 6 23 0.0000 0.0000
8 6 24 0.0000 0.0000
8 7 8 0.0000 0.0000
8 7 9 0.0000 0.0000
8 7 10 0.0000 0.0000
8 7 11 0.0000 0.0000
8 7 12 0.0000 0.0000
8 7 13 0.0000 0.0000
8 7 14 0.0000 0.0000
8 7 15 0.0000 0.0000
8 7 16 0.0000 0.0000
8 7 17 0.0000 0.0000
8 7 18 0.0000 0.0000
8 7 19 0.0000 0.0000
8 7 20 0.0000 0.0000
8 7 21 0.0000 0.0000
8 7 22 0.0000 0.0000
8 7 23 0.0000 0.0000
8 8 8 0.0000 0.0000
8 8 9 0.0000 0.0000
8 8 10 0.0000 0.0000
8 8 11 0.0000 0.0000
8 8 12 0.0000 0.0000
8 8 13 0.0000 0.0000
8 8 14 0.0000 0.0000
8 8 15 0.0000 0.0000
8 8 16 0.0000 0.0000
8 8 17 0.0000 0.0000
8 8 18 0.0000 0.0000
8 8 19 0.0000 0.0000
8 8 20 0.0000 0.0000
8 8 21 0.0000 0.0000
8 8 22 0.0000 0.0000
8 9 8 0.0000 0.0000
8 9 9 0.0000 0.0000
8 9 10 0.0000 0.0000
8 9 11 0.0000 0.0000
8 9 12 0.0000 0.0000
8 9 13 0.0000 0.0000
8 9 14 0.0000 0.0000
8 9 15 0.0000 0.0000
8 9 16 0.0000 0.0000
8 9 17 0.0000 0.0000
8 9 18 0.0000 0.0000
8 9 19 0.0000 0.0000
8 9 20 0.0000 0.0000
8 9 21 0.0000 0.0000
8 10 8 0.0000 0.0000
8 10 9 0.0000 0.0000
8 10 10 0.0000 0.0000
8 10 11 0.0000 0.0000
8 10 12 0.0000 0.0000
8 10 13 0.0000 0.0000
8 10 14 0.0000 0.0000
8 10 15 0.0000 0.0000
8 10 16 0.0000 0.0000
8 10 17 0.0000 0.0000
8 10 18 0.0000 0.0000
8 10 19 0.0000 0.0000
8 11 8 0.0000 0.0000
8 11 9 0.0000 0.0000
8 11 10 0.0000 0.0000
8 11 11 0.0000 0.0000
8 11 12 0.0000 0.0000
8 11 13 0.0000 0.0000
8 11 14 0.0000 0.0000
8 11 15 0.0000 0.0000
8 11 16 0.0000 0.0000
8 11 17 0.0000 0.0000
8 12 8 0.0000 0.0000
8 12 9 0.0000 0.0000
8 12 10 0.0000 0.0000
8 12 11 0.0000 0.0000
8 12 12 0.0000 0.0000
8 12 13 0.0000 0.0000
8 12 14 0.0000 0.0000
8 12 15 0.0000 0.0000
8 13 8 0.0000 0.0000
8 13 9 0.0000 0.0000
8 13 10 0.0000 0.0000
8 13 11 0.0000 0.0000
9 0 9 0.0000 0.0000
9 0 11 0.0000 0.0000
9 0 13 0.0000 0.0000
9 0 15 0.0000 0.0000
9 0 19 0.0000 0.0000
9 0 21 0.0000 0.0000
9 0 23 0.0000 0.0000
9 0 25 0.0000 0.0000
9 1 9 0.0000 0.0000
9 1 10 0.0000 0.0000
9 1 11 0.0000 0.0000
9 1 12 0.0000 0.0000
9 1 13 0.0000 0.0000
9 1 14 0.0000 0.0000
9 1 15 0.0000 0.0000
9 1 16 0.0000 0.0000
9 1 17 0.0000 0.0000
9 1 18 0.0000 0.0000
9 1 19 0.0000 0.0000
9 1 20 0.0000 0.0000
9 1 21 0.0000 0.0000
9 1 22 0.0000 0.0000
9 1 23 0.0000 0.0000
9 1 24 0.0000 0.0000
9 1 25 0.0000 0.0000
9 2 9 0.0000 0.0000
9 2 10 0.0000 0.0000
9 2 11 0.0000 0.0000
9 2 12 0.0000 0.0000
9 2 13 0.0000 0.0000
9 2 14 0.0000 0.0000
9 2 15 0.0000 0.0000
9 2 16 0.0000 0.0000
9 2 17 0.0000 0.0000
9 2 18 0.0000 0.0000
9 2 19 0.0000 0.0000
9 2 20 0.0000 0.0000
9 2 21 0.0000 0.0000
9 2 22 0.0000 0.0000
9 2 23 0.0000 0.0000
9 2 24 0.0000 0.0000
9 2 25 0.0000 0.0000
9 3 9 0.0000 0.0000
9 3 10 0.0000 0.0000
9 3 11 0.0000 0.0000
9 3 12 0.0000 0.0000
9 3 13 0.0000 0.0000
9 3 14 0.0000 0.0000
9 3 15 0.0000 0.0000
9 3 16 0.0000 0.0000
9 3 17 0.0000 0.0000
9 3 18 0.0000 0.0000
9 3 19 0.0000 0.0000
9 3 20 0.0000 0.0000
9 3 21 0.0000 0.0000
9 3 22 0.0000 0.0000
9 3 23 0.0000 0.0000
9 3 24 0.0000 0.0000
9 4 9 0.0000 0.0000
9 4 11 0.0000 0.0000
9 4 12 0.0000 0.0000
9 4 13 0.0000 0.0000
9 4 14 0.0000 0.0000
9 4 15 0.0000 0.0000
9 4 16 0.0000 0.0000
9 4 17 0.0000 0.0000
9 4 18 0.0000 0.0000
9 4 19 0.0000 0.0000
9 4 20 0.0000 0.0000
9 4 21 0.0000 0.0000
9 4 22 0.0000 0.0000
9 4 23 0.0000 0.0000
9 4 24 0.0000 0.0000
9 5 9 0.0000 0.0000
9 5 10 0.0000 0.0000
9 5 11 0.0000 0.0000
9 5 12 0.0000 0.0000
9 5 13 0.0000 0.0000
9 5 14 0.0000 0.0000
9 5 15 0.0000 0.0000
9 5 16 0.0000 0.0000
9 5 17 0.0000 0.0000
9 5 18 0.0000 0.0000
9 5 19 0.0000 0.0000
9 5 20 0.0000 0.0000
9 5 21 0.0000 0.0000
9 5 22 0.0000 0.0000
9 5 23 0.0000 0.0000
9 6 9 0.0000 0.0000
9 6 10 0.0000 0.0000
9 6 11 0.0000 0.0000
9 6 12 0.0000 0.0000
9 6 13 0.0000 0.0000
9 6 14 0.0000 0.0000
9 6 15 0.0000 0.0000
9 6 16 0.0000 0.0000
9 6 17 0.0000 0.0000
9 6 18 0.0000 0.0000
9 6 19 0.0000 0.0000
9 6 20 0.0000 0.0000
9 6 21 0.0000 0.0000
9 6 22 0.0000 0.0000
9 7 9 0.0000 0.0000
9 7 10 0.0000 0.0000
9 7 11 0.0000 0.0000
9 7 12 0.0000 0.0000
9 7 13 0.0000 0.0000
9 7 14 0.0000 0.0000
9 7 15 0.0000 0.0000
9 7 16 0.0000 0.0000
9 7 17 0.0000 0.0000
9 7 18 0.0000 0.0000
9 7 19 0.0000 0.0000
9 7 20 0.0000 0.0000
9 7 21 0.0000 0.0000
9 8 9 0.0000 0.0000
9 8 10 0.0000 0.0000
9 8 11 0.0000 0.0000
9 8 12 0.0000 0.0000
9 8 13 0.0000 0.0000
9 8 14 0.0000 0.0000
9 8 15 0.0000 0.0000
9 8 16 0.0000 0.0000
9 8 17 0.0000 0.0000
9 8 18 0.0000 0.0000
9 8 19 0.0000 0.0000
9 8 20 0.0000 0.0000
9 9 9 0.0000 0.0000
9 9 10 0.0000 0.0000
9 9 11 0.0000 0.0000
9 9 12 0.0000 0.0000
9 9 13 0.0000 0.0000
9 9 14 0.0000 0.0000
9 9 15 0.0000 0.0000
9 9 16 0.0000 0.0000
9 9 17 0.0000 0.0000
9 9 18 0.0000 0.0000
9 9 19 0.0000 0.0000
9 10 9 0.0000 0.0000
9 10 10 0.0000 0.0000
9 10 11 0.0000 0.0000
9 10 12 0.0000 0.0000
9 10 13 0.0000 0.0000
9 10 14 0.0000 0.0000
9 10 15 0.0000 0.0000
9 10 16 0.0000 0.0000
9 10 17 0.0000 0.0000
9 11 9 0.0000 0.0000
9 11 10 0.0000 0.0000
9 11 11 0.0000 0.0000
9 11 12 0.0000 0.0000
9 11 13 0.0000 0.0000
9 11 14 0.0000 0.0000
9 12 9 0.0000 0.0000
9 12 10 0.0000 0.0000
9 12 11 0.0000 0.0000
9 12 12 0.0000 0.0000
10 0 12 0.0000 0.0000
10 0 14 0.0000 0.0000
10 0 16 0.0000 0.0000
10 0 18 0.0000 0.0000
10 0 20 0.0000 0.0000
10 0 22 0.0000 0.0000
10 1 10 0.0000 0.0000
10 1 11 0.0000 0.0000
10 1 12 0.0000 0.0000
10 1 13 0.0000 0.0000
10 1 14 0.0000 0.0000
10 1 15 0.0000 0.0000
10 1 16 0.0000 0.0000
10 1 17 0.0000 0.0000
10 1 18 0.0000 0.0000
10 1 19 0.0000 0.0000
10 1 20 0.0000 0.0000
10 1 21 0.0000 0.0000
10 1 22 0.0000 0.0000
10 1 23 0.0000 0.0000
10 2 10 0.0000 0.0000
10 2 11 0.0000 0.0000
10 2 12 0.0000 0.0000
10 2 13 0.0000 0.0000
10 2 14 0.0000 0.0000
10 2 15 0.0000 0.0000
10 2 16 0.0000 0.0000
10 2 17 0.0000 0.0000
10 2 18 0.0000 0.0000
10 2 19 0.0000 0.0000
10 2 20 0.0000 0.0000
10 2 21 0.0000 0.0000
10 2 22 0.0000 0.0000
10 2 23 0.0000 0.0000
10 3 10 0.0000 0.0000
10 3 11 0.0000 0.0000
10 3 12 0.0000 0.0000
10 3 13 0.0000 0.0000
10 3 14 0.0000 0.0000
10 3 15 0.0000 0.0000
10 3 16 0.0000 0.0000
10 3 17 0.0000 0.0000
10 3 18 0.0000 0.0000
10 3 19 0.0000 0.0000
10 3 20 0.0000 0.0000
10 3 21 0.0000 0.0000
10 3 22 0.0000 0.0000
10 4 10 0.0000 0.0000
10 4 11 0.0000 0.0000
10 4 12 0.0000 0.0000
10 4 13 0.0000 0.0000
10 4 14 0.0000 0.0000
10 4 15 0.0000 0.0000
10 4 16 0.0000 0.0000
10 4 17 0.0000 0.0000
10 4 18 0.0000 0.0000
10 4 19 0.0000 0.0000
10 4 20 0.0000 0.0000
10 4 21 0.0000 0.0000
10 4 22 0.0000 0.0000
10 5 10 0.0000 0.0000
10 5 11 0.0000 0.0000
10 5 12 0.0000 0.0000
10 5 13 0.0000 0.0000
10 5 14 0.0000 0.0000
10 5 15 0.0000 0.0000
10 5 16 0.0000 0.0000
10 5 17 0.0000 0.0000
10 5 18 0.0000 0.0000
10 5 19 0.0000 0.0000
10 5 20 0.0000 0.0000
10 5 21 0.0000 0.0000
10 6 10 0.0000 0.0000
10 6 11 0.0000 0.0000
10 6 12 0.0000 0.0000
10 6 13 0.0000 0.0000
10 6 14 0.0000 0.0000
10 6 15 0.0000 0.0000
10 6 16 0.0000 0.0000
10 6 17 0.0000 0.0000
10 6 18 0.0000 0.0000
10 6 19 0.0000 0.0000
10 6 20 0.0000 0.0000
10 7 10 0.0000 0.0000
10 7 11 0.0000 0.0000
10 7 12 0.0000 0.0000
10 7 13 0.0000 0.0000
10 7 14 0.0000 0.0000
10 7 15 0.0000 0.0000
10 7 16 0.0000 0.0000
10 7 17 0.0000 0.0000
10 7 18 0.0000 0.0000
10 7 19 0.0000 0.0000
10 8 10 0.0000 0.0000
10 8 11 0.0000 0.0000
10 8 12 0.0000 0.0000
10 8 13 0.0000 0.0000
10 8 14 0.0000 0.0000
10 8 15 0.0000 0.0000
10 8 16 0.0000 0.0000
10 8 17 0.0000 0.0000
10 8 18 0.0000 0.0000
10 9 10 0.0000 0.0000
10 9 11 0.0000 0.0000
10 9 12 0.0000 0.0000
10 9 13 0.0000 0.0000
10 9 14 0.0000 0.0000
10 9 15 0.0000 0.0000
10 9 16 0.0000 0.0000
10 10 10 0.0000 0.0000
10 10 11 0.0000 0.0000
10 10 12 0.0000 0.0000
10 10 13 0.0000 0.0000
10 10 14 0.0000 0.0000
10 11 10 0.0000 0.0000
10 11 11 0.0000 0.0000
11 0 11 0.0000 0.0000
11 0 13 0.0000 0.0000
11 0 15 0.0000 0.0000
11 0 17 0.0000 0.0000
11 0 19 0.0000 0.0000
11 0 21 0.0000 0.0000
11 1 11 0.0000 0.0000
11 1 12 0.0000 0.0000
11 1 13 0.0000 0.0000
11 1 14 0.0000 0.0000
11 1 15 0.0000 0.0000
11 1 16 0.0000 0.0000
11 1 17 0.0000 0.0000
11 1 18 0.0000 0.0000
11 1 19 0.0000 0.0000
11 1 20 0.0000 0.0000
11 2 11 0.0000 0.0000
11 2 12 0.0000 0.0000
11 2 13 0.0000 0.0000
11 2 14 0.0000 0.0000
11 2 15 0.0000 0.0000
11 2 16 0.0000 0.0000
11 2 17 0.0000 0.0000
11 2 18 0.0000 0.0000
11 2 19 0.0000 0.0000
11 2 20 0.0000 0.0000
11 3 11 0.0000 0.0000
11 3 12 0.0000 0.0000
11 3 13 0.0000 0.0000
11 3 14 0.0000 0.0000
11 3 15 0.0000 0.0000
11 3 16 0.0000 0.0000
11 3 17 0.0000 0.0000
11 3 18 0.0000 0.0000
11 3 19 0.0000 0.0000
11 3 20 0.0000 0.0000
11 4 11 0.0000 0.0000
11 4 12 0.0000 0.0000
11 4 13 0.0000 0.0000
11 4 14 0.0000 0.0000
11 4 15 0.0000 0.0000
11 4 16 0.0000 0.0000
11 4 17 0.0000 0.0000
11 4 18 0.0000 0.0000
11 4 19 0.0000 0.0000
11 5 11 0.0000 0.0000
11 5 12 0.0000 0.0000
11 5 13 0.0000 0.0000
11 5 14 0.0000 0.0000
11 5 15 0.0000 0.0000
11 5 16 0.0000 0.0000
11 5 17 0.0000 0.0000
11 5 18 0.0000 0.0000
11 6 11 0.0000 0.0000
11 6 12 0.0000 0.0000
11 6 13 0.0000 0.0000
11 6 14 0.0000 0.0000
11 6 15 0.0000 0.0000
11 6 16 0.0000 0.0000
11 6 17 0.0000 0.0000
11 7 11 0.0000 0.0000
11 7 12 0.0000 0.0000
11 7 13 0.0000 0.0000
11 7 14 0.0000 0.0000
11 7 15 0.0000 0.0000
11 7 16 0.0000 0.0000
11 8 11 0.0000 0.0000
11 8 12 0.0000 0.0000
11 8 13 0.0000 0.0000
11 8 14 0.0000 0.0000
11 9 11 0.0000 0.0000
11 9 12 0.0000 0.0000
12 0 12 0.0000 0.0000
12 0 14 0.0000 0.0000
12 0 16 0.0000 0.0000
12 0 18 0.0000 0.0000
12 1 12 0.0000 0.0000
12 1 13 0.0000 0.0000
12 1 14 0.0000 0.0000
12 1 15 0.0000 0.0000
12 1 16 0.0000 0.0000
12 1 17 0.0000 0.0000
12 1 18 0.0000 0.0000
12 2 12 0.0000 0.0000
12 2 13 0.0000 0.0000
12 2 14 0.0000 0.0000
12 2 15 0.0000 0.0000
12 2 16 0.0000 0.0000
12 2 17 0.0000 0.0000
12 3 12 0.0000 0.0000
12 3 13 0.0000 0.0000
12 3 14 0.0000 0.0000
12 3 15 0.0000 0.0000
12 3 16 0.0000 0.0000
12 3 17 0.0000 0.0000
12 4 12 0.0000 0.0000
12 4 13 0.0000 0.0000
12 4 14 0.0000 0.0000
12 4 15 0.0000 0.0000
12 4 16 0.0000 0.0000
12 5 12 0.0000 0.0000
12 5 13 0.0000 0.0000
12 5 14 0.0000 0.0000
12 5 15 0.0000 0.0000
12 6 12 0.0000 0.0000
12 6 13 0.0000 0.0000
12 6 14 0.0000 0.0000
12 7 12 0.0000 0.0000
13 0 13 0.0000 0.0000
13 1 13 0.0000 0.0000
13 1 14 0.0000 0.0000
13 2 13 0.0000 0.0000
13 2 14 0.0000 0.0000
13 3 13 0.0000 0.0000
0 0 0 0.0 0.0
;
_shelx_fab_checksum              39594
loop_
_space_group_symop_operation_xyz
'x, y, z'
'-x+1/2, y+1/2, -z+1/2'
'-x, -y, -z'
'x-1/2, -y-1/2, z-1/2'
loop_
_atom_site_label
_atom_site_type_symbol
_atom_site_fract_x
_atom_site_fract_y
_atom_site_fract_z
_atom_site_U_iso_or_equiv
_atom_site_adp_type
_atom_site_occupancy
_atom_site_site_symmetry_order
_atom_site_calc_flag
_atom_site_refinement_flags_posn
_atom_site_refinement_flags_adp
Cd1 Cd 0.61447(8) 0.34217(7) 0.55110(3) 0.0298(3) Uani 1 1 d . .
Cd2 Cd 0.65226(6) 0.58430(5) 0.26426(3) 0.0158(2) Uani 1 1 d . .
Cd3 Cd 0.35669(6) 0.65956(5) 0.26245(3) 0.0176(2) Uani 1 1 d . .
O7 O 0.5353(7) 0.7247(6) 0.2609(3) 0.0252(17) Uani 1 1 d . U
O5 O 0.8265(7) 1.0742(5) 0.1505(3) 0.0243(17) Uani 1 1 d . .
O13 O 0.6833(7) 0.1822(7) 0.2414(3) 0.0293(19) Uani 1 1 d . .
O18 O 0.4883(11) 0.4395(8) 0.5757(4) 0.062(4) Uani 1 1 d D .
H18A H 0.4939 0.4454 0.6072 0.094 Uiso 1 1 d R U
H18B H 0.4975 0.4932 0.5622 0.094 Uiso 1 1 d R U
O9 O 0.4673(6) 0.5200(6) 0.2687(3) 0.0208(16) Uani 1 1 d . .
O14 O 0.7780(7) 0.1388(6) 0.3096(3) 0.0271(18) Uani 1 1 d . .
O11 O 0.1485(8) 0.1791(6) 0.1530(3) 0.030(2) Uani 1 1 d . .
O17 O 0.7572(11) 0.4531(10) 0.5577(5) 0.061(3) Uani 1 1 d . .
H17A H 0.7928 0.4720 0.5841 0.092 Uiso 1 1 d R U
H17B H 0.7859 0.4842 0.5343 0.092 Uiso 1 1 d R U
O4 O 0.3140(7) 1.0627(6) 0.2392(3) 0.0289(19) Uani 1 1 d . U
O8 O 0.4403(9) 0.7545(8) 0.1922(5) 0.051(3) Uani 1 1 d . .
O1 O 0.6525(8) 1.0281(9) 0.4602(4) 0.048(3) Uani 1 1 d D .
O3 O 0.2451(8) 1.1147(7) 0.3086(3) 0.035(2) Uani 1 1 d . .
O19 O 0.4894(13) 0.2196(9) 0.5512(5) 0.072(4) Uani 1 1 d . .
H19A H 0.4745 0.2041 0.5817 0.108 Uiso 1 1 d R U
H19B H 0.5191 0.1678 0.5397 0.108 Uiso 1 1 d R U
O10 O 0.5576(8) 0.4802(7) 0.2041(4) 0.036(2) Uani 1 1 d . .
O6 O 0.7277(12) 1.0099(9) 0.0867(4) 0.057(3) Uani 1 1 d . .
O16 O 0.6687(8) 0.2789(8) 0.4736(3) 0.039(2) Uani 1 1 d . .
O15 O 0.5350(9) 0.3885(8) 0.4740(3) 0.041(2) Uani 1 1 d D .
O2 O 0.4875(11) 1.1004(7) 0.4674(4) 0.046(3) Uani 1 1 d . .
O12 O 0.2262(10) 0.2591(8) 0.0926(3) 0.045(3) Uani 1 1 d . .
N2 N 0.6732(8) 0.8884(6) 0.2392(3) 0.0152(17) Uani 1 1 d . U
N1 N 0.7340(7) 0.9548(6) 0.2160(3) 0.0150(17) Uani 1 1 d . U
N3 N 0.3253(7) 0.3548(6) 0.2469(3) 0.0112(16) Uani 1 1 d . U
N4 N 0.2558(7) 0.2930(6) 0.2228(3) 0.0148(17) Uani 1 1 d . U
C14 C 0.7510(10) 1.0148(9) 0.1314(4) 0.026(2) Uani 1 1 d . .
C13 C 0.7028(9) 0.9482(7) 0.1672(4) 0.017(2) Uani 1 1 d . .
C16 C 0.3884(9) 0.4024(8) 0.2149(4) 0.018(2) Uani 1 1 d . .
C21 C 0.6973(10) 0.1840(8) 0.2879(4) 0.022(2) Uani 1 1 d . .
C23 C 0.5150(9) 0.2680(8) 0.2957(4) 0.020(2) Uani 1 1 d . .
H23 H 0.4969 0.2553 0.2624 0.024 Uiso 1 1 calc R U
C22 C 0.6183(10) 0.2356(8) 0.3174(4) 0.022(2) Uani 1 1 d . .
C27 C 0.6435(11) 0.2524(9) 0.3683(5) 0.029(3) Uani 1 1 d . .
H27 H 0.7093 0.2294 0.3833 0.034 Uiso 1 1 calc R U
C5 C 0.4961(9) 0.9780(9) 0.2906(4) 0.024(2) Uani 1 1 d . .
H5 H 0.4818 0.9615 0.2574 0.028 Uiso 1 1 calc R U
C28 C 0.5963(11) 0.3242(9) 0.4499(4) 0.026(2) Uani 1 1 d . .
C10 C 0.5198(11) 0.7682(9) 0.2193(5) 0.026(2) Uani 1 1 d . U
C8 C 0.3164(10) 1.0694(7) 0.2851(4) 0.021(2) Uani 1 1 d . .
C12 C 0.6209(10) 0.8779(8) 0.1593(4) 0.023(2) Uani 1 1 d . .
H12 H 0.5851 0.8601 0.1293 0.028 Uiso 1 1 calc R U
C26 C 0.5685(9) 0.3044(8) 0.3961(4) 0.021(2) Uani 1 1 d . .
C4 C 0.5954(10) 0.9463(8) 0.3153(4) 0.021(2) Uani 1 1 d . .
C20 C 0.3318(9) 0.3555(7) 0.3016(4) 0.015(2) Uani 1 1 d . U
H20A H 0.2716 0.3173 0.3137 0.018 Uiso 1 1 calc R U
H20B H 0.3217 0.4200 0.3132 0.018 Uiso 1 1 calc R U
C1 C 0.5584(9) 1.0606(9) 0.4430(4) 0.032(3) Uani 1 1 d D U
C3 C 0.6114(9) 0.9734(8) 0.3657(4) 0.022(2) Uani 1 1 d . U
H3 H 0.6758 0.9533 0.3831 0.026 Uiso 1 1 calc R U
C15 C 0.4751(9) 0.4713(8) 0.2305(4) 0.019(2) Uani 1 1 d . U
C25 C 0.4673(10) 0.3376(8) 0.3733(4) 0.022(2) Uani 1 1 d . .
H25 H 0.4180 0.3727 0.3916 0.026 Uiso 1 1 calc R U
C11 C 0.6056(10) 0.8419(8) 0.2050(4) 0.021(2) Uani 1 1 d . U
C17 C 0.3598(12) 0.3714(8) 0.1685(4) 0.028(3) Uani 1 1 d . .
H17 H 0.3892 0.3906 0.1388 0.033 Uiso 1 1 calc R U
C6 C 0.4189(9) 1.0331(8) 0.3145(4) 0.018(2) Uani 1 1 d . .
C9 C 0.6818(9) 0.8839(9) 0.2932(4) 0.023(2) Uani 1 1 d . .
H9A H 0.7555 0.9042 0.3049 0.027 Uiso 1 1 calc R U
H9B H 0.6715 0.8188 0.3039 0.027 Uiso 1 1 calc R U
C24 C 0.4419(9) 0.3176(8) 0.3232(4) 0.018(2) Uani 1 1 d . U
C7 C 0.4385(10) 1.0585(9) 0.3636(4) 0.025(2) Uani 1 1 d . .
H7 H 0.3867 1.0962 0.3790 0.030 Uiso 1 1 calc R U
C19 C 0.2128(12) 0.2447(10) 0.1377(5) 0.034(3) Uani 1 1 d . .
C18 C 0.2765(9) 0.3045(7) 0.1749(4) 0.016(2) Uani 1 1 d . .
C2 C 0.5346(10) 1.0291(8) 0.3911(4) 0.025(2) Uani 1 1 d D .
loop_
_atom_site_aniso_label
_atom_site_aniso_U_11
_atom_site_aniso_U_22
_atom_site_aniso_U_33
_atom_site_aniso_U_23
_atom_site_aniso_U_13
_atom_site_aniso_U_12
Cd1 0.0396(6) 0.0307(5) 0.0188(5) 0.0022(3) -0.0009(4) 0.0145(4)
Cd2 0.0111(4) 0.0145(4) 0.0219(4) 0.0016(3) 0.0014(3) -0.0020(3)
Cd3 0.0110(4) 0.0150(4) 0.0268(5) -0.0013(3) -0.0002(3) 0.0000(3)
O7 0.024(3) 0.021(3) 0.030(3) 0.001(3) 0.008(3) -0.005(3)
O5 0.026(4) 0.013(4) 0.033(4) 0.004(3) 0.000(3) -0.014(3)
O13 0.017(4) 0.041(5) 0.029(5) -0.003(4) -0.001(3) 0.010(4)
O18 0.082(9) 0.042(6) 0.067(8) 0.032(6) 0.049(7) 0.036(6)
O9 0.016(4) 0.021(4) 0.025(4) -0.005(3) -0.005(3) 0.006(3)
O14 0.022(4) 0.028(4) 0.032(4) 0.002(4) 0.005(3) 0.012(4)
O11 0.033(5) 0.025(4) 0.032(5) 0.000(4) -0.004(4) -0.019(4)
O17 0.066(8) 0.062(8) 0.054(7) 0.011(6) -0.015(6) -0.011(7)
O4 0.026(3) 0.030(4) 0.030(3) -0.005(3) -0.003(3) 0.014(3)
O8 0.037(6) 0.040(6) 0.075(8) 0.012(5) -0.010(5) -0.023(5)
O1 0.047(6) 0.065(7) 0.031(5) -0.017(5) -0.020(5) 0.016(5)
O3 0.026(5) 0.044(6) 0.035(5) -0.004(4) 0.003(4) 0.019(4)
O19 0.096(11) 0.045(7) 0.080(9) -0.033(7) 0.042(8) -0.027(7)
O10 0.028(5) 0.035(5) 0.044(5) -0.002(4) 0.004(4) -0.015(4)
O6 0.087(9) 0.063(8) 0.021(5) 0.000(5) -0.008(5) -0.030(7)
O16 0.037(5) 0.054(6) 0.025(4) -0.003(4) -0.007(4) 0.023(5)
O15 0.047(6) 0.048(6) 0.028(5) -0.008(4) -0.007(4) 0.013(5)
O2 0.078(8) 0.030(5) 0.029(5) -0.012(4) -0.018(5) 0.006(5)
O12 0.063(7) 0.052(6) 0.018(4) 0.008(4) -0.011(4) -0.038(6)
N2 0.017(3) 0.011(3) 0.018(3) 0.000(3) 0.003(3) -0.002(3)
N1 0.011(3) 0.016(3) 0.017(3) 0.001(3) 0.002(3) -0.003(3)
N3 0.010(3) 0.006(3) 0.017(3) -0.001(3) -0.002(3) -0.001(3)
N4 0.013(3) 0.018(3) 0.013(3) 0.002(3) -0.006(3) -0.006(3)
C14 0.024(6) 0.028(6) 0.028(6) 0.006(5) 0.004(5) 0.002(5)
C13 0.015(5) 0.014(5) 0.021(5) 0.006(4) 0.008(4) 0.008(4)
C16 0.015(5) 0.014(5) 0.025(5) -0.003(4) 0.000(4) -0.005(4)
C21 0.021(6) 0.021(5) 0.025(6) -0.004(4) -0.001(4) -0.008(5)
C23 0.018(5) 0.025(6) 0.017(5) -0.002(4) -0.001(4) -0.004(4)
C22 0.025(6) 0.012(5) 0.027(6) -0.001(4) -0.004(5) 0.002(4)
C27 0.024(6) 0.031(7) 0.031(6) 0.007(5) 0.003(5) 0.002(5)
C5 0.012(5) 0.033(6) 0.027(6) 0.000(5) 0.007(4) 0.001(5)
C28 0.029(6) 0.034(6) 0.016(5) -0.002(5) 0.005(5) -0.003(5)
C10 0.026(4) 0.021(4) 0.032(4) -0.006(3) -0.001(4) -0.002(4)
C8 0.027(6) 0.011(5) 0.024(5) 0.006(4) -0.018(5) -0.001(4)
C12 0.030(6) 0.025(6) 0.013(5) -0.012(4) -0.006(4) 0.002(5)
C26 0.016(5) 0.020(5) 0.027(6) 0.006(4) 0.003(4) 0.001(4)
C4 0.023(6) 0.015(5) 0.026(6) 0.002(4) -0.002(5) 0.007(4)
C20 0.016(4) 0.013(4) 0.017(4) -0.007(3) -0.002(3) 0.004(3)
C1 0.027(4) 0.038(5) 0.029(4) 0.004(4) 0.002(4) -0.004(4)
C3 0.017(4) 0.023(4) 0.025(4) 0.002(3) 0.003(3) 0.006(3)
C15 0.016(4) 0.015(4) 0.025(4) 0.005(3) -0.008(3) -0.002(3)
C25 0.021(6) 0.022(6) 0.021(5) -0.001(4) -0.002(4) 0.006(4)
C11 0.019(4) 0.016(4) 0.030(4) -0.003(3) 0.002(3) 0.000(3)
C17 0.050(8) 0.010(5) 0.022(6) 0.001(4) -0.010(5) -0.005(5)
C6 0.012(5) 0.020(5) 0.023(5) 0.004(4) -0.003(4) 0.009(4)
C9 0.014(5) 0.028(6) 0.027(6) 0.002(5) 0.006(4) 0.008(5)
C24 0.018(4) 0.015(4) 0.019(4) 0.002(3) 0.000(3) 0.001(3)
C7 0.020(6) 0.028(6) 0.027(6) -0.002(5) 0.003(5) 0.007(5)
C19 0.045(8) 0.035(7) 0.021(6) -0.006(5) -0.011(5) -0.013(6)
C18 0.013(5) 0.015(5) 0.019(5) 0.002(4) -0.004(4) 0.002(4)
C2 0.029(6) 0.023(6) 0.023(6) -0.001(4) 0.000(5) 0.009(5)
loop_
_atom_type_symbol
_atom_type_description
_atom_type_scat_dispersion_real
_atom_type_scat_dispersion_imag
_atom_type_scat_source
C C 0.0033 0.0016 'International Tables Vol C Tables 4.2.6.8 and 6.1.1.4'
H H 0.0000 0.0000 'International Tables Vol C Tables 4.2.6.8 and 6.1.1.4'
Cd Cd -0.8075 1.2024 'International Tables Vol C Tables 4.2.6.8 and 6.1.1.4'
N N 0.0061 0.0033 'International Tables Vol C Tables 4.2.6.8 and 6.1.1.4'
O O 0.0106 0.0060 'International Tables Vol C Tables 4.2.6.8 and 6.1.1.4'
loop_
_geom_angle_atom_site_label_1
_geom_angle_atom_site_label_2
_geom_angle_atom_site_label_3
_geom_angle
_geom_angle_site_symmetry_1
_geom_angle_site_symmetry_3
O18 Cd1 O12 131.8(4) . 4_666
O18 Cd1 O19 90.5(5) . .
O12 Cd1 O19 84.0(6) 4_666 .
O18 Cd1 O17 94.3(5) . .
O12 Cd1 O17 88.1(5) 4_666 .
O19 Cd1 O17 172.1(5) . .
O18 Cd1 O15 80.3(3) . .
O12 Cd1 O15 146.8(3) 4_666 .
O19 Cd1 O15 88.4(5) . .
O17 Cd1 O15 98.6(4) . .
O18 Cd1 O16 136.6(4) . .
O12 Cd1 O16 90.9(3) 4_666 .
O19 Cd1 O16 85.8(4) . .
O17 Cd1 O16 95.0(5) . .
O15 Cd1 O16 56.3(3) . .
O5 Cd2 O14 147.7(3) 2_645 2_655
O5 Cd2 N1 71.8(3) 2_645 2_645
O14 Cd2 N1 102.9(3) 2_655 2_645
O5 Cd2 O9 89.2(3) 2_645 .
O14 Cd2 O9 122.6(3) 2_655 .
N1 Cd2 O9 103.2(3) 2_645 .
O5 Cd2 O13 92.6(3) 2_645 2_655
O14 Cd2 O13 55.2(3) 2_655 2_655
N1 Cd2 O13 89.3(3) 2_645 2_655
O9 Cd2 O13 167.3(3) . 2_655
O5 Cd2 O7 97.1(3) 2_645 .
O14 Cd2 O7 86.0(3) 2_655 .
N1 Cd2 O7 168.9(3) 2_645 .
O9 Cd2 O7 76.9(3) . .
O13 Cd2 O7 90.4(3) 2_655 .
O5 Cd2 O10 130.8(3) 2_645 .
O14 Cd2 O10 78.9(3) 2_655 .
N1 Cd2 O10 86.0(3) 2_645 .
O9 Cd2 O10 53.2(3) . .
O13 Cd2 O10 131.4(3) 2_655 .
O7 Cd2 O10 102.5(3) . .
O11 Cd3 O3 144.6(3) 2 2_545
O11 Cd3 O7 92.2(3) 2 .
O3 Cd3 O7 122.9(3) 2_545 .
O11 Cd3 N4 72.2(3) 2 2
O3 Cd3 N4 94.2(3) 2_545 2
O7 Cd3 N4 102.9(3) . 2
O11 Cd3 O9 94.1(3) 2 .
O3 Cd3 O9 96.0(3) 2_545 .
O7 Cd3 O9 79.3(3) . .
N4 Cd3 O9 166.1(3) 2 .
O11 Cd3 O4 91.2(3) 2 2_545
O3 Cd3 O4 54.9(3) 2_545 2_545
O7 Cd3 O4 169.3(3) . 2_545
N4 Cd3 O4 87.8(3) 2 2_545
O9 Cd3 O4 90.3(3) . 2_545
O11 Cd3 O8 134.4(4) 2 .
O3 Cd3 O8 75.1(3) 2_545 .
O7 Cd3 O8 52.3(3) . .
N4 Cd3 O8 87.5(4) 2 .
O9 Cd3 O8 104.3(4) . .
O4 Cd3 O8 129.3(3) 2_545 .
C10 O7 Cd3 96.2(7) . .
C10 O7 Cd2 118.8(7) . .
Cd3 O7 Cd2 102.1(3) . .
C14 O5 Cd2 118.0(7) . 2_655
C21 O13 Cd2 90.2(7) . 2_645
Cd1 O18 H18A 110.0 . .
Cd1 O18 H18B 108.9 . .
H18A O18 H18B 109.5 . .
C15 O9 Cd3 117.6(7) . .
C15 O9 Cd2 93.5(7) . .
Cd3 O9 Cd2 101.5(3) . .
C21 O14 Cd2 94.0(7) . 2_645
C19 O11 Cd3 116.6(7) . 2_545
Cd1 O17 H17A 127.8 . .
Cd1 O17 H17B 127.7 . .
H17A O17 H17B 104.5 . .
C8 O4 Cd3 87.4(7) . 2
C10 O8 Cd3 87.9(9) . .
C8 O3 Cd3 94.0(7) . 2
Cd1 O19 H19A 110.7 . .
Cd1 O19 H19B 110.5 . .
H19A O19 H19B 103.2 . .
C15 O10 Cd2 92.4(7) . .
C28 O16 Cd1 92.4(7) . .
C28 O15 Cd1 91.6(7) . .
C19 O12 Cd1 106.3(8) . 4_565
N1 N2 C11 109.6(8) . .
N1 N2 C9 118.4(9) . .
C11 N2 C9 131.7(9) . .
C13 N1 N2 105.6(8) . .
C13 N1 Cd2 114.1(7) . 2_655
N2 N1 Cd2 139.4(7) . 2_655
N4 N3 C16 111.5(8) . .
N4 N3 C20 119.1(8) . .
C16 N3 C20 129.0(9) . .
C18 N4 N3 104.2(8) . .
C18 N4 Cd3 113.2(7) . 2_545
N3 N4 Cd3 141.1(6) . 2_545
O6 C14 O5 122.7(12) . .
O6 C14 C13 121.5(12) . .
O5 C14 C13 115.6(10) . .
N1 C13 C12 110.8(9) . .
N1 C13 C14 119.2(10) . .
C12 C13 C14 129.9(10) . .
C17 C16 N3 107.6(10) . .
C17 C16 C15 128.6(11) . .
N3 C16 C15 123.8(10) . .
O13 C21 O14 120.6(11) . .
O13 C21 C22 119.5(11) . .
O14 C21 C22 119.9(10) . .
O13 C21 Cd2 62.5(6) . 2_645
O14 C21 Cd2 58.1(6) . 2_645
C22 C21 Cd2 178.0(9) . 2_645
C24 C23 C22 120.9(10) . .
C24 C23 H23 119.6 . .
C22 C23 H23 119.6 . .
C27 C22 C23 119.3(11) . .
C27 C22 C21 119.8(10) . .
C23 C22 C21 120.9(10) . .
C26 C27 C22 119.4(11) . .
C26 C27 H27 120.3 . .
C22 C27 H27 120.3 . .
C6 C5 C4 121.8(11) . .
C6 C5 H5 119.1 . .
C4 C5 H5 119.1 . .
O16 C28 O15 119.2(11) . .
O16 C28 C26 121.6(11) . .
O15 C28 C26 119.1(11) . .
O16 C28 Cd1 60.8(6) . .
O15 C28 Cd1 58.7(6) . .
C26 C28 Cd1 170.0(9) . .
O8 C10 O7 122.5(12) . .
O8 C10 C11 119.2(12) . .
O7 C10 C11 118.4(10) . .
O4 C8 O3 123.7(10) . .
O4 C8 C6 118.2(11) . .
O3 C8 C6 117.6(10) . .
O4 C8 Cd3 65.4(6) . 2
O3 C8 Cd3 58.3(6) . 2
C6 C8 Cd3 171.6(8) . 2
C11 C12 C13 104.5(9) . .
C11 C12 H12 127.7 . .
C13 C12 H12 127.7 . .
C27 C26 C25 120.1(11) . .
C27 C26 C28 119.5(10) . .
C25 C26 C28 120.4(10) . .
C5 C4 C3 116.1(10) . .
C5 C4 C9 125.6(10) . .
C3 C4 C9 118.2(10) . .
N3 C20 C24 112.5(8) . .
N3 C20 H20A 109.1 . .
C24 C20 H20A 109.1 . .
N3 C20 H20B 109.1 . .
C24 C20 H20B 109.1 . .
H20A C20 H20B 107.8 . .
O2 C1 O1 126.0(10) . .
O2 C1 C2 122.1(10) . .
O1 C1 C2 111.1(10) . .
C2 C3 C4 123.5(10) . .
C2 C3 H3 118.2 . .
C4 C3 H3 118.2 . .
O9 C15 O10 120.4(10) . .
O9 C15 C16 121.4(10) . .
O10 C15 C16 118.2(10) . .
C24 C25 C26 119.7(11) . .
C24 C25 H25 120.1 . .
C26 C25 H25 120.1 . .
C12 C11 N2 109.4(10) . .
C12 C11 C10 127.5(11) . .
N2 C11 C10 122.9(10) . .
C16 C17 C18 105.0(11) . .
C16 C17 H17 127.5 . .
C18 C17 H17 127.5 . .
C7 C6 C5 120.1(10) . .
C7 C6 C8 120.5(10) . .
C5 C6 C8 119.3(10) . .
N2 C9 C4 110.6(9) . .
N2 C9 H9A 109.5 . .
C4 C9 H9A 109.5 . .
N2 C9 H9B 109.5 . .
C4 C9 H9B 109.5 . .
H9A C9 H9B 108.1 . .
C23 C24 C25 120.5(10) . .
C23 C24 C20 123.0(10) . .
C25 C24 C20 116.4(10) . .
C6 C7 C2 121.8(10) . .
C6 C7 H7 119.1 . .
C2 C7 H7 119.1 . .
O12 C19 O11 122.4(11) . .
O12 C19 C18 118.3(12) . .
O11 C19 C18 119.3(11) . .
N4 C18 C17 111.7(9) . .
N4 C18 C19 117.7(10) . .
C17 C18 C19 130.6(11) . .
C7 C2 C3 116.7(9) . .
C7 C2 C1 121.7(10) . .
C3 C2 C1 121.5(10) . .
loop_
_geom_bond_atom_site_label_1
_geom_bond_atom_site_label_2
_geom_bond_distance
_geom_bond_site_symmetry_2
Cd1 O18 2.171(10) .
Cd1 O12 2.223(9) 4_666
Cd1 O19 2.290(13) .
Cd1 O17 2.321(13) .
Cd1 O15 2.336(9) .
Cd1 O16 2.388(9) .
Cd2 O5 2.299(8) 2_645
Cd2 O14 2.324(8) 2_655
Cd2 N1 2.326(9) 2_645
Cd2 O9 2.409(8) .
Cd2 O13 2.421(8) 2_655
Cd2 O7 2.426(9) .
Cd2 O10 2.427(9) .
Cd3 O11 2.295(9) 2
Cd3 O3 2.308(9) 2_545
Cd3 O7 2.336(8) .
Cd3 N4 2.361(9) 2
Cd3 O9 2.374(8) .
Cd3 O4 2.463(8) 2_545
Cd3 O8 2.561(12) .
O7 C10 1.281(15) .
O5 C14 1.319(15) .
O5 Cd2 2.299(8) 2_655
O13 C21 1.254(15) .
O13 Cd2 2.421(8) 2_645
O18 H18A 0.8497 .
O18 H18B 0.8503 .
O9 C15 1.244(14) .
O14 C21 1.278(15) .
O14 Cd2 2.324(8) 2_645
O11 C19 1.285(16) .
O11 Cd3 2.295(9) 2_545
O17 H17A 0.8539 .
O17 H17B 0.8537 .
O4 C8 1.239(14) .
O4 Cd3 2.463(8) 2
O8 C10 1.190(16) .
O1 C1 1.285(9) .
O3 C8 1.262(16) .
O3 Cd3 2.308(9) 2
O19 H19A 0.8745 .
O19 H19B 0.8743 .
O10 C15 1.253(15) .
O6 C14 1.223(16) .
O16 C28 1.231(16) .
O15 C28 1.354(16) .
O2 C1 1.234(16) .
O12 C19 1.250(16) .
O12 Cd1 2.223(9) 4_565
N2 N1 1.358(12) .
N2 C11 1.366(14) .
N2 C9 1.451(14) .
N1 C13 1.352(14) .
N1 Cd2 2.326(9) 2_655
N3 N4 1.351(12) .
N3 C16 1.352(14) .
N3 C20 1.471(13) .
N4 C18 1.334(14) .
N4 Cd3 2.361(9) 2_545
C14 C13 1.482(15) .
C13 C12 1.406(16) .
C16 C17 1.350(16) .
C16 C15 1.470(14) .
C21 C22 1.461(17) .
C21 Cd2 2.730(12) 2_645
C23 C24 1.367(16) .
C23 C22 1.422(16) .
C23 H23 0.9300 .
C22 C27 1.407(17) .
C27 C26 1.405(17) .
C27 H27 0.9300 .
C5 C6 1.390(16) .
C5 C4 1.411(16) .
C5 H5 0.9300 .
C28 C26 1.497(16) .
C10 C11 1.526(16) .
C8 C6 1.520(14) .
C8 Cd3 2.706(10) 2
C12 C11 1.351(17) .
C12 H12 0.9300 .
C26 C25 1.415(16) .
C4 C3 1.413(16) .
C4 C9 1.506(15) .
C20 C24 1.516(14) .
C20 H20A 0.9700 .
C20 H20B 0.9700 .
C1 C2 1.480(9) .
C3 C2 1.412(16) .
C3 H3 0.9300 .
C25 C24 1.397(15) .
C25 H25 0.9300 .
C17 C18 1.391(17) .
C17 H17 0.9300 .
C6 C7 1.380(16) .
C9 H9A 0.9700 .
C9 H9B 0.9700 .
C7 C2 1.404(16) .
C7 H7 0.9300 .
C19 C18 1.490(15) .
