#------------------------------------------------------------------------------
#$Date: 2019-11-17 09:56:39 +0200 (Sun, 17 Nov 2019) $
#$Revision: 229221 $
#$URL: file:///home/coder/svn-repositories/cod/cif/7/04/63/7046335.cif $
#------------------------------------------------------------------------------
#
# This file is available in the Crystallography Open Database (COD),
# http://www.crystallography.net/
#
# All data on this site have been placed in the public domain by the
# contributors.
#
data_7046335
loop_
_publ_author_name
'Cui, Zheng'
'Zhou, Lei'
'Qin, Bowen'
'Zhou, Baolei'
'Zhang, Xiaoying'
'Li, Wenliang'
'Zhang, Jingping'
_publ_section_title
;
 Selective chiral symmetry breaking and luminescence sensing of a Zn(ii)
 metal-organic framework.
;
_journal_issue                   24
_journal_name_full
'Dalton transactions (Cambridge, England : 2003)'
_journal_page_first              7934
_journal_page_last               7940
_journal_paper_doi               10.1039/c8dt00939b
_journal_volume                  47
_journal_year                    2018
_chemical_formula_moiety
'[(CH3)2NH2]10[Zn3(Zn3O)2(C27H12N6O12)4] 20(CH3)2NCHO 35H2O'
_chemical_formula_sum            'C108 H48 N24 O50 Zn9'
_chemical_formula_weight         3070.21
_space_group_crystal_system      cubic
_space_group_IT_number           210
_space_group_name_Hall           'F 4d 2 3'
_space_group_name_H-M_alt        'F 41 3 2'
_symmetry_space_group_name_Hall  'F 4d 2 3'
_symmetry_space_group_name_H-M   'F 41 3 2'
_atom_sites_solution_hydrogens   geom
_atom_sites_solution_primary     direct
_atom_sites_solution_secondary   difmap
_audit_creation_method           SHELXL-2014/7
_audit_update_record
;
2018-05-04 deposited with the CCDC.
2018-05-11 downloaded from the CCDC.
;
_cell_angle_alpha                90
_cell_angle_beta                 90
_cell_angle_gamma                90
_cell_formula_units_Z            16
_cell_length_a                   45.1207(6)
_cell_length_b                   45.1207(6)
_cell_length_c                   45.1207(6)
_cell_measurement_reflns_used    9900
_cell_measurement_temperature    173(2)
_cell_measurement_theta_max      23.0135
_cell_measurement_theta_min      2.6705
_cell_volume                     91860(2)
_computing_cell_refinement       SMART
_computing_data_collection       'SMART (Bruker, 1997)'
_computing_data_reduction        'SAINT (Bruker, 1999)'
_computing_molecular_graphics    'Diamond (Brandenburg and Putz, 2008)'
_computing_publication_material  'SHELXL-2014/7 (Sheldrick, 2014)'
_computing_structure_refinement  'SHELXL-2014/7 (Sheldrick, 2014)'
_computing_structure_solution    'SHELXS-2014/7 (Sheldrick, 2014)'
_diffrn_ambient_temperature      173(2)
_diffrn_measured_fraction_theta_full 0.990
_diffrn_measured_fraction_theta_max 0.990
_diffrn_measurement_device_type  'Bruker APEX CCD area-detector'
_diffrn_measurement_method       '\w scan'
_diffrn_radiation_type           MoK\a
_diffrn_radiation_wavelength     0.71073
_diffrn_reflns_av_R_equivalents  0.0451
_diffrn_reflns_av_unetI/netI     0.0555
_diffrn_reflns_Laue_measured_fraction_full 0.990
_diffrn_reflns_Laue_measured_fraction_max 0.990
_diffrn_reflns_limit_h_max       53
_diffrn_reflns_limit_h_min       -53
_diffrn_reflns_limit_k_max       53
_diffrn_reflns_limit_k_min       -53
_diffrn_reflns_limit_l_max       53
_diffrn_reflns_limit_l_min       -53
_diffrn_reflns_number            40964
_diffrn_reflns_point_group_measured_fraction_full 0.994
_diffrn_reflns_point_group_measured_fraction_max 0.994
_diffrn_reflns_theta_full        25.021
_diffrn_reflns_theta_max         25.021
_diffrn_reflns_theta_min         2.211
_diffrn_source                   'fine-focus sealed tube'
_exptl_absorpt_coefficient_mu    0.977
_exptl_absorpt_correction_T_max  0.768
_exptl_absorpt_correction_T_min  0.753
_exptl_absorpt_correction_type   multi-scan
_exptl_crystal_colour            Colourless
_exptl_crystal_density_diffrn    0.888
_exptl_crystal_density_method    'not measured'
_exptl_crystal_description       Octahedral
_exptl_crystal_F_000             24544.0
_exptl_crystal_preparation       Luminescent
_exptl_crystal_recrystallization_method Solvothermal
_exptl_crystal_size_max          0.30
_exptl_crystal_size_mid          0.29
_exptl_crystal_size_min          0.27
_refine_diff_density_max         0.461
_refine_diff_density_min         -0.662
_refine_diff_density_rms         0.069
_refine_ls_abs_structure_details
;
 Refined as an inversion twin.
;
_refine_ls_abs_structure_Flack   0.17(4)
_refine_ls_extinction_method     none
_refine_ls_goodness_of_fit_ref   0.972
_refine_ls_hydrogen_treatment    constr
_refine_ls_matrix_type           full
_refine_ls_number_parameters     265
_refine_ls_number_reflns         6745
_refine_ls_number_restraints     334
_refine_ls_restrained_S_all      0.964
_refine_ls_R_factor_all          0.1323
_refine_ls_R_factor_gt           0.0754
_refine_ls_shift/su_max          0.001
_refine_ls_shift/su_mean         0.000
_refine_ls_structure_factor_coef Fsqd
_refine_ls_weighting_details
'w=1/[\s^2^(Fo^2^)+(0.2000P)^2^] where P=(Fo^2^+2Fc^2^)/3'
_refine_ls_weighting_scheme      calc
_refine_ls_wR_factor_gt          0.2305
_refine_ls_wR_factor_ref         0.2974
_reflns_Friedel_coverage         0.736
_reflns_Friedel_fraction_full    0.999
_reflns_Friedel_fraction_max     0.999
_reflns_number_gt                3302
_reflns_number_total             6782
_reflns_threshold_expression     'I > 2\s(I)'
_cod_data_source_file            c8dt00939b2.cif
_cod_data_source_block           1M
_cod_depositor_comments
'Adding full bibliography for 7046334--7046335.cif.'
_cod_original_cell_volume        91860(4)
_cod_database_code               7046335
_shelx_shelxl_version_number     2014/7
_shelx_space_group_comment
;
The symmetry employed for this shelxl refinement is uniquely defined
by the following loop, which should always be used as a source of
symmetry information in preference to the above space-group names.
They are only intended as comments.
;
_shelx_estimated_absorpt_t_min   0.753
_shelx_estimated_absorpt_t_max   0.768
_shelx_res_file
;

    f4132_sq.res created by SHELXL-2014/7


TITL F4132 in F4(1)32
CELL  0.71073  45.1207  45.1207  45.1207   90.000   90.000   90.000
ZERR  1148.00   0.0006   0.0006   0.0006    0.000    0.000    0.000
LATT -4
SYMM  - X, 1/2 - Y, 1/2 + Z
SYMM  1/2 - X, 1/2 + Y, - Z
SYMM  1/2 + X, - Y, 1/2 - Z
SYMM    Z,   X,   Y
SYMM  1/2 + Z, - X, 1/2 - Y
SYMM  - Z, 1/2 - X, 1/2 + Y
SYMM  1/2 - Z, 1/2 + X, - Y
SYMM    Y,   Z,   X
SYMM  1/2 - Y, 1/2 + Z, - X
SYMM  1/2 + Y, - Z, 1/2 - X
SYMM  - Y, 1/2 - Z, 1/2 + X
SYMM  3/4 + Y, 1/4 + X, 3/4 - Z
SYMM  1/4 - Y, 1/4 - X, 1/4 - Z
SYMM  1/4 + Y, 3/4 - X, 3/4 + Z
SYMM  3/4 - Y, 3/4 + X, 1/4 + Z
SYMM  3/4 + X, 1/4 + Z, 3/4 - Y
SYMM  3/4 - X, 3/4 + Z, 1/4 + Y
SYMM  1/4 - X, 1/4 - Z, 1/4 - Y
SYMM  1/4 + X, 3/4 - Z, 3/4 + Y
SYMM  3/4 + Z, 1/4 + Y, 3/4 - X
SYMM  1/4 + Z, 3/4 - Y, 3/4 + X
SYMM  3/4 - Z, 3/4 + Y, 1/4 + X
SYMM  1/4 - Z, 1/4 - Y, 1/4 - X
SFAC C  H  N  O  Zn
UNIT 1148 1148 1148 1148 1148
MERG 2
L.S. 6
ACTA
BOND
FMAP 2
PLAN 5
TWIN
SIMU
DELU
EQIV $6   -z+1, x-1, -y
EQIV $7   z+1/2, x-1/2, y
SADI 0.10 C8 O1 C8 O2 C9 O3 C9 O4 C17 O5 C17 O6 C18 O7 C18 O8
SADI 0.02 C4 C8 C6 C9 C13 C17 C15 C18
SADI 0.04 C1 N1 C1 N1_$6 C1 N2 C2 N2 C10 N3 C10 N3_$7 C10 N4 C11 N4
TEMP  -100.15
ABIN
WGHT    0.200000
BASF   0.17328
FVAR       0.02187
MOLE 1
ZN1   5    1.000000    0.000000    0.232738    10.50000    0.18909    0.16965 =
         0.06889    0.00000    0.00000   -0.01579
ZN2   5    0.838982    0.102823    0.126202    11.00000    0.14463    0.16430 =
         0.15629   -0.02709    0.02799    0.04703
C1    1    0.906711   -0.058018    0.093874    11.00000    0.10534    0.15301 =
         0.11241   -0.03199    0.00283    0.01384
AFIX  66
C2    1    0.901959   -0.014113    0.127542    11.00000    0.12876    0.13688 =
         0.13316   -0.03449   -0.00021   -0.00274
C3    1    0.890009    0.014280    0.127326    11.00000    0.10748    0.13528 =
         0.11748   -0.02412    0.01829    0.02275
AFIX  43
H3    2    0.875864    0.019637    0.112679    11.00000   -1.20000
AFIX  65
C4    1    0.898755    0.034835    0.148539    11.00000    0.12524    0.13107 =
         0.12448   -0.02851    0.01951    0.02252
C5    1    0.919451    0.026996    0.169969    11.00000    0.15320    0.14087 =
         0.11149   -0.00655    0.01416   -0.01030
AFIX  43
H5    2    0.925429    0.041045    0.184468    11.00000   -1.20000
AFIX  65
C6    1    0.931401   -0.001397    0.170186    11.00000    0.18601    0.14938 =
         0.07683   -0.00092    0.00115    0.00190
C7    1    0.922656   -0.021952    0.148972    11.00000    0.14153    0.13743 =
         0.10413   -0.00772    0.01149   -0.00734
AFIX  43
H7    2    0.930823   -0.041357    0.149120    11.00000   -1.20000
AFIX   0
C8    1    0.886109    0.064304    0.147747    11.00000    0.15479    0.13633 =
         0.12614   -0.00937    0.00991    0.01562
C9    1    0.953983   -0.011118    0.191822    11.00000    0.15263    0.16694 =
         0.08296   -0.01030    0.01851    0.00149
C10   1    0.678740    0.145248    0.181249    11.00000    0.13054    0.11491 =
         0.14421    0.02769    0.03176    0.02418
AFIX  66
C11   1    0.713186    0.103653    0.190688    11.00000    0.15931    0.11305 =
         0.13066    0.03402    0.03045    0.03432
C12   1    0.712712    0.076738    0.205666    11.00000    0.17325    0.13427 =
         0.17122    0.05288    0.03342    0.04549
AFIX  43
H12   2    0.696568    0.072021    0.218332    11.00000   -1.20000
AFIX  65
C13   1    0.735859    0.056723    0.202112    11.00000    0.16979    0.12120 =
         0.17372    0.04058    0.01968    0.05054
C14   1    0.759481    0.063623    0.183581    11.00000    0.15985    0.10704 =
         0.16456    0.00473    0.00140    0.05551
AFIX  43
H14   2    0.775301    0.049944    0.181152    11.00000   -1.20000
AFIX  65
C15   1    0.759955    0.090539    0.168602    11.00000    0.13827    0.10003 =
         0.14698   -0.02188    0.02070    0.02761
C16   1    0.736808    0.110554    0.172156    11.00000    0.14165    0.10986 =
         0.13110    0.01472    0.01826    0.04473
AFIX  43
H16   2    0.737132    0.128950    0.161919    11.00000   -1.20000
AFIX   0
C17   1    0.736655    0.028664    0.219385    11.00000    0.18203    0.17581 =
         0.26847    0.09417    0.04287    0.08514
C18   1    0.784757    0.099426    0.150026    11.00000    0.15075    0.13612 =
         0.12541   -0.02241    0.02273    0.06044
N1    3    0.931137   -0.068490    0.106447    11.00000    0.12557    0.15051 =
         0.09325   -0.02596   -0.00358    0.01527
N2    3    0.893851   -0.033519    0.104649    11.00000    0.12433    0.14266 =
         0.13175   -0.03942   -0.01747    0.01977
AFIX  43
H2    2    0.877210   -0.028702    0.095690    11.00000   -1.20000
AFIX   0
N3    3    0.656029    0.158354    0.194919    11.00000    0.11014    0.11847 =
         0.16551    0.05213    0.01357    0.02035
N4    3    0.690892    0.121195    0.195152    11.00000    0.15718    0.15160 =
         0.15606    0.06642    0.05329    0.04579
AFIX  43
H4    2    0.681026    0.116405    0.211279    11.00000   -1.20000
AFIX   0
O1    4    0.867989    0.069009    0.127251    11.00000    0.14924    0.16784 =
         0.14937   -0.04417    0.00653    0.06949
O2    4    0.896161    0.083841    0.166940    11.00000    0.16122    0.13403 =
         0.13975   -0.03466    0.02095    0.02074
O3    4    0.965800    0.010837    0.207859    11.00000    0.19355    0.19045 =
         0.09511   -0.00907   -0.02202   -0.01473
O4    4    0.962524   -0.035590    0.193718    11.00000    0.21286    0.16462 =
         0.09928    0.00400   -0.01685    0.00502
O5    4    0.713840    0.023874    0.236347    11.00000    0.17885    0.18451 =
         0.25660    0.09086    0.02990    0.03942
O6    4    0.753360    0.010257    0.214668    11.00000    0.28039    0.11201 =
         0.29735    0.07281    0.10211    0.08085
O7    4    0.808162    0.082708    0.151600    11.00000    0.12932    0.12990 =
         0.16842   -0.00829    0.02297    0.05554
O8    4    0.785405    0.123115    0.134681    11.00000    0.14306    0.15863 =
         0.17545    0.01698    0.05688    0.05317
O9    4    0.861206    0.138794    0.138794    10.33333    0.14468    0.14468 =
         0.14468   -0.03092    0.03092    0.03092
HKLF    4

REM  F4132 in F4(1)32
REM R1 =  0.0754 for    3302 Fo > 4sig(Fo)  and  0.1323 for all    6745 data
REM    265 parameters refined using    334 restraints

END

WGHT      0.1834      0.0000

REM Highest difference peak  0.461,  deepest hole -0.662,  1-sigma level  0.069
Q1    1   0.8493  0.1162  0.1199  11.00000  0.05    0.32
Q2    1   0.8983  0.0216  0.1208  11.00000  0.05    0.27
Q3    1   0.8626  0.0113  0.1283  11.00000  0.05    0.23
Q4    1   0.7294  0.1076  0.2184  11.00000  0.05    0.22
Q5    1   0.7020  0.1116  0.2282  11.00000  0.05    0.22
;
_shelx_res_checksum              86306
_shelx_fab_file
;
    3    3    3     55.34     64.27
    2    2    4   2582.52    -24.93
    0    4    4  -3801.25     34.35
    1    3    5   -584.97    573.08
    3    3    5   -212.19    205.14
    1    5    5     84.95   -115.28
    3    5    5    -73.78   -111.02
    5    5    5   -446.90    362.80
    0    2    6   -390.09    -14.46
    2    4    6   -506.45     11.82
    0    4    6    -60.36     15.08
    0    6    6   1778.06   -757.09
    2    6    6     -1.67    435.30
    4    6    6   -204.48   -119.61
    6    6    6     79.90   -102.64
    1    1    7   -163.48   -212.43
    1    3    7   -872.66   -936.79
    3    3    7    252.19    210.32
    3    5    7    365.40     77.11
    1    5    7     11.49   -183.79
    5    5    7     10.28     -9.62
    1    7    7   -226.98    221.33
    3    7    7    143.27    134.11
    5    7    7   -128.85    170.85
    7    7    7   -224.01   -156.45
    0    2    8   -136.29    -16.26
    2    2    8    250.90   -105.89
    0    4    8     88.49     41.33
    4    6    8    319.06   -234.83
    2    6    8   -111.24    306.27
    0    6    8    265.19     -1.63
    0    8    8   -295.31     30.07
    4    8    8    466.01    -73.84
    6    8    8     44.68   -607.43
    1    1    9     -3.82     -1.80
    1    3    9    206.88   -225.14
    3    3    9   -127.62     99.77
    3    5    9   -251.20    225.76
    1    5    9    -35.04   -191.03
    5    5    9     -2.39     -3.90
    5    7    9   -157.24    -15.03
    3    7    9     -4.04   -168.68
    1    7    9    223.80   -131.22
    7    7    9    -30.34     58.60
    1    9    9    -41.88     43.62
    3    9    9     45.36     20.41
    5    9    9    159.04   -154.21
    7    9    9    125.07     92.59
    9    9    9    -79.45     73.21
    0    2   10   -128.55    226.09
    2    2   10   -104.01   -194.47
    2    4   10     88.78     48.55
    0    4   10     17.16     34.36
    4    4   10    -22.56     27.09
    4    6   10    208.04    -70.02
    2    6   10   -199.62    134.63
    0    6   10    444.23    -31.08
    6    8   10    161.53    330.35
    4    8   10    166.67    294.44
    2    8   10    295.72    -30.10
    0    8   10     57.71    -62.60
    8    8   10     41.96    -13.05
    0   10   10   -216.96     78.80
    2   10   10      7.25     67.93
    4   10   10     25.88     43.29
    6   10   10    -23.99    -38.83
    8   10   10     -0.20    -33.08
   10   10   10    -10.07   -539.28
    1    1   11    204.02    206.69
    1    3   11    -70.59    -56.44
    3    3   11    -82.29    -53.29
    3    5   11   -290.43   -312.65
    1    5   11    -33.97    184.09
    5    5   11     15.77    -11.54
    5    7   11    -27.65     92.76
    3    7   11    246.01   -259.10
    1    7   11    195.01    261.81
    7    7   11    -40.94    -57.34
    7    9   11    -10.77    251.44
    5    9   11    103.95    -97.76
    3    9   11     38.18     32.92
    1    9   11    249.69    -84.08
    9    9   11    185.78    176.91
    1   11   11     10.84    -15.77
    3   11   11    124.10    114.43
    5   11   11    105.16   -108.24
    7   11   11      4.44    -40.76
    9   11   11    117.74   -131.97
   11   11   11    -42.30    -61.54
    0    2   12   -332.47      2.19
    2    2   12   -370.33     44.71
    2    4   12   -175.99    213.79
    0    4   12    151.27     78.11
    4    4   12     -2.24    107.07
    4    6   12      3.46    -34.27
    2    6   12   -112.56    130.66
    0    6   12    -94.24    -10.09
    6    6   12    285.90    -99.96
    6    8   12    142.71    -77.51
    4    8   12    -15.00   -168.93
    2    8   12     64.80     70.39
    0    8   12    -91.99     12.22
    8    8   12     88.53      3.84
    8   10   12    132.64    -43.63
    6   10   12    154.25   -204.61
    4   10   12    -98.43    280.49
    2   10   12   -230.38    -86.14
    0   10   12     47.34     -0.18
   10   10   12    100.55    -18.81
    0   12   12    274.49    -20.93
    2   12   12     23.14    145.89
    4   12   12    -77.52     16.15
    6   12   12    -34.10    -51.16
    8   12   12     98.36    -10.20
   10   12   12     -3.80    128.56
   12   12   12    -19.96    -22.79
    1    1   13      2.92     18.17
    1    3   13    112.12    -44.14
    3    3   13     43.11    -57.26
    3    5   13     12.22     52.12
    1    5   13    -52.70   -177.59
    5    5   13    -69.32     71.13
    5    7   13    -64.16     32.42
    3    7   13    100.46    -74.53
    1    7   13    174.57   -158.96
    7    7   13    119.90   -117.66
    7    9   13   -122.38    -65.05
    5    9   13    160.18    218.66
    3    9   13    -47.35    -47.62
    1    9   13    -57.45     28.12
    9    9   13   -117.86    121.09
    9   11   13    112.06    -23.31
    7   11   13    -26.31    -76.39
    5   11   13     84.01     16.70
    3   11   13    -58.03     -5.50
    1   11   13     14.28     -6.91
   11   11   13     67.19    -50.91
    1   13   13      9.46    -11.50
    3   13   13     17.16     12.94
    5   13   13     50.57    -54.65
    7   13   13     49.70     36.19
    9   13   13    -19.44     37.96
   11   13   13    -79.62    -88.51
   13   13   13     58.70    -49.62
    0    2   14    174.21     34.59
    2    2   14    -26.62    -62.40
    2    4   14    -29.87    -51.13
    0    4   14    285.26     30.76
    4    4   14    -29.33    -25.20
    4    6   14    117.50     74.80
    2    6   14    -77.87     76.86
    0    6   14     14.88    -87.39
    6    6   14     35.76    175.73
    6    8   14    -35.38    -35.39
    4    8   14    -86.93    -98.93
    2    8   14    203.61    -84.06
    0    8   14    118.55    -11.58
    8    8   14     -5.83    -62.73
    8   10   14     -7.81     90.00
    6   10   14    112.48    141.61
    4   10   14    -67.99    181.85
    2   10   14    -16.04    -42.75
    0   10   14    -93.52    -11.47
   10   10   14      8.66    -82.00
   10   12   14      7.43    -32.76
    8   12   14   -148.06    -23.42
    6   12   14     11.37    -74.47
    4   12   14   -115.37    -17.35
    2   12   14    167.52    -20.81
    0   12   14    -18.53     14.27
   12   12   14      2.19     35.96
    0   14   14    179.56      2.56
    2   14   14      5.58   -183.72
    4   14   14    -22.44     -9.20
    6   14   14      0.06     -8.86
    8   14   14     34.82      7.91
   10   14   14    -14.35    -25.32
   12   14   14     70.44    -18.80
   14   14   14    -10.45     90.18
    1    1   15      4.67    -18.75
    1    3   15     46.01    -33.35
    3    3   15    -69.75    -75.60
    3    5   15      0.40    -53.50
    1    5   15     40.10     -0.57
    5    5   15    -49.23    -47.10
    5    7   15   -199.55   -220.55
    3    7   15     12.20      2.08
    1    7   15     11.78    -51.38
    7    7   15    122.61    165.39
    7    9   15     88.29     92.03
    5    9   15     -5.14    -25.98
    3    9   15    -67.27    -50.39
    1    9   15     22.08     17.14
    9    9   15      7.65     -7.18
    9   11   15     56.34     12.03
    7   11   15    103.69    -47.62
    5   11   15    153.49     72.91
    3   11   15    -37.48      4.50
    1   11   15     30.09    135.39
   11   11   15    -73.61    -75.20
   11   13   15     28.61    116.30
    9   13   15   -145.28     -3.40
    7   13   15     42.60    -51.65
    5   13   15    -53.97     39.07
    3   13   15    -78.88    -36.56
    1   13   15   -131.99     52.54
   13   13   15     20.73     26.96
    1   15   15     31.50    -26.16
    3   15   15    -71.00    -79.82
    5   15   15      7.28     -5.62
    7   15   15      9.70      1.90
    9   15   15    -12.77     18.92
   11   15   15     -0.20    -25.03
   13   15   15    -52.84     36.02
   15   15   15    -52.59    -51.53
    0    0   16     29.81    -24.80
    0    2   16   -149.22    -11.59
    2    2   16    467.98      3.30
    2    4   16    -55.26    175.37
    0    4   16    -97.72    -36.62
    4    4   16   -162.46    -43.13
    4    6   16     82.74    -58.80
    2    6   16    166.98   -105.85
    0    6   16    -51.28     -6.86
    6    6   16    163.57     -9.17
    6    8   16     51.30    -40.77
    4    8   16     42.50   -122.90
    2    8   16    138.80    114.70
    0    8   16     12.34      9.56
    8    8   16    158.43     -8.25
    8   10   16    148.50   -134.74
    6   10   16     45.80     82.84
    4   10   16    -34.64    -56.50
    2   10   16   -119.76   -157.59
    0   10   16    149.98     -4.69
   10   10   16   -138.15    -12.59
   10   12   16     15.37    -20.56
    8   12   16      6.70    -14.59
    6   12   16     89.94     -5.03
    4   12   16     -8.94     29.39
    2   12   16    -46.81     59.46
    0   12   16    108.45      5.73
   12   12   16     29.86     10.88
   12   14   16    -81.06     38.15
   10   14   16     30.05    -22.54
    8   14   16    -53.13     15.97
    6   14   16     50.69     96.96
    4   14   16   -163.75    -11.30
    2   14   16    180.99    -71.73
    0   14   16   -105.93     10.15
   14   14   16   -122.04      1.95
    0   16   16      1.10     -3.93
    2   16   16     -6.96     77.68
    4   16   16     41.38      2.14
    6   16   16     -5.67     31.25
    8   16   16    -44.69      2.61
   10   16   16    -16.89    -78.69
   12   16   16    -49.75      1.49
   14   16   16    -21.03    -36.39
   16   16   16     -5.98    -35.09
    1    1   17     93.35   -100.38
    1    3   17   -115.65    114.12
    3    3   17   -123.37    129.11
    3    5   17    178.09   -214.49
    1    5   17     77.49    101.83
    5    5   17    -55.86     63.83
    5    7   17   -101.36     32.72
    3    7   17    -50.44    -48.67
    1    7   17     96.96      9.14
    7    7   17     55.94    -77.15
    7    9   17    -63.56      9.25
    5    9   17    -43.51   -132.53
    3    9   17    125.12     24.52
    1    9   17     11.18   -143.16
    9    9   17     87.71    -98.50
    9   11   17     75.60     30.83
    7   11   17     -9.92     36.68
    5   11   17    -24.07     69.71
    3   11   17    -25.74    102.21
    1   11   17    -65.77     87.01
   11   11   17    -11.92     15.80
   11   13   17    -53.00    -37.48
    9   13   17    105.77     61.23
    7   13   17      3.33     76.18
    5   13   17    -85.87    -64.27
    3   13   17     74.55    -22.47
    1   13   17    -40.60   -131.55
   13   13   17    -18.91      3.88
   13   15   17     -0.54     36.32
   11   15   17   -122.11      6.89
    9   15   17    -43.80     66.65
    7   15   17     53.64    -72.50
    5   15   17     -8.94     49.02
    3   15   17    -27.06     34.69
    1   15   17     -5.01    -56.04
   15   15   17      9.06    -20.05
    1   17   17     20.14    -12.54
    3   17   17   -115.56   -112.88
    5   17   17    -86.52     81.33
    7   17   17     24.53      9.23
    9   17   17    -27.90     35.39
   11   17   17     13.87      7.69
   13   17   17     30.92    -28.04
   15   17   17     35.77      3.21
   17   17   17    -82.09    121.75
    0    2   18      8.52     -2.60
    2    2   18      8.73     16.95
    2    4   18    -69.58     -5.59
    0    4   18    -54.98     11.51
    4    4   18     19.17    199.84
    4    6   18    137.49    -14.40
    2    6   18    -94.64     16.35
    0    6   18    -66.27    -21.92
    6    6   18     -1.34    -12.65
    6    8   18    -62.83     60.70
    4    8   18    -38.87     11.81
    2    8   18    115.60    -56.75
    0    8   18    -35.75     -8.92
    8    8   18      9.13     61.81
    8   10   18     66.48    -92.99
    6   10   18     58.98     15.25
    4   10   18     80.06     62.84
    2   10   18    -50.29    -20.16
    0   10   18     12.73     11.97
   10   10   18     54.70    -40.88
   10   12   18     33.06     23.35
    8   12   18     97.90    -71.59
    6   12   18    -63.54     49.30
    4   12   18     65.83    -14.10
    2   12   18   -164.19     -0.37
    0   12   18     22.65      7.65
   12   12   18    -17.88    -37.46
   12   14   18    -20.71     69.82
   10   14   18    -33.87    -15.70
    8   14   18     58.14    -28.90
    6   14   18      3.89     15.21
    4   14   18     26.00    -14.52
    2   14   18    -19.17    -38.74
    0   14   18     55.15     -4.32
   14   14   18     -6.94    -67.06
   14   16   18    -12.54     20.45
   12   16   18    -52.66    -27.75
   10   16   18    141.25     64.35
    8   16   18    -30.02    -41.09
    6   16   18    111.57    -26.20
    4   16   18     13.66     71.56
    2   16   18     43.11      7.70
    0   16   18    -46.45     -1.07
   16   16   18      0.46     52.71
    0   18   18    -20.60      3.02
    2   18   18     12.36     73.63
    4   18   18     61.91     -0.53
    6   18   18     -6.94     47.07
    8   18   18    -26.51      0.69
   10   18   18      1.08    -15.34
   12   18   18    -24.85      2.57
   14   18   18     -0.54     23.28
   16   18   18     24.27      2.42
   18   18   18     -4.78    -39.40
    1    1   19    -18.38    -34.34
    1    3   19      9.42    -76.58
    3    3   19      1.09     -0.57
    3    5   19   -103.33     18.53
    1    5   19    -56.66      4.06
    5    5   19      2.59     -4.15
    5    7   19    -35.97     49.99
    3    7   19     26.61     33.48
    1    7   19     -5.36    -53.19
    7    7   19     29.16     14.82
    7    9   19      3.59     85.90
    5    9   19     71.81     13.34
    3    9   19      8.83     19.78
    1    9   19    116.69     10.90
    9    9   19     16.61     25.10
    9   11   19     47.04     51.94
    7   11   19    -56.58     51.17
    5   11   19     94.32     91.61
    3   11   19    -19.21     90.48
    1   11   19    -87.93     26.76
   11   11   19    -58.42    -48.41
   11   13   19     16.55    -93.11
    9   13   19    -45.35      9.76
    7   13   19      7.27    -13.67
    5   13   19     16.19    -56.16
    3   13   19     40.97    -35.49
    1   13   19      7.15     26.61
   13   13   19     23.06      7.54
   13   15   19     36.03    -54.59
   11   15   19     70.09    -58.63
    9   15   19     -4.89    -39.92
    7   15   19     64.32     72.58
    5   15   19     47.32     -2.62
    3   15   19     -7.24     27.56
    1   15   19     29.55    -35.71
   15   15   19    -10.00     -9.55
   15   17   19      3.07     -8.75
   13   17   19    -12.78      1.62
   11   17   19    -13.48    -39.25
    9   17   19     15.89    -32.33
    7   17   19     30.87     -0.15
    5   17   19     17.98     71.22
    3   17   19    -37.33     18.44
    1   17   19     34.61     47.69
   17   17   19    -10.32     -4.50
    1   19   19    -36.94     46.32
    3   19   19    -34.51    -27.37
    5   19   19    -21.31     17.55
    7   19   19     21.32     26.12
    9   19   19      8.01     -2.49
   11   19   19    -52.27    -33.87
   13   19   19    -13.60     16.35
   15   19   19      0.76     -3.74
   17   19   19      9.82    -18.17
   19   19   19    -11.64     -3.41
    0    0   20     61.85      4.23
    0    2   20     -3.03      7.72
    2    2   20     43.52      5.81
    2    4   20     27.23     43.60
    0    4   20      7.18     -2.20
    4    4   20    -56.52      1.33
    4    6   20     92.56     -7.90
    2    6   20    -65.88    -75.14
    0    6   20    -12.75    -11.98
    6    6   20   -140.97      2.77
    6    8   20    -59.45    -17.55
    4    8   20     31.04   -103.33
    2    8   20     32.50     -6.49
    0    8   20     40.82    -15.81
    8    8   20     70.67    -12.54
    8   10   20      7.52     25.23
    6   10   20     38.38    163.97
    4   10   20    -64.05     14.22
    2   10   20     -9.39    -37.04
    0   10   20    -91.01     11.03
   10   10   20     86.60     11.90
   10   12   20     26.71      4.42
    8   12   20     51.23      7.69
    6   12   20     26.20     -0.65
    4   12   20     40.70    -42.14
    2   12   20    -77.06    -19.59
    0   12   20    -18.08     -0.16
   12   12   20    -30.47     -4.53
   12   14   20     62.17     -7.69
   10   14   20     23.26     -5.70
    8   14   20     49.83     67.09
    6   14   20    -40.37    -41.52
    4   14   20     21.92    -42.70
    2   14   20     55.75    -26.10
    0   14   20    -15.79     -5.90
   14   14   20    -26.64      1.91
   14   16   20     -5.65    -26.15
   12   16   20     24.54    -35.41
   10   16   20     73.42     15.00
    8   16   20     55.61     57.12
    6   16   20     19.62      0.64
    4   16   20     54.97    -22.14
    2   16   20     30.00    -37.29
    0   16   20    -36.13    -15.55
   16   16   20    -45.62     -4.51
   16   18   20    -12.80     11.14
   14   18   20     14.20    -27.05
   12   18   20     37.01     -5.78
   10   18   20     39.11      9.78
    8   18   20     10.02    -19.43
    6   18   20    -11.02     45.88
    4   18   20     32.89    -25.78
    2   18   20     16.77     74.18
    0   18   20     23.47     -7.17
   18   18   20     25.14      9.78
    0   20   20     13.01     -7.49
    2   20   20     13.01   -135.30
    4   20   20     -8.11     -0.25
    6   20   20      7.13    -15.69
    8   20   20     -3.81      3.12
   10   20   20     28.05     45.92
   12   20   20     -7.63     -3.13
   14   20   20      4.40     25.65
   16   20   20    -13.13     29.33
   18   20   20     -5.82     15.70
   20   20   20     12.47     14.48
    1    1   21    -80.45     72.61
    1    3   21     -0.98    -62.27
    3    3   21     15.08     -7.62
    3    5   21    -16.37     46.43
    1    5   21    -19.87     18.91
    5    5   21     42.28    -46.70
    5    7   21      7.34    -31.46
    3    7   21      9.06    -51.40
    1    7   21     48.01    -28.87
    7    7   21      4.29     15.36
    7    9   21     44.30    -28.00
    5    9   21     44.30    -50.29
    3    9   21    -23.33    144.77
    1    9   21    -50.10    -51.76
    9    9   21     -3.14    -11.17
    9   11   21      5.90    -48.24
    7   11   21     -2.69     50.78
    5   11   21     39.81     11.33
    3   11   21     43.12     26.27
    1   11   21    -13.50     81.29
   11   11   21     11.95    -14.02
   11   13   21    -17.79    -40.95
    9   13   21    -53.41     27.50
    7   13   21     -9.50    -48.83
    5   13   21     36.89    121.00
    3   13   21     14.52    -11.79
    1   13   21    -40.57    104.09
   13   13   21    -25.84     32.00
   13   15   21     11.12      1.55
   11   15   21    -41.65    -24.03
    9   15   21    -31.73    -12.62
    7   15   21     13.27     -2.94
    5   15   21     25.11     -3.67
    3   15   21     38.86    -17.33
    1   15   21     -5.87     17.69
   15   15   21     25.01    -20.31
   15   17   21      4.22    -56.92
   13   17   21     97.08   -121.16
   11   17   21    -15.64      5.79
    9   17   21    -63.87   -112.67
    7   17   21     47.81    -44.01
    5   17   21     72.58     28.52
    3   17   21      7.10    -21.98
    1   17   21     37.04     -5.01
   17   17   21      7.74    -18.37
   17   19   21      5.39     41.56
   15   19   21     50.30     -3.16
   13   19   21     47.73    -25.92
   11   19   21     17.82    -71.75
    9   19   21     53.85     10.98
    7   19   21     37.11      5.00
    5   19   21     17.60    -12.05
    3   19   21     -2.60     53.32
    1   19   21    -53.73     -0.12
   19   19   21     -6.23     -8.93
    1   21   21    -12.54      9.28
    3   21   21     51.25     51.56
    5   21   21     18.22    -17.52
    7   21   21     18.84     27.25
    9   21   21    -58.53     50.54
   11   21   21    -14.36    -10.41
   13   21   21    -18.13     21.33
   15   21   21     -0.25     20.14
   17   21   21    -20.58    -55.51
   19   21   21    -16.84      9.14
   21   21   21     15.63    -29.22
    0    2   22    -59.03     -9.18
    2    2   22      7.89     26.58
    2    4   22    -50.27    -21.87
    0    4   22   -138.40     -5.71
    4    4   22      0.60     88.38
    4    6   22    133.45      9.40
    2    6   22     37.31     17.70
    0    6   22    104.95    -17.50
    6    6   22      4.41    -50.02
    6    8   22    -15.91     21.13
    4    8   22      8.01     -2.00
    2    8   22     34.04    -37.94
    0    8   22     -4.43     -9.20
    8    8   22      8.69    -33.95
    8   10   22     -8.76      5.99
    6   10   22    -13.42      9.14
    4   10   22     11.03     48.29
    2   10   22    -20.77      7.39
    0   10   22     82.10     -6.88
   10   10   22     -3.13     37.05
   10   12   22      7.75     21.63
    8   12   22     59.00    -40.77
    6   12   22     34.95     24.18
    4   12   22    -16.53     11.23
    2   12   22    -41.48     32.71
    0   12   22    -13.28     -9.83
   12   12   22      4.21    -47.01
   12   14   22      2.78     30.17
   10   14   22     -6.65     29.32
    8   14   22     -0.85     78.59
    6   14   22    -16.70    -30.12
    4   14   22    -63.67    -30.34
    2   14   22     28.12    -91.65
    0   14   22     31.06     -6.13
   14   14   22     -3.88     57.05
   14   16   22    -27.77     17.59
   12   16   22    -10.57     12.05
   10   16   22    -87.49     14.92
    8   16   22    -29.81     -3.87
    6   16   22     15.87     12.74
    4   16   22     34.33     37.12
    2   16   22     47.86     29.49
    0   16   22    -67.34      5.20
   16   16   22      1.92    -16.71
   16   18   22     -9.44     44.11
   14   18   22      7.41     14.83
   12   18   22     31.92     -2.99
   10   18   22     28.48     29.40
    8   18   22    -37.69     81.21
    6   18   22    -44.91     11.35
    4   18   22     22.34     -9.03
    2   18   22     17.59     -3.09
    0   18   22     22.10     -3.99
   18   18   22     -3.80     16.99
   18   20   22    -62.94    -32.82
   16   20   22     29.65     -9.28
   14   20   22     -1.64     -9.87
   12   20   22     27.13     23.92
   10   20   22    -62.07    -95.03
    8   20   22     26.64      5.79
    6   20   22    -48.55    -58.60
    4   20   22     85.04      8.04
    2   20   22    -58.51     -8.53
    0   20   22     -5.32      3.82
   20   20   22      0.15     14.68
    0   22   22     -6.74      0.37
    2   22   22      5.74     10.28
    4   22   22     13.39      5.86
    6   22   22      2.58    -23.52
    8   22   22    -18.15      0.09
   10   22   22     -3.84    -53.33
   12   22   22     33.99      4.31
   14   22   22      0.48     -8.47
   16   22   22    -23.56      4.23
   18   22   22      0.43    -10.59
   20   22   22     31.31     -1.71
   22   22   22     34.40    -89.90
    1    1   23     52.54     53.70
    1    3   23     15.99    -12.62
    3    3   23      8.93     13.18
    3    5   23    -88.46    -25.85
    1    5   23     28.33      6.84
    5    5   23     19.89     15.19
    5    7   23     85.49    -36.53
    3    7   23     55.69    -47.03
    1    7   23    -21.32     25.56
    7    7   23    -32.72    -15.60
    7    9   23    -30.85     24.37
    5    9   23    -33.13     11.26
    3    9   23    -43.30      5.63
    1    9   23     43.82     -0.16
    9    9   23     10.04     -6.41
    9   11   23     16.68    -61.83
    7   11   23      4.66     21.67
    5   11   23     70.13      3.33
    3   11   23     72.27     33.42
    1   11   23    -72.69    -27.53
   11   11   23     18.29     16.04
   11   13   23     58.24    -27.60
    9   13   23     16.20      0.75
    7   13   23     16.36     36.92
    5   13   23     -9.53    -27.85
    3   13   23      5.55     -6.97
    1   13   23    -17.57    -47.26
   13   13   23    -61.98    -64.86
   13   15   23     -5.88     48.15
   11   15   23    -20.59    -27.66
    9   15   23      5.85      2.52
    7   15   23    -13.16     22.42
    5   15   23    -28.37      3.97
    3   15   23    -10.37    -20.81
    1   15   23   -108.65      9.27
   15   15   23     -0.04    -10.96
   15   17   23     13.41     15.91
   13   17   23    -13.26   -115.33
   11   17   23    -26.96    -15.31
    9   17   23     21.81    -86.38
    7   17   23    -44.26     -6.01
    5   17   23     13.04     38.55
    3   17   23    -36.86     -3.41
    1   17   23     23.23     -6.28
   17   17   23     -5.07     -6.68
   17   19   23      7.04    -12.10
   15   19   23     12.39      0.19
   13   19   23     23.43     22.48
   11   19   23     -1.55     15.96
    9   19   23     50.04      3.88
    7   19   23      8.62    -15.65
    5   19   23    -20.99    -22.41
    3   19   23     43.53    -22.39
    1   19   23     -3.91      2.65
   19   19   23      5.07     22.10
   19   21   23    -22.62    -28.06
   17   21   23    -17.35      5.89
   15   21   23      0.07      1.89
   13   21   23    -15.93     -7.57
   11   21   23     38.93     -3.81
    9   21   23      4.73     -9.11
    7   21   23    -34.78     13.79
    5   21   23      1.88    -76.96
    3   21   23    -13.70    -15.05
    1   21   23     37.66    -49.95
   21   21   23    -13.28    -13.34
    1   23   23     -9.84      4.29
    3   23   23      8.56      7.90
    5   23   23      9.55     -4.67
    7   23   23    -12.92    -15.90
    9   23   23     12.78    -16.47
   11   23   23      5.51      7.43
   13   23   23      7.59    -20.51
   15   23   23     35.37     26.16
   17   23   23     28.13    -25.19
   19   23   23    -26.29    -23.62
   21   23   23    -11.20     -0.84
   23   23   23    -39.80    -47.63
    0    0   24    122.13     11.52
    0    2   24     85.37     -1.85
    2    2   24    -30.80      9.90
    2    4   24    -36.44     13.06
    0    4   24     56.36     -0.84
    4    4   24     31.60      8.32
    4    6   24     -3.27    -40.12
    2    6   24      9.55    -67.24
    0    6   24    -17.13    -10.88
    6    6   24     42.51      7.10
    6    8   24     74.67    -13.83
    4    8   24      0.57    -75.67
    2    8   24     49.77      6.87
    0    8   24     10.01     -8.25
    8    8   24     76.73      8.52
    8   10   24    -54.25    -22.77
    6   10   24     60.16    -17.53
    4   10   24     37.89     10.95
    2   10   24     26.29    -74.58
    0   10   24      9.81     -2.16
   10   10   24    -12.96     -4.66
   10   12   24    -31.25    -25.11
    8   12   24     -5.94    -10.32
    6   12   24    -31.95      7.63
    4   12   24    -28.05    -12.83
    2   12   24    -65.15     72.33
    0   12   24    -38.20      9.35
   12   12   24    -66.38     10.91
   12   14   24     20.12     37.19
   10   14   24    -22.60     36.00
    8   14   24      9.44     84.97
    6   14   24    -19.76    -75.46
    4   14   24    128.79    -11.14
    2   14   24     -7.43    -48.71
    0   14   24     -6.01     -4.19
   14   14   24      0.87     -2.95
   14   16   24     10.88    -45.47
   12   16   24    -10.85     10.43
   10   16   24      9.86    -30.59
    8   16   24     -2.76      2.05
    6   16   24    -30.19      5.42
    4   16   24     21.12     14.81
    2   16   24     -6.32     39.13
    0   16   24     -5.52      0.29
   16   16   24     37.11    -12.40
   16   18   24     42.47      6.78
   14   18   24     -4.12      7.83
   12   18   24    -37.79     22.10
   10   18   24    -15.09      5.32
    8   18   24    -67.36    -18.29
    6   18   24     45.48     11.91
    4   18   24     19.96     -4.56
    2   18   24    -20.37     47.55
    0   18   24    -73.68      7.57
   18   18   24     51.99     17.26
   18   20   24      6.44     -3.09
   16   20   24    -24.33    -35.57
   14   20   24    -21.65    -20.83
   12   20   24      1.57      3.31
   10   20   24      2.69    -49.27
    8   20   24     -2.99    -37.12
    6   20   24    -17.72     16.91
    4   20   24    -19.46    -12.36
    2   20   24     54.43    -31.25
    0   20   24    -42.52      1.09
   20   20   24     11.73     -9.91
   20   22   24    -13.39     -1.81
   18   22   24    -34.35    -20.71
   16   22   24     33.02    -37.39
   14   22   24    -12.87     -5.22
   12   22   24     14.46      3.87
   10   22   24      4.36    -49.69
    8   22   24      6.39    -29.51
    6   22   24     28.41    -38.53
    4   22   24     29.94     39.16
    2   22   24     -7.34    -29.89
    0   22   24      1.06      3.07
   22   22   24     10.33     -8.80
    0   24   24    -14.41      6.46
    2   24   24      1.54     23.21
    4   24   24     24.58     -1.29
    6   24   24     -1.01     24.42
    8   24   24    -16.39     -5.46
   10   24   24     -3.44    -41.63
   12   24   24    -77.41     -0.13
   14   24   24     -2.40      0.50
   16   24   24     -9.87    -10.95
   18   24   24      9.55     -2.46
   20   24   24     10.06     -4.59
   22   24   24     -0.38    -11.67
   24   24   24    -23.59     11.18
    1    1   25    -16.33     -2.29
    1    3   25     -5.79     22.54
    3    3   25     15.42    -16.18
    3    5   25    -32.34     35.38
    1    5   25     -9.39     16.14
    5    5   25     13.67     -2.74
    5    7   25     29.48    -11.62
    3    7   25    -16.49    -44.81
    1    7   25     50.45     58.04
    7    7   25     11.56     -1.97
    7    9   25     11.18     -6.15
    5    9   25      5.37    -29.95
    3    9   25     40.06     27.30
    1    9   25     19.36     62.42
    9    9   25    -31.63     34.13
    9   11   25     19.54      2.17
    7   11   25     23.09      6.35
    5   11   25     17.70     12.85
    3   11   25    -20.59     -6.03
    1   11   25    -40.01     38.49
   11   11   25    -22.56      7.66
   11   13   25     41.55    -21.56
    9   13   25     10.98     -7.06
    7   13   25    -22.76    -52.04
    5   13   25     -7.60    -66.80
    3   13   25     21.74     -8.85
    1   13   25     26.04     27.97
   13   13   25     17.56    -12.86
   13   15   25     28.72    -22.61
   11   15   25    -63.58    -65.84
    9   15   25    -47.90    -44.19
    7   15   25    -51.98     -2.88
    5   15   25    -31.67   -116.66
    3   15   25    -11.24    -25.22
    1   15   25     12.65    -73.28
   15   15   25     15.56    -11.02
   15   17   25     -7.16    -11.71
   13   17   25     49.43     31.00
   11   17   25     -3.63      5.61
    9   17   25     23.89     13.85
    7   17   25     17.55      4.99
    5   17   25    -20.88      9.86
    3   17   25    -18.02     -2.58
    1   17   25     26.01     30.04
   17   17   25    -28.01     42.81
   17   19   25    -26.11     10.79
   15   19   25     60.22     12.45
   13   19   25     -6.83    -30.64
   11   19   25    -22.12      4.84
    9   19   25      3.51    -23.45
    7   19   25     -2.33     17.05
    5   19   25     22.25    -29.18
    3   19   25    -44.44    -12.24
    1   19   25     -5.69      3.24
   19   19   25     22.29    -54.68
   19   21   25    -10.60     42.63
   17   21   25    -38.10    -25.47
   15   21   25    -13.41     21.37
   13   21   25    -30.80    -46.85
   11   21   25      8.51    -33.18
    9   21   25    -24.14     33.99
    7   21   25     -2.02      3.35
    5   21   25    -35.59    -36.45
    3   21   25     -4.36     -5.62
    1   21   25    -45.35     22.14
   21   21   25      8.01      9.76
   21   23   25     -5.90     12.82
   19   23   25     -1.92     25.31
   17   23   25    -14.70      0.97
   15   23   25     -6.84     47.78
   13   23   25    -14.55     -7.15
   11   23   25     -3.09     64.95
    9   23   25     27.59     21.94
    7   23   25    -21.61     28.79
    5   23   25     16.84      5.89
    3   23   25      4.10      9.39
    1   23   25      0.12     25.09
   23   23   25     23.90    -10.29
    1   25   25    -20.16     21.55
    3   25   25      7.02     11.71
    5   25   25     -6.88      7.06
    7   25   25     -2.59     -5.14
    9   25   25     12.43     -8.72
   11   25   25    -15.14    -20.80
   13   25   25     -4.75      6.16
   15   25   25    -17.17    -16.48
   17   25   25      5.09     -1.39
   19   25   25     10.64    -19.03
   21   25   25     -3.23      7.77
   23   25   25     -0.60    -15.20
   25   25   25    -13.27     21.60
    0    2   26     29.70     13.02
    2    2   26     -5.44     34.09
    2    4   26    -37.24     50.85
    0    4   26     10.68     -2.08
    4    4   26      3.53     19.52
    4    6   26      9.74    -52.86
    2    6   26     70.39     68.70
    0    6   26      6.97     -8.42
    6    6   26      4.79      1.47
    6    8   26     33.98     18.75
    4    8   26    -31.93     10.13
    2    8   26     41.21     21.46
    0    8   26    -22.74      4.75
    8    8   26     -6.28     34.66
    8   10   26     32.11     10.02
    6   10   26     22.48     15.14
    4   10   26    -23.61     28.49
    2   10   26    -12.14     33.11
    0   10   26    -16.98      2.31
   10   10   26      1.58    -14.98
   10   12   26     33.77     -0.04
    8   12   26    -19.80    -13.82
    6   12   26     17.38    -38.33
    4   12   26     -8.94    -41.58
    2   12   26    -14.33      4.97
    0   12   26     16.11      0.88
   12   12   26     -1.98     55.74
   12   14   26     -3.30    -27.85
   10   14   26     35.93    -24.23
    8   14   26    -25.30      0.73
    6   14   26      5.62    -10.72
    4   14   26    -23.76    -12.88
    2   14   26    -30.95    -44.40
    0   14   26     26.98     -1.60
   14   14   26     -7.79    -44.25
   14   16   26     22.36    -19.63
   12   16   26      5.97      8.16
   10   16   26     42.94     -2.82
    8   16   26     -1.26    -10.54
    6   16   26    -12.14    -22.41
    4   16   26     20.42     -6.33
    2   16   26     27.84    -24.63
    0   16   26     -4.71     10.38
   16   16   26      2.19    -33.38
   16   18   26      7.24      5.76
   14   18   26    -29.40     -3.72
   12   18   26    -24.56    -72.14
   10   18   26     -5.58     -9.66
    8   18   26    -11.01    -81.14
    6   18   26    -23.00      8.92
    4   18   26     47.28    -58.04
    2   18   26     18.39      6.51
    0   18   26     -9.64     -0.49
   18   18   26     -3.71      1.43
   18   20   26    -15.88     39.22
   16   20   26    -23.86     -4.01
   14   20   26     -7.20     39.05
   12   20   26    -34.48    -20.39
   10   20   26     -6.79     -2.78
    8   20   26    -38.04     -9.21
    6   20   26     33.34     21.72
    4   20   26    -19.75    -16.21
    2   20   26     -3.51    -15.78
    0   20   26    -41.55      3.47
   20   20   26      4.87     12.75
   20   22   26      9.56     -2.37
   18   22   26    -19.19     12.50
   16   22   26     17.17      8.48
   14   22   26     35.65    -10.51
   12   22   26     -3.81     -9.11
   10   22   26     -3.75     20.66
    8   22   26    -11.44     -7.32
    6   22   26     16.30     18.63
    4   22   26    -19.42      4.40
    2   22   26     35.91     -7.79
    0   22   26    -74.59     -2.28
   22   22   26      7.62     -6.20
   22   24   26     -7.78    -23.89
   20   24   26     19.83    -15.46
   18   24   26     -8.34     19.45
   16   24   26     16.88     13.55
   14   24   26      9.98     -0.70
   12   24   26     -4.65     24.45
   10   24   26    -10.97      6.78
    8   24   26     17.84    -17.49
    6   24   26     -6.94    -18.34
    4   24   26     12.79      6.16
    2   24   26      4.72      3.98
    0   24   26     64.54      6.22
   24   24   26      6.32      4.29
    0   26   26     18.71      3.71
    2   26   26     -0.20    -24.20
    4   26   26      2.03     -1.31
    6   26   26      1.83    -32.96
    8   26   26     -0.40     -3.97
   10   26   26     11.02     11.84
   12   26   26      2.25      5.13
   14   26   26      2.24     -1.72
   16   26   26      4.90      4.07
   18   26   26     -3.94    -12.94
   20   26   26    -17.48      0.20
   22   26   26    -13.39      2.32
   24   26   26    -13.04     23.86
   26   26   26    -25.11    -39.58
    1    1   27    -13.58    -10.31
    1    3   27     14.39      1.73
    3    3   27      6.02      1.55
    3    5   27    -11.72      3.26
    1    5   27     10.78     -1.52
    5    5   27     39.69     32.96
    5    7   27     21.73    -60.69
    3    7   27    -10.76    -54.58
    1    7   27     -2.84    -12.66
    7    7   27    -20.60    -34.69
    7    9   27     -5.63     36.10
    5    9   27      5.10      0.27
    3    9   27    -14.26     -6.04
    1    9   27    -25.75    -33.72
    9    9   27     32.32     38.79
    9   11   27    -75.73     -2.66
    7   11   27    101.26    -84.95
    5   11   27      2.61     70.07
    3   11   27     27.90    -29.01
    1   11   27    -20.25     12.53
   11   11   27    -11.90    -19.13
   11   13   27     29.49      7.23
    9   13   27    -41.15     53.24
    7   13   27     58.16    -38.27
    5   13   27     -0.07     20.85
    3   13   27    -10.65    -14.20
    1   13   27    -54.55    -28.07
   13   13   27     14.73     10.56
   13   15   27    -12.58     47.34
   11   15   27     -5.61    -27.24
    9   15   27    -18.35     -3.33
    7   15   27      7.50      4.85
    5   15   27     99.49    -47.97
    3   15   27    -25.53     -8.14
    1   15   27      2.86    -40.81
   15   15   27    -17.98    -33.11
   15   17   27      0.25      5.52
   13   17   27    -15.90      8.61
   11   17   27     17.43    -17.62
    9   17   27     -8.26    -41.49
    7   17   27     21.05    -19.15
    5   17   27     18.81     21.47
    3   17   27    -13.57     46.17
    1   17   27    -47.63    -11.89
   17   17   27    -13.17    -11.27
   17   19   27      8.03     12.57
   15   19   27     15.12     -8.87
   13   19   27     12.83     -3.64
   11   19   27    -14.62    -13.49
    9   19   27    -49.17    -22.26
    7   19   27      5.54    -39.08
    5   19   27     -1.86     22.56
    3   19   27     -7.52    -46.82
    1   19   27     23.23    -20.50
   19   19   27     21.35     22.93
   19   21   27     16.40      1.69
   17   21   27     32.53     19.68
   15   21   27      9.02     -6.39
   13   21   27     33.59     33.39
   11   21   27     11.85      1.49
    9   21   27     11.68      8.91
    7   21   27     37.25     14.45
    5   21   27     17.19     -8.95
    3   21   27     46.23     18.89
    1   21   27    -11.33    -14.11
   21   21   27     15.76     14.79
   21   23   27    -69.16    -22.22
   19   23   27     -0.71     -8.68
   17   23   27    -23.03    -11.70
   15   23   27     -1.46    -16.52
   13   23   27    -12.65    -10.44
   11   23   27     13.99      1.59
    9   23   27    -32.48     31.99
    7   23   27      1.46    -18.53
    5   23   27    -48.61     44.79
    3   23   27    -20.65     -5.13
    1   23   27     -4.13     23.04
   23   23   27     25.56     22.96
   23   25   27      2.57     30.37
   21   25   27     12.88     -7.33
   19   25   27    -18.69     21.73
   17   25   27      9.47    -11.47
   15   25   27     17.21     26.57
   13   25   27     25.94     -4.18
   11   25   27    -15.28     -9.65
    9   25   27     -2.60    -25.86
    7   25   27     21.43     17.43
    5   25   27    -11.80      1.59
    3   25   27    -10.44     -1.24
    1   25   27    -22.95     -0.29
   25   25   27      8.70      5.22
    1   27   27     11.72    -10.00
    3   27   27     20.20     19.55
    5   27   27     -5.89      3.82
    7   27   27      7.08      5.83
    9   27   27    -37.07     38.44
   11   27   27     24.55     11.76
   13   27   27      0.82     -0.90
   15   27   27      0.00     -0.12
   17   27   27      2.42     -9.00
   19   27   27     11.06      7.66
   21   27   27     51.12    -37.30
   23   27   27      2.38     -0.89
   25   27   27     24.23    -41.63
   27   27   27     68.71    -44.38
    0    0   28     28.90      6.46
    0    2   28     46.17     -8.13
    2    2   28      2.15      2.01
    2    4   28     39.74     28.80
    0    4   28     11.68     -2.91
    4    4   28     18.63      4.94
    4    6   28    -13.37     36.38
    2    6   28     -8.56    -73.40
    0    6   28    -12.11     -5.60
    6    6   28     27.25     -3.17
    6    8   28    -34.49     -8.30
    4    8   28    -18.49      0.65
    2    8   28     16.44    -51.86
    0    8   28    -16.98     -0.36
    8    8   28     21.19      1.63
    8   10   28    -21.76     -2.56
    6   10   28    -21.53     12.00
    4   10   28    -24.86     26.69
    2   10   28      2.03    -71.83
    0   10   28     30.89      7.69
   10   10   28     34.57    -12.69
   10   12   28      1.83     24.28
    8   12   28     10.15   -100.94
    6   12   28    -15.07      3.25
    4   12   28    -28.86      0.11
    2   12   28      0.41     -1.00
    0   12   28     37.98      7.51
   12   12   28     -0.38     -4.27
   12   14   28    -23.85    -34.10
   10   14   28      6.38     39.71
    8   14   28    -14.90    -36.67
    6   14   28    -48.28    -53.17
    4   14   28    -31.07    -21.14
    2   14   28     -7.90    -13.16
    0   14   28    -15.91     -3.91
   14   14   28      9.41     -2.27
   14   16   28     -6.06    -18.30
   12   16   28     26.46     88.84
   10   16   28    -27.10     81.04
    8   16   28      6.95    -22.88
    6   16   28     -3.82      4.58
    4   16   28    -11.75     39.86
    2   16   28     -3.58     14.08
    0   16   28     -2.95     -1.90
   16   16   28     11.61     10.52
   16   18   28     18.68     39.75
   14   18   28    -19.52    -27.31
   12   18   28      5.57    -31.67
   10   18   28     17.25    -35.79
    8   18   28    -23.15    -35.64
    6   18   28      3.56    -25.24
    4   18   28      0.84      3.86
    2   18   28     -2.81     27.78
    0   18   28     10.76      2.38
   18   18   28     -2.44     -2.09
   18   20   28     45.47      5.43
   16   20   28    -37.16      4.09
   14   20   28     22.22    -16.05
   12   20   28      5.53     22.76
   10   20   28      0.56      9.32
    8   20   28     28.53    -66.99
    6   20   28     14.77     -3.44
    4   20   28      7.59      8.18
    2   20   28      3.79    -10.76
    0   20   28     -3.19      4.06
   20   20   28     15.63     -1.11
   20   22   28     -4.36     -0.88
   18   22   28    -23.30     20.05
   16   22   28    -20.30    -18.75
   14   22   28      0.82     11.46
   12   22   28     22.42     20.48
   10   22   28     15.26    -17.31
    8   22   28     20.25    -21.90
    6   22   28    -18.56    -10.69
    4   22   28     -2.10    -42.44
    2   22   28     13.82    -16.89
    0   22   28     50.13      2.00
   22   22   28      6.78      0.27
   22   24   28      9.67     -6.67
   20   24   28      8.44    -21.95
   18   24   28     -3.75    -17.17
   16   24   28    -16.97     12.42
   14   24   28     -4.26     -0.52
   12   24   28      0.13     62.20
   10   24   28      3.36     39.53
    8   24   28      6.12      6.01
    6   24   28     -1.14     -4.36
    4   24   28     -4.09     49.07
    2   24   28    -19.01      4.70
    0   24   28     16.46      6.95
   24   24   28    -16.04      2.05
   24   26   28    -13.41     -0.88
   22   26   28    -31.72     42.87
   20   26   28     13.65      1.08
   18   26   28     -9.23     22.76
   16   26   28    -26.64    -13.01
   14   26   28    -24.28    -13.21
   12   26   28      6.14     26.40
   10   26   28    -41.33    -15.00
    8   26   28      0.41     32.49
    6   26   28    -32.67     44.08
    4   26   28      8.77    -17.70
    2   26   28    -17.51    -10.06
    0   26   28     -5.25     -0.10
   26   26   28    -34.44      0.65
    0   28   28    -33.59      0.21
    2   28   28      1.46     10.81
    4   28   28    -30.03     -0.16
    6   28   28      4.28    -23.34
    8   28   28    -28.69      0.87
   10   28   28     15.27     46.73
   12   28   28     16.13      1.76
   14   28   28      1.40     33.20
   16   28   28    -17.22     13.08
   18   28   28      3.12      6.98
   20   28   28    -20.83     11.90
   22   28   28      4.06    -11.77
   24   28   28    -39.75      7.78
   26   28   28      4.54     18.58
   28   28   28    -14.50    -10.29
    1    1   29      4.71     -0.87
    1    3   29      0.17      2.82
    3    3   29    -18.58     16.98
    3    5   29    -44.90    -55.72
    1    5   29    -48.86     -2.26
    5    5   29     -2.99      4.04
    5    7   29    -19.71     -2.90
    3    7   29    -43.99     18.84
    1    7   29     -4.30     25.00
    7    7   29     16.11    -23.59
    7    9   29    -18.39     -2.60
    5    9   29     -8.20    -28.42
    3    9   29     73.36      6.09
    1    9   29    -13.11     -5.03
    9    9   29     11.35    -17.64
    9   11   29    -15.83    -40.79
    7   11   29     38.53    -21.74
    5   11   29    -10.40     -6.48
    3   11   29     30.48     15.34
    1   11   29    -13.52      0.82
   11   11   29     -0.27      5.24
   11   13   29     17.87     -4.70
    9   13   29     24.86    -17.40
    7   13   29     -7.93     18.02
    5   13   29      4.01    -20.97
    3   13   29      4.58    -23.71
    1   13   29    -12.45    -42.67
   13   13   29    -18.18     22.15
   13   15   29      2.50     17.92
   11   15   29     32.24     12.86
    9   15   29    -25.65     -5.97
    7   15   29     -9.83     13.09
    5   15   29     -0.97     -7.32
    3   15   29     18.97     -4.39
    1   15   29     -3.63    -19.82
   15   15   29    -17.96     20.11
   15   17   29    -11.34    -12.61
   13   17   29    -15.82     -8.61
   11   17   29     19.35     23.87
    9   17   29    -26.37      6.94
    7   17   29    -24.91     17.39
    5   17   29    -20.37     -6.04
    3   17   29    -36.72    -27.68
    1   17   29     14.39    -12.29
   17   17   29    -16.98     13.58
   17   19   29      1.09     -4.09
   15   19   29      9.23    -45.98
   13   19   29     17.31     11.04
   11   19   29      9.09    -15.86
    9   19   29     16.95     15.48
    7   19   29     40.03     -2.59
    5   19   29     22.12     27.94
    3   19   29    -10.63     11.92
    1   19   29     -7.07      1.68
   19   19   29      3.57     -4.16
   19   21   29      8.10     14.18
   17   21   29     21.10      3.80
   15   21   29    -34.32    -20.66
   13   21   29     23.19    -10.56
   11   21   29     17.69     -8.86
    9   21   29     47.25     23.53
    7   21   29      6.79     -1.15
    5   21   29     36.62    -45.79
    3   21   29     -5.66     -6.13
    1   21   29     -8.80      7.46
   21   21   29    -11.34      8.29
   21   23   29     -8.44    -26.58
   19   23   29      7.47     10.74
   17   23   29     55.41    -36.93
   15   23   29    -12.82    -17.39
   13   23   29     31.79    -29.14
   11   23   29    -14.52      1.75
    9   23   29    -15.57     -4.41
    7   23   29    -12.63      4.07
    5   23   29     38.68     -4.86
    3   23   29     15.98     13.24
    1   23   29      7.44     -0.52
   23   23   29     -2.93     14.80
   23   25   29    -24.69     13.25
   21   25   29     -3.53     -3.88
   19   25   29     14.72      5.17
   17   25   29     16.90     -8.71
   15   25   29     -8.99     -2.07
   13   25   29    -21.12     15.80
   11   25   29    -17.44    -14.27
    9   25   29     14.45     18.69
    7   25   29      6.03      7.43
    5   25   29     18.94     27.49
    3   25   29    -33.98     -3.50
    1   25   29    -10.11      8.56
   25   25   29     20.51    -27.95
   25   27   29     22.53    -48.86
   23   27   29    -10.97     24.12
   21   27   29    -27.40    -22.37
   19   27   29     29.09     16.34
   17   27   29      0.01    -27.62
   15   27   29     25.37    -17.60
   13   27   29      3.85      2.00
   11   27   29     -9.83     21.06
    9   27   29    -19.47     -3.44
    7   27   29     23.12      5.05
    5   27   29      6.78      2.37
    3   27   29     -4.12      1.25
    1   27   29      1.19     -5.82
   27   27   29      5.57     -1.66
    1   29   29     -2.16     -8.45
    3   29   29    -19.39    -19.57
    5   29   29    -18.60     21.06
    7   29   29    -11.53    -13.17
    9   29   29      9.52     -1.17
   11   29   29      5.11      2.31
   13   29   29    -22.25     24.68
   15   29   29      3.62     -0.40
   17   29   29    -13.63     12.64
   19   29   29     14.82     22.53
   21   29   29     -5.34      8.64
   23   29   29     -7.26    -21.16
   25   29   29     -3.99     -7.98
   27   29   29    -44.11    -30.34
   29   29   29      2.26     -4.77
    0    2   30     13.75      1.93
    2    2   30     -4.59     21.15
    2    4   30     -2.01      4.16
    0    4   30     15.07     -4.72
    4    4   30     -3.27     65.88
    4    6   30    -27.04     29.28
    2    6   30     32.12     45.69
    0    6   30    -33.18     -1.38
    6    6   30      4.71     32.57
    6    8   30    -12.13   -101.87
    4    8   30     30.94     61.69
    2    8   30     38.03     -4.93
    0    8   30     16.90      3.61
    8    8   30     -5.87     11.57
    8   10   30    -17.46    -15.45
    6   10   30      1.75    -35.89
    4   10   30    -25.67    -60.45
    2   10   30    -40.65     19.29
    0   10   30    -38.09      2.34
   10   10   30     -3.80    -25.81
   10   12   30    -27.70     60.51
    8   12   30     34.81      9.68
    6   12   30      6.08    -11.60
    4   12   30    -20.43    -11.53
    2   12   30     -6.83     49.73
    0   12   30     22.06     -2.31
   12   12   30     -0.38      5.82
   12   14   30      6.84    -45.77
   10   14   30    -15.09     -3.73
    8   14   30     37.65     41.52
    6   14   30     53.60      2.91
    4   14   30    -10.35    -15.29
    2   14   30     19.70     24.67
    0   14   30     -1.07      8.03
   14   14   30      3.56     24.89
   14   16   30    -23.18    -20.37
   12   16   30     -2.22      0.64
   10   16   30    -46.64    -23.88
    8   16   30     22.00    -25.28
    6   16   30    -28.01     11.25
    4   16   30    -15.54     40.01
    2   16   30    -18.67      0.18
    0   16   30     -3.45      0.44
   16   16   30     -7.07     32.76
   16   18   30     -0.08     34.74
   14   18   30    -16.58     15.00
   12   18   30     -4.38    -39.23
   10   18   30     -3.15    -21.05
    8   18   30    -10.28     16.25
    6   18   30    -14.40    -19.47
    4   18   30     16.06    -16.78
    2   18   30     15.77     24.47
    0   18   30     -2.63     -0.29
   18   18   30      1.47    -15.79
   18   20   30     -6.85    -12.75
   16   20   30    -13.12      1.42
   14   20   30      0.33     27.93
   12   20   30    -22.11     -1.65
   10   20   30    -16.28     -4.24
    8   20   30      6.59     23.17
    6   20   30     10.07     -5.82
    4   20   30    -26.76      6.50
    2   20   30    -22.80      0.55
    0   20   30    -10.33      2.79
   20   20   30     -1.10      9.12
   20   22   30    -24.27     -4.66
   18   22   30    -17.66      8.96
   16   22   30      3.73     14.02
   14   22   30     13.85      0.98
   12   22   30     -8.61     -1.58
   10   22   30      0.51     -3.42
    8   22   30     -8.76     20.49
    6   22   30      7.95     -5.36
    4   22   30     17.06    -11.13
    2   22   30      5.03     -8.61
    0   22   30    -16.52      2.15
   22   22   30      5.71     -1.93
   22   24   30    -14.49     -3.65
   20   24   30     -2.62     -1.88
   18   24   30     22.03     -4.60
   16   24   30     14.99     -3.97
   14   24   30     29.55    -14.92
   12   24   30      4.70     40.24
   10   24   30     -0.56      4.78
    8   24   30      8.36     11.50
    6   24   30      4.44     -0.97
    4   24   30     30.13     14.43
    2   24   30    -12.73     -6.74
    0   24   30     65.26     -2.32
   24   24   30      1.20      6.79
   24   26   30     10.35    -16.96
   22   26   30     -3.21      0.96
   20   26   30    -40.44     25.15
   18   26   30      3.03     -2.71
   16   26   30     -1.86     24.10
   14   26   30    -14.60     -3.79
   12   26   30     -7.37     59.32
   10   26   30      0.58     -6.30
    8   26   30     10.72     13.90
    6   26   30      3.54     -2.06
    4   26   30     15.01    -21.82
    2   26   30     31.93     -5.33
    0   26   30     -0.54      0.98
   26   26   30     10.27     -7.76
   26   28   30     -7.96     54.91
   24   28   30     15.72    -14.23
   22   28   30    -10.80      7.66
   20   28   30    -11.40     -0.01
   18   28   30      4.05     -2.27
   16   28   30     11.22    -16.70
   14   28   30     -6.05      4.26
   12   28   30     -5.67     -1.85
   10   28   30     41.34     25.23
    8   28   30    -16.57    -21.08
    6   28   30     10.41      7.97
    4   28   30    -35.77     -2.58
    2   28   30      3.01      4.68
    0   28   30    -10.99     -0.14
   28   28   30      1.05    -16.46
    0   30   30     11.82      5.04
    2   30   30     -2.46     11.01
    4   30   30     13.80     -0.10
    6   30   30     -0.01      4.66
    8   30   30      6.01      6.62
   10   30   30      2.73     20.01
   12   30   30    -30.93     -1.99
   14   30   30      2.31    -11.74
   16   30   30     24.95     -4.02
   18   30   30      4.06     25.74
   20   30   30    -27.17     -0.87
   22   30   30      0.99    -19.94
   24   30   30      3.22     -6.29
   26   30   30     15.95     12.14
   28   30   30    -18.64     -6.16
   30   30   30     16.93     10.79
    1    3   31    -11.13    -30.71
    3    3   31     -4.21     -3.62
    3    5   31    -23.23     24.30
    1    5   31     32.23    -19.61
    5    5   31    -21.04    -30.58
    5    7   31     17.37    -38.77
    3    7   31     -7.67     -8.60
    1    7   31      6.28    -43.31
    7    7   31     16.33     14.43
    7    9   31      5.62    -14.42
    5    9   31    -17.66    -31.51
    3    9   31     -2.22      8.10
    1    9   31     19.43    -15.44
    9    9   31     32.98     31.47
    9   11   31     14.83     13.86
    7   11   31     -6.98      8.27
    5   11   31      4.70     34.88
    3   11   31    -24.23     13.91
    1   11   31    -50.10     14.41
   11   11   31    -13.03     -8.63
   11   13   31      5.56      9.65
    9   13   31    -27.74     -2.79
    7   13   31     14.94    -32.16
    5   13   31    -12.97    -25.75
    3   13   31      2.04    -44.61
    1   13   31     28.84     15.80
   13   13   31     -5.28      4.06
   13   15   31     14.44      1.76
   11   15   31    -35.36     14.38
    9   15   31     69.35    -19.22
    7   15   31     13.00     60.89
    5   15   31     37.43    -35.72
    3   15   31     -8.69     16.25
    1   15   31    -33.71     -1.79
   15   15   31    -13.19     -9.13
   15   17   31     11.11     18.25
   13   17   31    -21.00     -7.28
   11   17   31     22.37     -7.83
    9   17   31      5.32     11.52
    7   17   31     10.14    -21.55
    5   17   31     -4.08     14.53
    3   17   31    -15.03      7.55
    1   17   31     13.28     37.35
   17   17   31    -10.45    -26.65
   17   19   31      5.39     12.45
   15   19   31     -4.66      6.87
   13   19   31     15.75    -11.36
   11   19   31    -39.97     18.33
    9   19   31      2.63    -23.73
    7   19   31      5.59    -19.60
    5   19   31    -25.95      2.09
    3   19   31      5.58    -28.35
    1   19   31     29.22    -14.61
   19   19   31      0.87      2.14
   19   21   31     -7.58    -15.70
   17   21   31      0.95    -13.95
   15   21   31    -27.57     11.73
   13   21   31      6.97    -14.19
   11   21   31     20.37      6.83
    9   21   31     -0.27      6.14
    7   21   31    -10.24    -14.83
    5   21   31     -6.79     10.13
    3   21   31     -2.85     -6.24
    1   21   31     -3.78     -4.62
   21   21   31     -8.38     -6.37
   21   23   31      0.35      5.34
   19   23   31    -35.65     -5.86
   17   23   31     18.57     12.43
   15   23   31     20.14    -26.02
   13   23   31     17.59    -25.37
   11   23   31      5.28     -5.69
    9   23   31     52.72     15.68
    7   23   31    -21.07     15.26
    5   23   31      1.47    -12.25
    3   23   31     -3.92     -0.28
    1   23   31     14.94     16.20
   23   23   31    -11.16     -1.97
   23   25   31     22.05    -13.25
   21   25   31      4.69    -10.15
   19   25   31     -0.79    -21.87
   17   25   31      4.40      4.17
   15   25   31     13.50      9.27
   13   25   31      5.81    -21.45
   11   25   31     31.54     37.68
    9   25   31     11.76      0.23
    7   25   31     -8.85     -5.82
    5   25   31      3.70    -10.24
    3   25   31    -17.33     -9.51
    1   25   31     -5.96      9.41
   25   25   31    -11.86    -22.18
   25   27   31     16.40    -10.32
   23   27   31    -24.58    -38.08
   21   27   31    -14.33     16.71
   19   27   31    -10.59    -17.94
   17   27   31    -12.29     25.14
   15   27   31     15.30     -5.19
   13   27   31    -19.23      9.93
   11   27   31     -7.36    -12.63
    9   27   31     36.02     28.91
    7   27   31    -17.69     -7.77
    5   27   31      5.78     -4.26
    3   27   31      7.07     -3.29
    1   27   31      9.58      9.09
   27   27   31     -0.78    -16.02
   27   29   31     30.59     22.74
   25   29   31    -33.65     27.44
   23   29   31     46.04     -7.81
   21   29   31    -10.09    -23.70
   19   29   31      0.85     -0.41
   17   29   31    -23.66      8.03
   15   29   31      3.48    -12.61
   13   29   31    -10.13    -13.38
   11   29   31     14.00     27.20
    9   29   31    -13.55    -16.56
    7   29   31    -18.29      0.33
    5   29   31     -4.24      9.49
    3   29   31      4.75     10.81
    1   29   31      2.74    -11.70
   29   29   31     27.73     -7.64
    1   31   31     -2.06     -2.81
    3   31   31    -22.59     11.89
    5   31   31     -6.33      0.67
    7   31   31      1.33      0.95
    9   31   31      5.74     -3.19
   11   31   31    -15.91    -25.44
   13   31   31      5.23     -3.24
   15   31   31    -13.85    -17.08
   17   31   31      9.77     -9.50
   19   31   31     16.70    -23.68
   21   31   31    -31.66     23.03
   23   31   31    -14.92      9.20
   25   31   31     13.60    -11.64
   27   31   31    -16.39      1.60
   29   31   31     -1.88      9.74
   31   31   31    -33.91     31.78
    2    4   32     58.87     15.48
    0    4   32    -50.73     -2.90
    4    4   32     -7.40     -7.30
    4    6   32    -15.49     -5.53
    2    6   32     -7.21      0.80
    0    6   32    -13.35      9.46
    6    6   32      9.83     -3.97
    6    8   32    -34.11      0.66
    4    8   32    -11.84      9.22
    2    8   32     -2.81    -34.63
    0    8   32     51.52      2.86
    8    8   32     -7.69     -2.21
    8   10   32     47.73     26.92
    6   10   32      5.26      7.02
    4   10   32     36.80     11.85
    2   10   32    -22.81      6.23
    0   10   32     36.59      3.68
   10   10   32    -10.68     -1.73
   10   12   32     20.41    -14.41
    8   12   32    -22.00     22.47
    6   12   32     38.49      8.84
    4   12   32    -25.92     -5.48
    2   12   32     -3.54     14.99
    0   12   32      9.58     -0.85
   12   12   32    -13.50    -10.51
   12   14   32     -4.02     15.78
   10   14   32     -4.62     25.36
    8   14   32      3.59     18.27
    6   14   32    -29.98     -5.76
    4   14   32    -12.79    -19.89
    2   14   32     -2.28     46.16
    0   14   32    -40.04      0.67
   14   14   32      4.47      1.76
   14   16   32    -14.12    -13.02
   12   16   32     -8.28     19.55
   10   16   32    -16.77    -22.63
    8   16   32      2.99    -40.44
    6   16   32     24.08     -6.40
    4   16   32     28.26     -7.56
    2   16   32     17.02    -10.38
    0   16   32      9.98      2.07
   16   16   32    -22.80     -2.30
   16   18   32    -18.08     32.42
   14   18   32    -12.00     21.36
   12   18   32    -14.96      0.83
   10   18   32     16.67     11.25
    8   18   32      2.41     18.24
    6   18   32     26.04     -5.43
    4   18   32      6.85     29.79
    2   18   32     -7.13     47.84
    0   18   32    -11.09     -2.64
   18   18   32     21.31     -0.87
   18   20   32     41.97     10.74
   16   20   32    -15.46    -44.23
   14   20   32     39.24     10.03
   12   20   32     22.56    -18.03
   10   20   32      5.19     -4.47
    8   20   32    -10.15     -2.96
    6   20   32     18.72     15.44
    4   20   32     -0.34      0.26
    2   20   32     29.59    -34.13
    0   20   32      4.07     -2.59
   20   20   32    -16.62     -1.31
   20   22   32     33.91      9.56
   18   22   32    -16.92     -0.29
   16   22   32     33.65    -52.35
   14   22   32    -39.26     34.13
   12   22   32     -6.34    -19.25
   10   22   32     -1.78     21.52
    8   22   32     -8.35     16.94
    6   22   32    -10.29     22.15
    4   22   32     -7.24     27.18
    2   22   32      3.34      2.36
    0   22   32      7.21     -2.55
   22   22   32     17.42     -1.23
   22   24   32     -6.65      0.75
   20   24   32     30.24     45.37
   18   24   32    -20.56     24.48
   16   24   32      4.38     18.77
   14   24   32     -5.27     -7.95
   12   24   32     11.52     16.13
   10   24   32      7.05      3.42
    8   24   32      3.73      3.60
    6   24   32    -20.38    -15.84
    4   24   32      0.29     10.85
    2   24   32    -10.55     -2.75
    0   24   32    -12.81      0.64
   24   24   32     -2.30      2.85
   24   26   32     13.61     -1.45
   22   26   32     -1.04     10.96
   20   26   32      3.77     14.54
   18   26   32     29.26    -12.01
   16   26   32     -8.02      5.38
   14   26   32    -10.55      7.00
   12   26   32    -23.29      0.28
   10   26   32    -25.53      4.62
    8   26   32     -2.55      0.42
    6   26   32     16.95    -13.81
    4   26   32      9.56      3.07
    2   26   32    -13.66     -1.32
    0   26   32     -3.85     -1.96
   26   26   32     -0.16     -9.52
   26   28   32    -26.28     13.51
   24   28   32    -13.64     -2.07
   22   28   32     29.96    -23.02
   20   28   32     14.60     -7.07
   18   28   32      4.86      3.71
   16   28   32      0.80     23.36
   14   28   32     -8.74    -26.75
   12   28   32      0.06     -9.44
   10   28   32    -17.60     -6.20
    8   28   32      8.44     14.93
    6   28   32     16.24    -16.13
    4   28   32     23.01      8.83
    2   28   32    -15.71     22.32
    0   28   32     -9.42     -1.38
   28   28   32     -8.99     -2.66
   28   30   32     14.86     15.83
   26   30   32      2.04    -18.93
   24   30   32    -32.51     -0.48
   22   30   32    -11.77      5.66
   20   30   32     -1.41     12.86
   18   30   32      8.19     -4.36
   16   30   32     -6.28      8.95
   14   30   32      8.75     -6.99
   12   30   32     -5.31      6.47
   10   30   32     13.26     11.44
    8   30   32    -14.24    -18.94
    6   30   32     19.08     -6.80
    4   30   32     16.28    -14.13
    2   30   32     -4.41      6.48
    0   30   32     11.78      1.06
   30   30   32      0.37      9.45
    0   32   32      0.61      6.52
    2   32   32      0.80     22.03
    4   32   32      2.45      1.99
    6   32   32      2.93    -33.86
    8   32   32     10.82      2.58
   10   32   32     -0.75    -23.02
   12   32   32     -4.88     -1.72
   14   32   32      4.16     -6.28
   16   32   32     -9.30     -1.16
   18   32   32      5.64      1.23
   20   32   32     36.78    -30.81
   22   32   32     -0.76     -2.39
   24   32   32      6.32      0.62
   26   32   32      4.90     27.45
   28   32   32     23.25     11.85
    1    3   33     -8.08     10.72
    3    3   33      4.21     -8.57
    3    5   33     -7.72    -11.68
    1    5   33     26.78    -40.84
    5    5   33     30.23    -21.38
    5    7   33     -0.65      8.79
    3    7   33    -12.30      8.06
    1    7   33     -9.61      8.43
    7    7   33     -1.64     -0.78
    7    9   33    -41.18      6.54
    5    9   33     -8.09     49.91
    3    9   33      0.64     13.53
    1    9   33     19.95     13.94
    9    9   33    -43.73     11.25
    9   11   33      5.28    -19.47
    7   11   33     -3.30    -22.45
    5   11   33     22.27      7.41
    3   11   33     24.73     -2.31
    1   11   33     18.09      8.30
   11   11   33     19.42    -21.65
   11   13   33     -5.73     -2.58
    9   13   33    -46.67    -36.70
    7   13   33    -13.23     10.64
    5   13   33     14.43     11.75
    3   13   33    -30.21     -2.51
    1   13   33     -8.14    -17.85
   13   13   33     15.83    -14.98
   13   15   33      4.28      5.72
   11   15   33     -5.26     -2.53
    9   15   33     -1.42     37.23
    7   15   33    -39.40     -7.65
    5   15   33    -22.90      7.55
    3   15   33     26.98    -29.30
    1   15   33     -0.55     10.04
   15   15   33      3.51     -5.21
   15   17   33    -21.43      1.93
   13   17   33     27.48     -7.03
   11   17   33     -8.38     -7.45
    9   17   33    -23.87     -0.52
    7   17   33      6.90    -29.01
    5   17   33     12.53     16.48
    3   17   33     -9.85    -29.93
    1   17   33     -1.93     24.79
   17   17   33      8.01     -8.05
   17   19   33    -18.77     -1.00
   15   19   33     -1.03     -0.15
   13   19   33     12.33      7.52
   11   19   33     16.36     16.09
    9   19   33     -1.90     -0.97
    7   19   33     24.13      7.02
    5   19   33      8.49    -18.37
    3   19   33     40.42      9.42
    1   19   33     17.84     -5.29
   19   19   33    -19.85     19.44
   19   21   33     21.34    -15.08
   17   21   33     10.78     -4.96
   15   21   33     -8.14    -13.59
   13   21   33      9.44      9.95
   11   21   33     -0.30     -4.60
    9   21   33     -2.21     24.03
    7   21   33     30.04     40.07
    5   21   33      9.10    -21.99
    3   21   33     18.67     21.61
    1   21   33    -11.55      1.76
   21   21   33     -7.19      2.84
   21   23   33    -18.47     11.49
   19   23   33     -7.50     -4.70
   17   23   33    -23.76     -2.76
   15   23   33      1.51      6.45
   13   23   33    -23.72     11.62
   11   23   33      8.67     12.44
    9   23   33    -25.11    -32.78
    7   23   33      6.83      4.21
    5   23   33    -12.46     -7.03
    3   23   33      4.15     -5.60
    1   23   33      2.22     12.85
   23   23   33     -6.56      7.48
   23   25   33      6.51     13.33
   21   25   33     -3.53     15.57
   19   25   33     -7.90     -5.72
   17   25   33      8.60      1.83
   15   25   33    -14.47      2.41
   13   25   33      4.24     -6.47
   11   25   33      0.86     -2.52
    9   25   33     14.99     -1.64
    7   25   33     41.74     12.50
    5   25   33     26.57     -0.32
    3   25   33     11.77      0.39
    1   25   33     12.66     27.79
   25   25   33    -10.19      8.32
   25   27   33      5.70     12.52
   23   27   33     15.73      0.17
   21   27   33     -3.78     39.01
   19   27   33      2.68    -18.27
   17   27   33    -19.10    -19.67
   15   27   33      4.99      0.12
   13   27   33     11.74     -8.41
   11   27   33     -3.74      3.73
    9   27   33      9.72    -13.08
    7   27   33      8.57     -3.78
    5   27   33    -40.18     12.22
    3   27   33     -7.86    -26.27
    1   27   33    -45.07      4.47
   27   27   33     17.12    -17.89
   27   29   33     -0.71    -23.98
   25   29   33     10.56     11.96
   23   29   33      2.60     -6.54
   21   29   33     18.87     10.03
   19   29   33     -8.06     -5.72
   17   29   33    -17.52     -0.82
   15   29   33    -17.84     -5.57
   13   29   33    -11.66      8.99
   11   29   33     -6.71      7.74
    9   29   33      5.35     10.72
    7   29   33     10.88     -0.05
    5   29   33      6.04    -18.58
    3   29   33    -20.61      5.18
    1   29   33     -7.15     -3.27
   29   29   33     27.13     -0.16
   27   31   33    -13.31    -24.02
   25   31   33     -7.84    -24.54
   23   31   33    -11.64    -10.81
   21   31   33      0.99     19.99
   19   31   33    -13.34     22.00
   17   31   33      3.43     -5.17
   15   31   33    -10.12      8.46
   13   31   33     19.85    -22.18
   11   31   33      8.69      6.00
    9   31   33     -5.35     -0.87
    7   31   33     13.62      3.34
    5   31   33     -8.96    -26.28
    3   31   33     12.68      4.37
    1   31   33     14.46    -12.20
    1   33   33     -0.08     -4.11
    3   33   33      2.22      2.21
    5   33   33     10.30     -8.44
    7   33   33    -15.27     -7.91
    9   33   33      5.37     -8.00
   11   33   33    -11.38      1.27
   13   33   33    -16.36      6.20
   15   33   33      7.99      5.89
   17   33   33      5.02     -5.25
   19   33   33    -12.41    -32.49
   21   33   33     10.47    -15.44
   23   33   33     -2.79     -5.98
   25   33   33    -25.21     -6.06
    2    4   34    -25.21      6.38
    0    4   34      5.55      8.54
    4    4   34     -2.56     -3.18
    4    6   34      6.73     -5.85
    2    6   34     50.44     17.83
    0    6   34     34.48     -5.14
    6    6   34      5.51      9.87
    6    8   34     -2.40     11.07
    4    8   34     21.20      4.73
    2    8   34     13.96     10.34
    0    8   34     -0.29      0.93
    8    8   34      0.37    -18.89
    8   10   34     -4.72     27.01
    6   10   34      1.36    -10.03
    4   10   34     20.87     35.06
    2   10   34    -80.34    -27.98
    0   10   34     42.12      3.36
   10   10   34      0.34    -16.90
   10   12   34      5.04    -45.91
    8   12   34     26.68    -11.00
    6   12   34      5.19     -5.98
    4   12   34     12.39      5.40
    2   12   34    -21.87     20.72
    0   12   34     -5.30      0.62
   12   12   34     -0.93      1.50
   12   14   34    -25.41     44.38
   10   14   34     38.55     12.13
    8   14   34     15.14     50.00
    6   14   34     36.25     13.82
    4   14   34    -10.74     22.98
    2   14   34      4.74      9.00
    0   14   34      1.13      0.61
   14   14   34      3.63    -14.75
   14   16   34    -16.43    -14.26
   12   16   34    -32.88     19.69
   10   16   34     38.40     -3.46
    8   16   34     15.35    -19.05
    6   16   34      4.00     39.86
    4   16   34      3.28    -14.31
    2   16   34     22.50    -10.56
    0   16   34    -22.90     -1.60
   16   16   34     -0.30     -4.19
   16   18   34    -12.01    -15.17
   14   18   34    -16.31      2.82
   12   18   34      5.87     -3.88
   10   18   34      8.55      8.86
    8   18   34    -14.53      2.51
    6   18   34    -29.90     12.36
    4   18   34     -4.17     16.88
    2   18   34      7.31     19.47
    0   18   34    -10.61      2.68
   18   18   34      1.00     15.95
   18   20   34     -1.25     39.56
   16   20   34      0.29     -6.57
   14   20   34    -11.60     10.09
   12   20   34     -5.12      3.07
   10   20   34      3.49    -38.45
    8   20   34     14.38    -16.87
    6   20   34      3.73     -7.32
    4   20   34     -1.46    -14.44
    2   20   34     15.74     -4.64
    0   20   34    -11.14     -2.18
   20   20   34      1.31     -6.20
   20   22   34     13.20     -6.73
   18   22   34    -17.33     21.02
   16   22   34     19.29      2.10
   14   22   34      5.18     -1.07
   12   22   34      9.12      7.16
   10   22   34      5.32      7.60
    8   22   34      2.66     -6.42
    6   22   34    -13.26     13.10
    4   22   34    -15.17      2.13
    2   22   34     -5.09    -17.68
    0   22   34     35.45      0.36
   22   22   34      0.82     13.44
   22   24   34     -4.75      0.15
   20   24   34     -4.52     -3.44
   18   24   34     10.22     24.76
   16   24   34     -5.25     -4.60
   14   24   34      3.28     -4.11
   12   24   34      5.67      2.79
   10   24   34    -21.68      5.72
    8   24   34     -6.61    -20.64
    6   24   34      7.38     10.17
    4   24   34     -3.34     14.54
    2   24   34    -22.66     -3.40
    0   24   34     16.90      2.45
   24   24   34     -1.65      9.37
   24   26   34      5.02     -3.34
   22   26   34     10.41     -0.02
   20   26   34      5.72     21.99
   18   26   34     12.85    -14.97
   16   26   34    -11.77      2.40
   14   26   34      1.22      3.43
   12   26   34    -14.86      7.90
   10   26   34    -19.35     11.39
    8   26   34     -9.34     24.41
    6   26   34    -13.69     17.57
    4   26   34    -17.51      1.86
    2   26   34      9.70    -12.53
    0   26   34    -27.90     -0.03
   26   26   34     -4.39      4.01
   26   28   34     13.43    -33.17
   24   28   34     -5.95      5.97
   22   28   34    -28.17    -15.09
   20   28   34     -6.28     -5.18
   18   28   34      2.82     17.57
   16   28   34     15.14     -5.27
   14   28   34    -21.38     -1.71
   12   28   34      8.31     -9.56
   10   28   34     -3.04    -13.03
    8   28   34      4.05     -9.95
    6   28   34    -20.07      4.75
    4   28   34      0.75      2.55
    2   28   34     10.65     -5.96
    0   28   34     18.68     -5.69
   28   28   34      8.47      1.72
   28   30   34     -9.99     22.90
   26   30   34      3.26      8.41
   24   30   34     11.87      3.06
   22   30   34    -14.57     20.64
   20   30   34    -10.74     27.82
   18   30   34      7.36      7.67
   16   30   34     -0.87      2.54
   14   30   34     15.07    -32.61
   12   30   34      8.15      8.86
   10   30   34     -0.79     -3.51
    8   30   34     -4.14      5.12
    6   30   34    -19.78    -14.72
    4   30   34      1.65     15.47
    2   30   34    -10.26     -4.93
    0   30   34     -0.37      1.67
   26   32   34     27.56     -5.71
   24   32   34    -14.18      6.92
   22   32   34     -7.01    -23.50
   20   32   34     -8.25      4.08
   18   32   34      8.22     -8.26
   16   32   34     -8.68      3.95
   14   32   34      4.74      6.89
   12   32   34    -15.81     -0.32
   10   32   34     -1.36     -7.34
    8   32   34     -2.94      3.35
    6   32   34    -12.32      6.25
    4   32   34     -7.59     -3.72
    2   32   34      6.90     -2.44
    0   32   34    -32.68     -0.71
    0   34   34     38.02      2.39
    2   34   34     -0.58    -47.55
    4   34   34     -8.69      0.64
    6   34   34      0.85      2.34
    8   34   34     -0.18     -0.94
   10   34   34      2.10     20.01
   12   34   34      5.94      0.09
   14   34   34      1.14     -6.03
   16   34   34      1.91     -1.56
   18   34   34      0.04     -7.03
   20   34   34     -1.41     -0.96
   22   34   34      6.81     -4.63
    1    3   35     17.43    -21.75
    3    3   35     -6.52     -4.73
    3    5   35    -12.79     -4.76
    1    5   35    -16.01     -6.57
    5    5   35    -18.69    -35.33
    5    7   35    -25.46     -1.75
    3    7   35     16.76    -32.23
    1    7   35      0.52     45.55
    7    7   35     -0.18      9.54
    7    9   35     -9.27     14.94
    5    9   35     14.63    -29.10
    3    9   35      3.89     -5.77
    1    9   35     -9.28     27.31
    9    9   35     18.54     18.37
    9   11   35     -7.96     17.91
    7   11   35    -41.79     13.44
    5   11   35      4.73     18.69
    3   11   35     -9.09    -11.44
    1   11   35      0.33     55.32
   11   11   35     10.26      9.63
   11   13   35    -15.23     17.94
    9   13   35     -5.18    -20.87
    7   13   35      9.65     14.58
    5   13   35     15.91    -11.35
    3   13   35     -1.30     23.51
    1   13   35    -26.82     -9.40
   13   13   35      0.92     -2.06
   13   15   35    -14.43      4.79
   11   15   35     13.37      3.93
    9   15   35     15.28      1.51
    7   15   35    -16.72      0.92
    5   15   35    -17.79     -5.75
    3   15   35      4.20     19.04
    1   15   35     -9.71    -12.14
   15   15   35     -7.31    -10.77
   15   17   35     28.52     21.88
   13   17   35     -9.85      7.72
   11   17   35     -8.82    -16.04
    9   17   35     15.62     -5.00
    7   17   35     18.56     16.46
    5   17   35     22.07      9.73
    3   17   35      2.12    -14.24
    1   17   35     19.75     -5.99
   17   17   35      3.99      0.87
   17   19   35    -21.01     -3.36
   15   19   35     -4.33    -13.69
   13   19   35      8.97     -5.14
   11   19   35     -6.39     -4.30
    9   19   35     -1.86     -9.92
    7   19   35     -8.37    -15.04
    5   19   35     -2.97     16.56
    3   19   35      8.34      6.77
    1   19   35      0.41     12.01
   19   19   35      3.79      5.87
   19   21   35     -0.45     12.52
   17   21   35     -0.45     -1.67
   15   21   35    -13.09     -9.30
   13   21   35    -10.62    -10.90
   11   21   35     16.22     -3.57
    9   21   35     -9.27    -20.56
    7   21   35    -13.17     -4.29
    5   21   35     18.52    -18.03
    3   21   35      0.59     16.11
    1   21   35      9.27    -53.36
   21   21   35     -8.38     -2.74
   21   23   35    -18.29     -3.95
   19   23   35     -0.82      4.35
   17   23   35      0.89      3.49
   15   23   35     16.03    -25.46
   13   23   35      9.14     16.12
   11   23   35     28.07    -24.12
    9   23   35     19.71     19.16
    7   23   35      0.90      1.96
    5   23   35     -2.22      0.79
    3   23   35    -11.17      7.72
    1   23   35     14.45      0.84
   23   23   35     20.16      6.13
   23   25   35     19.30     -8.07
   21   25   35     -5.36     15.26
   19   25   35     -2.64      2.56
   17   25   35    -19.31      8.69
   15   25   35    -24.28    -19.87
   13   25   35    -22.68      5.81
   11   25   35    -20.47      3.79
    9   25   35    -11.32     -3.36
    7   25   35    -14.52      6.11
    5   25   35      8.13      5.45
    3   25   35     -9.38     -0.65
    1   25   35     -9.40     -7.89
   25   25   35      8.89      3.49
   25   27   35      9.83     17.06
   23   27   35     -4.85    -11.84
   21   27   35    -24.47      3.09
   19   27   35      1.40     33.29
   17   27   35     12.14    -17.63
   15   27   35      3.63     19.06
   13   27   35     10.90     -2.04
   11   27   35     17.16     -7.34
    9   27   35      1.84     19.94
    7   27   35      9.36     -7.85
    5   27   35    -15.55     -2.13
    3   27   35      4.90      1.13
    1   27   35     17.08    -15.73
   27   27   35     29.63     14.88
   27   29   35    -30.15     -3.14
   25   29   35     -8.72     10.27
   23   29   35      2.61     -7.33
   21   29   35      8.30    -18.01
   19   29   35    -24.01      4.28
   17   29   35     -6.47     -1.76
   15   29   35     -6.55     -7.80
   13   29   35     -9.26    -10.23
   11   29   35     -8.51     12.34
    9   29   35     12.75      0.96
    7   29   35     18.00     13.02
    5   29   35    -12.68     31.86
    3   29   35     12.07     -0.50
    1   29   35     -3.99      0.05
   25   31   35     18.86     -8.96
   23   31   35    -19.13     25.79
   21   31   35     -5.17     -2.47
   19   31   35      6.94     18.57
   17   31   35     -1.67    -13.46
   15   31   35    -18.38     -2.31
   13   31   35      6.01     -7.89
   11   31   35     -0.41      5.03
    9   31   35    -21.56     -6.46
    7   31   35      5.07    -32.06
    5   31   35     -1.27      3.59
    3   31   35    -43.31     11.37
    1   31   35     10.19     -4.45
   23   33   35     -9.20    -11.86
   21   33   35     35.98    -13.58
   19   33   35    -21.55      2.76
   17   33   35     27.75     -3.50
   15   33   35     10.28      6.57
   13   33   35      1.50      2.91
   11   33   35    -14.68     -0.52
    9   33   35     42.31      1.05
    7   33   35     -4.49     13.10
    5   33   35      7.81      0.92
    3   33   35      8.56      5.62
    1   33   35     15.60    -52.13
    1   35   35     17.98    -10.28
    3   35   35     -9.90    -18.78
    5   35   35     -2.78      7.16
    7   35   35     -5.76     -7.01
    9   35   35      4.00     -2.38
   11   35   35     19.33     22.08
   13   35   35      0.40      1.90
   15   35   35    -12.64    -11.82
   17   35   35     -7.55      6.05
   19   35   35      8.52      7.13
    2    4   36    -26.68      6.65
    0    4   36     46.41     -1.85
    4    4   36      1.34      6.63
    4    6   36     21.25    -36.71
    2    6   36     24.00     58.62
    0    6   36    -29.04     -4.45
    6    6   36      4.81     -5.33
    6    8   36     -8.52     -8.28
    4    8   36    -13.43    -12.80
    2    8   36     14.89     12.47
    0    8   36      0.98      2.59
    8    8   36    -13.05     -2.45
    8   10   36    -18.70     -1.52
    6   10   36    -18.66     13.94
    4   10   36     -7.73      6.44
    2   10   36      2.03      3.35
    0   10   36     21.09      3.87
   10   10   36    -20.25      2.03
   10   12   36      7.55      2.63
    8   12   36     23.64     85.90
    6   12   36      7.99      7.44
    4   12   36     -4.07      8.34
    2   12   36     -8.55     23.88
    0   12   36     -2.53     -3.76
   12   12   36     14.78     -2.18
   12   14   36    -37.91     15.92
   10   14   36     11.26     33.08
    8   14   36     12.34     17.18
    6   14   36      8.53    -25.09
    4   14   36     -1.08      6.36
    2   14   36     23.16     -9.15
    0   14   36      6.35     -1.29
   14   14   36     19.00      1.05
   14   16   36    -21.36     28.57
   12   16   36      2.14     -6.04
   10   16   36    -17.69     -8.89
    8   16   36     -4.13      2.62
    6   16   36      3.69      9.42
    4   16   36    -28.52     11.47
    2   16   36      6.73    -10.74
    0   16   36     -2.62      3.34
   16   16   36     10.02      1.80
   16   18   36     23.91     10.58
   14   18   36     -5.88    -15.60
   12   18   36     11.35    -19.80
   10   18   36     -1.14      4.82
    8   18   36     22.74     -3.02
    6   18   36     -6.23     -5.47
    4   18   36     -2.03    -24.32
    2   18   36      4.54     -2.10
    0   18   36     -1.22     -5.51
   18   18   36    -34.20     -1.32
   18   20   36      5.06    -10.71
   16   20   36      6.38    -21.71
   14   20   36      3.88      2.37
   12   20   36    -13.75      0.82
   10   20   36     12.72    -11.53
    8   20   36     10.25     -6.16
    6   20   36     -0.26     -2.23
    4   20   36     -2.97      0.33
    2   20   36    -26.39      1.69
    0   20   36    -13.29      2.76
   20   20   36      1.90    -11.49
   20   22   36    -12.61      7.05
   18   22   36     -7.40      3.54
   16   22   36     32.86      7.16
   14   22   36      2.87    -14.30
   12   22   36     -0.95     -5.41
   10   22   36      7.89      7.03
    8   22   36     15.87     10.78
    6   22   36     -3.19      8.74
    4   22   36      6.92      8.74
    2   22   36    -16.60    -19.32
    0   22   36     17.61      0.37
   22   22   36     26.70      2.36
   22   24   36     19.20     18.29
   20   24   36      5.14     16.82
   18   24   36    -18.46      3.84
   16   24   36    -20.82      4.65
   14   24   36    -16.81    -15.97
   12   24   36    -37.30      0.60
   10   24   36    -10.82    -21.42
    8   24   36    -10.13    -24.51
    6   24   36    -16.69     -0.39
    4   24   36     -5.66     -8.67
    2   24   36     -4.95      2.80
    0   24   36     -9.58      1.24
   24   24   36    -22.10     -0.84
   24   26   36    -18.41     -6.42
   22   26   36      1.52     -1.09
   20   26   36    -13.22      7.63
   18   26   36     -0.24      4.17
   16   26   36      6.33      2.88
   14   26   36      8.93     23.51
   12   26   36     -9.77     -4.80
   10   26   36      5.51     16.75
    8   26   36    -10.97     -8.42
    6   26   36     11.49    -10.23
    4   26   36     -5.64      5.30
    2   26   36     -3.58      6.56
    0   26   36    -32.56     -0.29
   26   26   36     -1.76     -3.00
   26   28   36    -27.77      6.15
   24   28   36    -10.01      5.15
   22   28   36    -15.48     -7.31
   20   28   36     -7.79    -23.55
   18   28   36    -19.35     32.48
   16   28   36      6.96     15.05
   14   28   36    -21.15     -2.36
   12   28   36    -13.03     15.82
   10   28   36      2.74     15.62
    8   28   36      2.01      0.91
    6   28   36     23.11     19.19
    4   28   36    -13.79      1.28
    2   28   36      6.27     13.28
    0   28   36      6.32      0.62
   28   28   36     -2.35    -26.14
   26   30   36    -12.23     10.81
   24   30   36    -13.29    -11.76
   22   30   36     -0.24      1.85
   20   30   36     13.65     -4.93
   18   30   36      4.96    -21.57
   16   30   36     18.86    -24.08
   14   30   36     -4.96     -4.90
   12   30   36      0.05     -6.66
   10   30   36      5.63     -4.75
    8   30   36     -2.18      5.96
    6   30   36     12.49     10.82
    4   30   36     19.84     -0.70
    2   30   36     13.39      8.47
    0   30   36    -31.39     -1.92
   22   32   36     -4.25    -14.49
   20   32   36     -1.14     13.11
   18   32   36      7.52     15.70
   16   32   36      7.08     24.08
   14   32   36     14.66    -10.28
   12   32   36     11.65      5.87
   10   32   36     -7.63     13.04
    8   32   36      1.10    -11.10
    6   32   36      5.98     -9.32
    4   32   36     16.47    -11.34
    2   32   36     42.35     44.35
    0   32   36     -9.21     17.14
   20   34   36     -0.67     10.45
   18   34   36     -3.20     -1.30
   16   34   36      7.90      9.29
   14   34   36     -5.08     11.44
   12   34   36      5.49     -3.55
   10   34   36     -4.85      1.75
    8   34   36      0.85      0.55
    6   34   36     11.74      3.30
    4   34   36     -6.77     -2.69
    2   34   36     -8.97     17.90
    0   34   36    -34.82     -6.43
    0   36   36     19.79     -1.51
    2   36   36     -0.73     19.23
    4   36   36    -30.04     -6.68
    6   36   36     -3.18    -21.72
    8   36   36      1.88     -2.05
   10   36   36      1.20     -0.21
   12   36   36    -25.65     -2.08
   14   36   36     -0.89     10.45
   16   36   36      3.75     -0.72
    1    3   37     38.70    -40.97
    3    3   37      0.03     -4.00
    3    5   37    -41.12    -11.51
    1    5   37      1.05     -7.97
    5    5   37      6.40     -5.96
    5    7   37    -29.24     30.96
    3    7   37      6.41     26.18
    1    7   37     10.67     14.18
    7    7   37     -1.65     17.15
    7    9   37      0.57    -34.84
    5    9   37     16.90     18.58
    3    9   37     -7.31      0.30
    1    9   37     18.36     13.20
    9    9   37     13.25    -14.22
    9   11   37    -18.62    -15.44
    7   11   37    -18.80      9.81
    5   11   37    -13.42     -0.49
    3   11   37     11.44     38.61
    1   11   37     16.11    -16.28
   11   11   37    -12.39      1.65
   11   13   37      9.16      3.00
    9   13   37     -2.60    -15.69
    7   13   37     11.22     -1.20
    5   13   37     23.55     18.08
    3   13   37     15.10     12.85
    1   13   37      1.12    -17.19
   13   13   37     -8.16     10.80
   13   15   37     -4.27    -10.95
   11   15   37      9.72      9.77
    9   15   37     13.85      9.58
    7   15   37    -13.08    -30.37
    5   15   37      5.49     -1.33
    3   15   37     10.27     25.00
    1   15   37    -33.35    -11.10
   15   15   37      5.22     -8.87
   15   17   37      7.82      9.80
   13   17   37      3.66      3.71
   11   17   37     -4.88     -2.36
    9   17   37    -11.20      2.70
    7   17   37      2.22     -2.15
    5   17   37    -12.83      9.76
    3   17   37    -13.67    -12.38
    1   17   37      3.75    -11.79
   17   17   37      9.79    -10.49
   17   19   37     -6.42     -7.28
   15   19   37     13.45     -6.64
   13   19   37    -17.54     -8.03
   11   19   37      4.95     19.45
    9   19   37     10.24     -4.89
    7   19   37     -8.07    -14.73
    5   19   37     -3.85    -13.26
    3   19   37    -25.35     13.30
    1   19   37    -10.17    -17.50
   19   19   37      5.04     -8.38
   19   21   37     -7.08      8.29
   17   21   37     -2.69     -9.38
   15   21   37     -8.31     -3.98
   13   21   37    -25.09      4.38
   11   21   37    -10.08    -22.37
    9   21   37      6.60     13.52
    7   21   37    -15.38     -6.51
    5   21   37    -17.09     -9.02
    3   21   37      4.91     11.11
    1   21   37     10.30      0.71
   21   21   37    -13.13     -1.06
   21   23   37    -33.02      0.95
   19   23   37      2.59      2.32
   17   23   37    -27.93     12.19
   15   23   37      5.27    -10.72
   13   23   37    -26.91     -0.94
   11   23   37     -2.14    -10.05
    9   23   37     -4.54      1.04
    7   23   37     -9.97     11.00
    5   23   37    -15.54     16.07
    3   23   37    -10.06     -1.02
    1   23   37     -5.35     -5.94
   23   23   37    -12.40      7.53
   23   25   37      9.52      0.55
   21   25   37     10.56     -5.27
   19   25   37      1.32     -8.41
   17   25   37      9.43    -19.15
   15   25   37     13.80     -8.61
   13   25   37      1.85     -3.17
   11   25   37     16.29    -14.72
    9   25   37      6.87     -2.64
    7   25   37      7.57    -26.28
    5   25   37    -13.54     -0.98
    3   25   37    -10.45     13.21
    1   25   37      6.78     -7.29
   25   25   37      3.50     -4.10
   25   27   37    -11.22     10.24
   23   27   37      7.11      7.27
   21   27   37     27.43     15.79
   19   27   37    -10.31      1.31
   17   27   37     13.51      0.26
   15   27   37     -3.29     -1.30
   13   27   37      4.43     26.74
   11   27   37      1.79     -4.40
    9   27   37     17.62      6.13
    7   27   37      3.02     -2.46
    5   27   37     -8.13      1.07
    3   27   37      5.66    -11.34
    1   27   37      0.72    -11.87
   27   27   37     -5.00     13.73
   25   29   37    -30.05     -5.20
   23   29   37      7.11     11.04
   21   29   37     -6.58     -9.76
   19   29   37      1.03    -16.20
   17   29   37    -11.93     -7.42
   15   29   37    -16.64    -24.46
   13   29   37      8.17     -2.32
   11   29   37    -12.19    -11.55
    9   29   37      2.96      7.55
    7   29   37      3.50      7.28
    5   29   37    -19.61     -6.78
    3   29   37    -29.08     -8.15
    1   29   37     14.66     33.96
   23   31   37     -8.70      0.87
   21   31   37    -13.93    -11.05
   19   31   37    -10.44    -27.76
   17   31   37     -6.63    -20.49
   15   31   37      1.49    -18.65
   13   31   37     -3.74      6.35
   11   31   37      1.44      5.04
    9   31   37    -28.00     12.49
    7   31   37     -7.17     10.87
    5   31   37      2.83     -5.56
    3   31   37      6.46      9.88
    1   31   37     32.80     -5.94
   19   33   37     -6.84     27.30
   17   33   37     26.80      5.46
   15   33   37      9.85     20.51
   13   33   37      3.86     -3.05
   11   33   37      1.09      7.70
    9   33   37     -2.45     10.73
    7   33   37     -4.25     14.68
    5   33   37    -11.62     -2.90
    3   33   37     -8.56     15.60
    1   33   37      5.62      4.18
   17   35   37      6.90     -5.43
   15   35   37     -6.08     -3.25
   13   35   37     12.34     22.39
   11   35   37     -2.13      1.89
    9   35   37     -6.83      0.58
    7   35   37     -9.39      1.05
    5   35   37      8.34    -33.07
    3   35   37      2.87     31.47
    1   35   37    -10.43    -11.40
    1   37   37      7.03     -6.77
    3   37   37    -15.80    -12.46
    5   37   37     -1.29      0.12
    7   37   37     11.25      9.42
    9   37   37     -4.73      8.77
   11   37   37     -4.59    -19.00
    2    4   38    -29.39    -20.18
    0    4   38    -15.65      0.65
    4    4   38     -1.15      5.70
    4    6   38     20.85     -0.49
    2    6   38     23.78     -8.53
    0    6   38     17.90     -5.37
    6    6   38      6.41      7.14
    6    8   38     -2.91     59.78
    4    8   38     -2.44     -1.83
    2    8   38    -29.31     14.11
    0    8   38    -12.41     -8.10
    8    8   38     -1.97    -15.99
    8   10   38     14.35    -48.54
    6   10   38     -3.93     27.34
    4   10   38    -10.48     -0.86
    2   10   38     -1.18      0.49
    0   10   38      2.35      3.07
   10   10   38    -13.15     18.97
   10   12   38      4.62     46.30
    8   12   38     23.61     21.15
    6   12   38    -23.14     -0.51
    4   12   38      9.10      4.89
    2   12   38     -8.99      8.13
    0   12   38    -24.58      0.48
   12   12   38      1.95    -28.88
   12   14   38      0.85    -10.81
   10   14   38     -5.89      5.41
    8   14   38     -4.88     -8.08
    6   14   38      7.55    -28.49
    4   14   38      1.45      1.54
    2   14   38     19.25     10.91
    0   14   38      6.36     -5.96
   14   14   38      0.64      4.91
   14   16   38    -17.69     -5.55
   12   16   38    -26.80    -10.13
   10   16   38     23.69      5.11
    8   16   38     -4.10     -7.61
    6   16   38      6.02     14.43
    4   16   38      9.74      2.98
    2   16   38     -2.28     -0.08
    0   16   38    -32.15     -3.71
   16   16   38     -0.95      4.03
   16   18   38     -4.37      2.87
   14   18   38     13.03     10.37
   12   18   38    -17.87    -10.53
   10   18   38      8.61     -3.58
    8   18   38      9.50    -10.73
    6   18   38      8.24     -8.86
    4   18   38      5.89    -12.84
    2   18   38     -6.29     -8.05
    0   18   38     -7.66     -6.44
   18   18   38      0.09      3.32
   18   20   38     -3.74    -37.22
   16   20   38     -0.80     13.63
   14   20   38    -10.55     10.87
   12   20   38     -6.13      0.48
   10   20   38    -12.76     -0.89
    8   20   38     18.34      0.01
    6   20   38    -22.57     -1.24
    4   20   38     18.06     -2.74
    2   20   38    -20.80     22.12
    0   20   38     10.99      0.44
   20   20   38      3.95     31.02
   20   22   38      8.61     17.01
   18   22   38    -48.76     12.69
   16   22   38    -15.33     -6.17
   14   22   38    -10.93      3.29
   12   22   38     -4.41    -22.49
   10   22   38    -26.38    -24.99
    8   22   38     -1.80     -1.50
    6   22   38    -30.10     14.70
    4   22   38    -11.93    -16.56
    2   22   38    -19.78     -2.95
    0   22   38     -3.30     -3.27
   22   22   38     -6.79    -22.24
   22   24   38     -8.11     19.99
   20   24   38      2.95     -2.17
   18   24   38     -0.90     -4.41
   16   24   38    -22.85      3.63
   14   24   38     24.86     10.85
   12   24   38      4.96     -6.12
   10   24   38    -16.71     11.22
    8   24   38      4.09     -5.57
    6   24   38     15.53     -4.76
    4   24   38     -2.42     17.01
    2   24   38     -1.91      9.27
    0   24   38      9.13     16.83
   24   24   38      2.33     -7.93
   24   26   38    -22.85    -24.58
   22   26   38      4.93     -3.54
   20   26   38     18.63     -0.79
   18   26   38    -15.83     -6.20
   16   26   38     -0.58     -4.84
   14   26   38     28.60    -12.03
   12   26   38     10.19    -22.60
   10   26   38     20.61      0.62
    8   26   38      9.95     -0.09
    6   26   38     27.30     -6.53
    4   26   38     -7.59     18.72
    2   26   38      6.10      9.98
    0   26   38    -20.44     -0.75
   26   26   38      0.30      3.03
   24   28   38      1.12     -2.71
   22   28   38     -0.50     -5.23
   20   28   38     -0.93    -10.79
   18   28   38     -4.74     22.26
   16   28   38      0.96     -9.92
   14   28   38      3.98     -2.89
   12   28   38     13.07    -21.76
   10   28   38     -4.75      9.85
    8   28   38      4.19      4.01
    6   28   38      6.41     -1.56
    4   28   38      3.40      3.79
    2   28   38     12.74    -13.23
    0   28   38     17.31     -1.43
   22   30   38    -22.04     29.15
   20   30   38      3.63     -3.45
   18   30   38     -6.17     19.90
   16   30   38     -8.14     12.60
   14   30   38    -13.89     12.97
   12   30   38     -7.17      2.73
   10   30   38    -13.83    -11.18
    8   30   38     10.87     -9.38
    6   30   38      2.89     17.92
    4   30   38    -11.29     10.61
    2   30   38     -2.95      3.97
    0   30   38     18.76     -1.60
   20   32   38      4.83      8.17
   18   32   38      6.06      0.91
   16   32   38      3.26      7.18
   14   32   38    -14.23     -0.85
   12   32   38     10.41    -10.24
   10   32   38     -5.50     12.79
    8   32   38     -6.03      5.63
    6   32   38     -4.37     -3.99
    4   32   38     -3.52     -3.18
    2   32   38     17.77    -20.07
    0   32   38     27.96      3.90
   16   34   38     -4.86      9.44
   14   34   38    -17.31    -20.85
   12   34   38      4.43     -4.61
   10   34   38     -1.23      2.25
    8   34   38     -2.18     -0.73
    6   34   38     16.07    -11.34
    4   34   38     11.77     -9.40
    2   34   38    -19.28     -4.77
    0   34   38     15.79    -10.07
   12   36   38     20.65      2.09
   10   36   38      2.39     17.37
    8   36   38     -0.23      6.43
    6   36   38      2.97     -3.63
    4   36   38     -4.92      7.64
    2   36   38     12.83     -9.15
    0   36   38     32.77      1.19
    1    3   39     36.77    -10.34
    3    3   39     -8.13    -12.69
    3    5   39     -0.34     -9.46
    1    5   39     -4.99     -9.91
    5    5   39     -0.62     -7.19
    5    7   39    -19.04    -18.86
    3    7   39     23.16    -11.47
    1    7   39     18.42     -4.82
    7    7   39      3.51      0.35
    7    9   39    -10.48      7.91
    5    9   39      6.97     10.63
    3    9   39     11.44     37.82
    1    9   39     20.33      0.69
    9    9   39      1.06      3.71
    9   11   39     -9.05    -18.60
    7   11   39      3.16     12.25
    5   11   39      2.37     13.09
    3   11   39     10.93      4.50
    1   11   39     12.27      3.88
   11   11   39      1.91      4.51
   11   13   39     -9.43     -7.29
    9   13   39    -16.09     10.44
    7   13   39    -16.53     -3.17
    5   13   39    -37.02     11.76
    3   13   39      2.41     11.01
    1   13   39     -3.44     -8.70
   13   13   39     38.16     36.40
   13   15   39     11.21     -4.50
   11   15   39      1.20    -16.27
    9   15   39      3.01    -15.27
    7   15   39    -11.99     -2.30
    5   15   39    -22.88    -13.97
    3   15   39      0.91      4.91
    1   15   39      3.66     -8.24
   15   15   39      1.79     -2.08
   15   17   39    -13.64     -8.90
   13   17   39    -37.87      8.82
   11   17   39     -5.37     -5.27
    9   17   39    -23.32     -1.42
    7   17   39     11.40     13.15
    5   17   39    -29.79     -5.80
    3   17   39     -8.79      2.46
    1   17   39     23.02     18.08
   17   17   39     -6.50     -7.90
   17   19   39      5.25     17.80
   15   19   39     -3.39     -2.86
   13   19   39      4.36      9.26
   11   19   39      5.60      0.72
    9   19   39     25.87     -4.87
    7   19   39     -6.17      0.30
    5   19   39    -13.53    -14.99
    3   19   39      9.67     -4.97
    1   19   39    -11.62    -11.26
   19   19   39    -30.32     -9.88
   19   21   39      4.67    -28.19
   17   21   39     11.22      2.33
   15   21   39     20.83     -0.72
   13   21   39      5.49      0.57
   11   21   39     15.68      5.14
    9   21   39     -7.02     -4.92
    7   21   39    -10.09      3.16
    5   21   39    -28.26     21.88
    3   21   39     -5.20      1.56
    1   21   39    -17.67     15.56
   21   21   39     -3.40      3.61
   21   23   39     19.02    -21.86
   19   23   39     19.98    -21.03
   17   23   39      5.64     -2.92
   15   23   39    -22.01      8.99
   13   23   39    -24.96    -17.27
   11   23   39     12.60      1.93
    9   23   39      0.21     -4.28
    7   23   39      8.14     13.12
    5   23   39    -17.19    -21.20
    3   23   39     15.59    -16.54
    1   23   39     -0.59      0.63
   23   23   39     26.74      3.76
   23   25   39    -14.37     17.49
   21   25   39    -26.67     -4.77
   19   25   39    -16.37    -17.41
   17   25   39      8.25    -21.20
   15   25   39     10.21     19.49
   13   25   39     -1.68      2.92
   11   25   39     24.78     11.03
    9   25   39     11.86     -6.04
    7   25   39     -8.75      1.88
    5   25   39    -15.38     -7.59
    3   25   39      9.03     -0.53
    1   25   39      6.43     14.05
   25   25   39      3.68      1.48
   25   27   39     -3.39     20.79
   23   27   39    -14.00    -23.69
   21   27   39     -2.33     -7.83
   19   27   39    -38.36      9.94
   17   27   39      3.06      0.78
   15   27   39    -15.68     16.27
   13   27   39    -16.24     -9.43
   11   27   39      3.95      2.26
    9   27   39     -6.43     11.99
    7   27   39    -17.11      3.51
    5   27   39     -9.84     -9.96
    3   27   39      8.15    -11.63
    1   27   39      5.40     13.14
   21   29   39     -6.97      7.99
   19   29   39     13.39    -17.74
   17   29   39     -5.99     21.12
   15   29   39      8.05    -15.70
   13   29   39     -8.14     -4.19
   11   29   39     -7.51    -19.01
    9   29   39      1.47    -14.55
    7   29   39     -2.54     -4.57
    5   29   39     -3.46      1.97
    3   29   39      7.33     -1.44
    1   29   39      5.30     23.07
   19   31   39     -2.81    -10.16
   17   31   39     -1.74     -6.60
   15   31   39    -16.33      4.27
   13   31   39     -7.16     -7.03
   11   31   39    -18.44      3.48
    9   31   39     -7.30    -11.32
    7   31   39      8.81     -0.35
    5   31   39     -0.96     -0.55
    3   31   39     -9.87      2.32
    1   31   39     17.42      2.27
   15   33   39      5.24      0.62
   13   33   39    -40.98     -2.79
   11   33   39      2.35     -0.79
    9   33   39      2.71     -2.08
    7   33   39      0.75      1.96
    5   33   39    -18.07     19.50
    3   33   39     23.64    -10.69
    1   33   39     20.86     -7.10
   11   35   39     11.84     17.14
    9   35   39      7.89      6.92
    7   35   39      0.85     13.78
    5   35   39     13.14     27.12
    3   35   39      0.03     -4.16
    1   35   39      0.27     16.92
    0    2   40      1.68     -4.24
    2    2   40     -4.65     14.37
    2    4   40     27.92     -0.54
    0    4   40     35.39    -17.11
    4    4   40     21.34     -0.80
    4    6   40    -13.29     22.71
    2    6   40     -9.38     40.47
    0    6   40    -20.10     -1.91
    6    6   40    -15.86     -9.56
    6    8   40    -17.27    -11.12
    4    8   40      4.65     -3.57
    2    8   40    -11.41      7.58
    0    8   40     23.26     -2.28
    8    8   40     -7.76     -0.47
    8   10   40      8.51     -7.45
    6   10   40      6.04      5.16
    4   10   40    -13.48     11.15
    2   10   40     -1.23     -1.60
    0   10   40     28.34     -4.58
   10   10   40    -15.88     -3.30
   10   12   40    -13.80    -16.89
    8   12   40     25.38    -16.50
    6   12   40     -4.30     -0.22
    4   12   40    -16.14    -30.09
    2   12   40     17.39    -11.88
    0   12   40    -17.42     -1.79
   12   12   40     -8.18     -5.70
   12   14   40    -15.25    -13.12
   10   14   40      7.41    -10.71
    8   14   40      3.64      0.34
    6   14   40      4.59      4.52
    4   14   40     -5.96    -10.66
    2   14   40     -2.39     -8.46
    0   14   40     31.12      1.35
   14   14   40     -7.60      1.36
   14   16   40     -9.31    -14.32
   12   16   40      2.96     24.00
   10   16   40    -13.11      0.89
    8   16   40    -12.78      5.79
    6   16   40      6.43      9.87
    4   16   40     -2.10      3.44
    2   16   40    -20.38    -19.60
    0   16   40      2.92     10.47
   16   16   40    -18.06      1.75
   16   18   40    -24.74     10.62
   14   18   40     -7.47     -9.91
   12   18   40      5.81      7.27
   10   18   40      9.26    -12.25
    8   18   40      3.51    -11.47
    6   18   40      0.05     -4.81
    4   18   40    -31.44    -12.13
    2   18   40    -16.83      0.19
    0   18   40      1.30     -0.88
   18   18   40     22.62    -18.43
   18   20   40     -4.89    -12.29
   16   20   40    -12.42    -13.56
   14   20   40      1.85      1.87
   12   20   40     -2.07     13.94
   10   20   40      4.15     -5.80
    8   20   40     -3.53      2.62
    6   20   40     24.77     29.65
    4   20   40     21.50     18.47
    2   20   40     -8.93     11.31
    0   20   40     -0.13     -2.38
   20   20   40    -34.07     -4.54
   20   22   40     17.18     13.20
   18   22   40     19.79     -6.68
   16   22   40      7.35      7.09
   14   22   40    -17.35    -15.75
   12   22   40     14.84     -3.99
   10   22   40     -0.06    -13.21
    8   22   40     12.05      0.48
    6   22   40     -1.24     16.51
    4   22   40     -1.72    -13.62
    2   22   40     -3.44     -8.38
    0   22   40      2.79      0.50
   22   22   40     -9.05     -0.83
   22   24   40    -13.81     -5.18
   20   24   40     15.24     17.85
   18   24   40     14.58    -21.57
   16   24   40     13.11      3.04
   14   24   40      1.57      1.04
   12   24   40     -6.44     14.40
   10   24   40     -4.21     -6.66
    8   24   40      1.78     15.77
    6   24   40    -10.52    -15.26
    4   24   40     -4.43     -1.42
    2   24   40    -15.31    -15.56
    0   24   40     13.22      0.87
   24   24   40     14.43      9.48
   24   26   40     -1.70     -7.38
   22   26   40    -26.82     -6.79
   20   26   40    -17.20     26.59
   18   26   40     -7.45     17.24
   16   26   40    -19.23      8.31
   14   26   40    -40.99     14.48
   12   26   40     -6.94     -6.23
   10   26   40    -20.41     -7.75
    8   26   40     -7.66     12.54
    6   26   40     -7.07     -4.46
    4   26   40      5.00    -15.87
    2   26   40     10.03    -17.18
    0   26   40     10.69     -2.79
   22   28   40     -6.76     -0.58
   20   28   40    -10.13    -29.85
   18   28   40      1.35     15.53
   16   28   40    -21.60    -24.48
   14   28   40      2.47    -17.15
   12   28   40    -13.35     19.51
   10   28   40    -13.17     -3.83
    8   28   40    -18.33     13.69
    6   28   40      1.03    -11.92
    4   28   40     -3.50      3.12
    2   28   40     -1.85      7.47
    0   28   40    -25.43     -1.52
   18   30   40     23.38      2.69
   16   30   40     -3.33    -31.46
   14   30   40    -13.15     17.74
   12   30   40     -5.47    -19.72
   10   30   40      6.44     -8.14
    8   30   40     -0.13     -5.73
    6   30   40     -0.42     -4.61
    4   30   40     24.72     10.65
    2   30   40      8.91     -5.82
    0   30   40      4.51     -0.01
   16   32   40     15.66     -2.67
   14   32   40     28.20     -4.35
   12   32   40      0.52     -1.96
   10   32   40    -14.62    -15.52
    8   32   40      6.33      0.50
    6   32   40     -5.01      4.64
    4   32   40     21.38     -2.89
    2   32   40     14.59      3.83
    0   32   40      7.48      3.23
   10   34   40    -20.49     -0.64
    8   34   40      0.38     -1.21
    6   34   40     12.82    -10.15
    4   34   40      0.66      4.83
    2   34   40     -9.12      8.60
    0   34   40      4.11      0.86
    1    3   41    -13.87     24.46
    3    3   41      9.32     -6.73
    3    5   41      1.84     -9.91
    1    5   41    -11.45     -8.95
    5    5   41    -22.51     23.13
    5    7   41     21.21     -0.17
    3    7   41     26.09     21.06
    1    7   41     -1.70     29.58
    7    7   41     -6.25      3.67
    7    9   41    -25.58     -4.84
    5    9   41    -24.31      9.93
    3    9   41      9.90      1.37
    1    9   41     -1.19     -5.84
    9    9   41    -25.09     23.94
    9   11   41    -10.80    -27.79
    7   11   41    -16.68    -14.83
    5   11   41     30.34    -16.25
    3   11   41    -11.02     -4.59
    1   11   41      3.41      3.04
   11   11   41    -15.22     13.13
   11   13   41      8.90     -4.96
    9   13   41     -1.85      1.35
    7   13   41     -6.99     -0.58
    5   13   41      6.62     10.39
    3   13   41      7.98     14.85
    1   13   41      5.75      6.39
   13   13   41     -2.28      6.03
   13   15   41     16.42     -8.55
   11   15   41    -14.46     21.56
    9   15   41      4.90      0.02
    7   15   41      0.77      2.33
    5   15   41      1.87     22.24
    3   15   41     -6.72    -12.87
    1   15   41     -3.72     50.14
   15   15   41     -3.21      0.53
   15   17   41      4.72      2.02
   13   17   41     -0.37     -7.30
   11   17   41     12.96     -7.62
    9   17   41     -9.44     -1.78
    7   17   41     12.56      1.18
    5   17   41     12.27      8.38
    3   17   41    -14.01     18.94
    1   17   41     -0.49      6.67
   17   17   41     23.56    -13.72
   17   19   41    -13.94      5.27
   15   19   41      7.96     -1.18
   13   19   41      7.89     -7.97
   11   19   41     -2.26    -14.45
    9   19   41     -1.28     -0.41
    7   19   41      0.41      3.24
    5   19   41     -4.41     17.28
    3   19   41     -2.38      3.96
    1   19   41      3.69     10.04
   19   19   41      5.28     -7.75
   19   21   41     -7.83     25.47
   17   21   41     20.58      5.65
   15   21   41      0.75      4.14
   13   21   41     11.17    -13.53
   11   21   41     -6.61      1.78
    9   21   41      8.09     -2.00
    7   21   41      0.71     10.89
    5   21   41      2.94      0.44
    3   21   41    -15.64     10.01
    1   21   41     20.89     19.08
   21   21   41     -9.71      8.65
   21   23   41      1.67     -3.10
   19   23   41      6.43     13.68
   17   23   41    -31.45      0.22
   15   23   41     17.52     -2.44
   13   23   41     14.67    -13.79
   11   23   41    -11.94      9.24
    9   23   41     13.20    -16.52
    7   23   41      2.46    -14.82
    5   23   41     -0.11     -0.67
    3   23   41     -5.71     15.43
    1   23   41      3.81     -3.32
   23   23   41      8.67     -8.48
   23   25   41    -13.92     -5.38
   21   25   41      9.58     18.25
   19   25   41     -6.37     25.18
   17   25   41      8.10     11.57
   15   25   41     -2.98     29.54
   13   25   41     -8.43      5.64
   11   25   41    -14.71     -5.53
    9   25   41     -1.62     -1.33
    7   25   41      3.93     -9.03
    5   25   41     -2.97      5.06
    3   25   41     -2.93     12.16
    1   25   41     17.62     -6.00
   21   27   41     30.01    -12.58
   19   27   41    -11.71      3.67
   17   27   41      0.56    -36.46
   15   27   41    -16.11     15.46
   13   27   41     -6.72    -11.08
   11   27   41      0.70    -12.25
    9   27   41     18.69    -17.08
    7   27   41      3.12     -6.60
    5   27   41      6.39     -6.59
    3   27   41      1.78     -6.57
    1   27   41     11.67      3.66
   19   29   41      3.93    -19.65
   17   29   41    -29.64    -10.70
   15   29   41    -19.06     -4.77
   13   29   41      2.27     -0.62
   11   29   41     -5.73     -2.33
    9   29   41      0.69     -7.07
    7   29   41     -5.64      2.48
    5   29   41      8.52    -16.30
    3   29   41    -18.07     13.51
    1   29   41      8.32     11.97
   15   31   41      6.56     -0.07
   13   31   41    -13.53     10.84
   11   31   41     -2.15      6.85
    9   31   41      3.43      8.51
    7   31   41     -3.92     -3.58
    5   31   41     -5.75      5.32
    3   31   41     -1.60      8.53
    1   31   41      4.65      9.93
    9   33   41      4.64     10.26
    7   33   41      8.63      2.39
    5   33   41    -10.71     21.65
    3   33   41     11.44      1.18
    1   33   41     16.87     10.56
    0    2   42     -4.72     -3.41
    2    2   42     -3.67     29.20
    2    4   42     26.95    -36.82
    0    4   42    -35.70      4.94
    4    4   42      2.61      8.61
    4    6   42      2.14     12.97
    2    6   42      0.65     -0.16
    0    6   42    -18.81      0.40
    6    6   42      2.73     11.12
    6    8   42     12.21    -21.63
    4    8   42    -16.91      0.97
    2    8   42     41.59    -13.81
    0    8   42     33.06     -2.35
    8    8   42      4.03     11.63
    8   10   42    -17.70     17.17
    6   10   42    -16.98      1.15
    4   10   42    -28.13     -3.86
    2   10   42     10.96      9.16
    0   10   42      4.62      1.06
   10   10   42      0.93     -7.50
   10   12   42     23.06      6.26
    8   12   42     -2.13      2.90
    6   12   42      2.40    -39.62
    4   12   42     -2.61      9.62
    2   12   42     38.07     -2.12
    0   12   42      3.10     16.62
   12   12   42     -0.91     -3.30
   12   14   42     26.26     -0.66
   10   14   42    -18.98    -36.03
    8   14   42     11.79     16.82
    6   14   42    -13.14     -5.49
    4   14   42     -3.05     -2.67
    2   14   42    -12.11      7.55
    0   14   42     16.77     -0.95
   14   14   42     -0.15    -13.79
   14   16   42     -5.37      1.92
   12   16   42    -16.17     -4.57
   10   16   42    -12.72    -12.23
    8   16   42      6.46     -4.29
    6   16   42    -10.32     -5.13
    4   16   42     12.21     15.46
    2   16   42    -21.64     10.76
    0   16   42      6.25      0.60
   16   16   42     -0.89      8.78
   16   18   42      0.48     -6.51
   14   18   42      5.62      5.79
   12   18   42    -20.71      0.07
   10   18   42      8.25     -4.34
    8   18   42     -6.27     16.90
    6   18   42      6.61     -3.83
    4   18   42     -9.06     25.18
    2   18   42     20.30    -16.72
    0   18   42     -1.73      2.18
   18   18   42     -0.69      8.56
   18   20   42     23.86      8.25
   16   20   42     27.64      0.77
   14   20   42     10.43      9.10
   12   20   42      0.91      1.42
   10   20   42     -8.08      6.53
    8   20   42     -8.63      1.81
    6   20   42     -3.73      2.64
    4   20   42    -23.95    -26.56
    2   20   42     22.00      4.44
    0   20   42    -15.69     -0.80
   20   20   42     -1.67     12.66
   20   22   42      4.72     23.05
   18   22   42    -11.72     31.85
   16   22   42    -13.77     -2.14
   14   22   42    -26.17     -4.71
   12   22   42     -1.13     26.24
   10   22   42     -6.94     -4.48
    8   22   42     -0.57     -3.07
    6   22   42    -15.12     -7.42
    4   22   42    -10.94    -12.31
    2   22   42      5.00    -13.93
    0   22   42     13.49      1.76
   22   22   42     -0.32    -19.56
   22   24   42      3.72    -23.68
   20   24   42     -6.80      8.17
   18   24   42    -33.10     -5.60
   16   24   42     12.04     10.38
   14   24   42      3.89     -4.52
   12   24   42      2.11      8.92
   10   24   42      3.56      3.41
    8   24   42     -5.22     13.72
    6   24   42     12.10     -7.87
    4   24   42      2.62      3.08
    2   24   42      6.08     32.45
    0   24   42      5.85     10.74
   20   26   42      4.03    -15.76
   18   26   42     30.98     -5.55
   16   26   42     14.88     22.54
   14   26   42     35.36    -31.76
   12   26   42      6.78     13.46
   10   26   42     18.00    -17.92
    8   26   42      0.31      0.69
    6   26   42     -6.16      4.15
    4   26   42     -2.04      5.79
    2   26   42      9.05    -21.63
    0   26   42     26.76      2.17
   18   28   42    -13.28     27.19
   16   28   42     19.47     23.45
   14   28   42    -11.85     12.79
   12   28   42      2.39    -11.36
   10   28   42      1.21     10.86
    8   28   42      3.56      4.31
    6   28   42     -8.79     -8.59
    4   28   42      0.36      7.95
    2   28   42    -15.37     10.17
    0   28   42     -1.03    -24.58
   14   30   42     -1.37     11.86
   12   30   42    -15.60      8.15
   10   30   42      1.72     10.27
    8   30   42     -8.70     -3.12
    6   30   42     -3.76      7.27
    4   30   42      0.30     -5.81
    2   30   42      7.17      6.83
    0   30   42      8.27      0.40
    8   32   42     -8.32     -1.50
    6   32   42     -2.70     19.86
    4   32   42    -18.25    -16.48
    2   32   42     10.69     10.11
    0   32   42    -44.12     -1.46
    1    1   43     27.26     12.98
    1    3   43    -11.06      3.74
    3    3   43    -19.90    -23.26
    3    5   43    -18.67     10.64
    1    5   43      6.77    -24.10
    5    5   43      3.31     -0.13
    5    7   43    -11.48     -5.73
    3    7   43    -31.85     12.98
    1    7   43    -18.21      1.18
    7    7   43     -7.56     -6.50
    7    9   43     -6.95    -19.25
    5    9   43    -12.01      1.67
    3    9   43    -31.36     -4.11
    1    9   43     -0.69     -6.60
    9    9   43     -8.58     -7.94
    9   11   43     -2.14     -0.22
    7   11   43     17.06    -37.72
    5   11   43      4.52     38.18
    3   11   43     -5.35      4.03
    1   11   43     13.61      0.16
   11   11   43     13.36     14.07
   11   13   43     -7.80      2.67
    9   13   43      8.11      9.15
    7   13   43     12.93      3.07
    5   13   43     -6.41      9.97
    3   13   43      4.40     -1.07
    1   13   43      0.14     21.21
   13   13   43     16.83     11.76
   13   15   43      7.38      9.14
   11   15   43     -2.83      9.49
    9   15   43     23.79      0.40
    7   15   43     -3.92     -3.14
    5   15   43      3.32     19.19
    3   15   43    -10.68     -8.68
    1   15   43     15.96      6.14
   15   15   43     18.02     -9.91
   15   17   43    -13.95      4.44
   13   17   43     -3.94     -6.78
   11   17   43     19.16     -6.67
    9   17   43     16.83     -1.31
    7   17   43      1.24     -3.67
    5   17   43      5.74    -17.80
    3   17   43    -47.73    -12.40
    1   17   43     10.36      7.55
   17   17   43     -3.31      6.21
   17   19   43    -15.05     10.25
   15   19   43     -0.26     -4.33
   13   19   43     -3.61     -6.70
   11   19   43    -16.06      4.73
    9   19   43     -7.05      5.60
    7   19   43     -1.12    -10.36
    5   19   43    -23.02      1.25
    3   19   43     10.73      3.86
    1   19   43    -13.63      2.19
   19   19   43    -13.32     -6.69
   19   21   43     25.04     -0.24
   17   21   43     19.80     -0.81
   15   21   43     -5.99      8.35
   13   21   43     -6.63    -20.80
   11   21   43      5.44     -9.23
    9   21   43     22.96     -0.89
    7   21   43     16.95      2.61
    5   21   43     -4.26      2.30
    3   21   43    -24.48    -11.61
    1   21   43     11.86     28.92
   21   21   43    -14.82    -17.10
   21   23   43     -9.82      2.18
   19   23   43     36.89     -4.77
   17   23   43     -2.77     15.36
   15   23   43    -14.68    -12.50
   13   23   43     15.71     -2.30
   11   23   43      0.51     -0.19
    9   23   43     -9.88     12.30
    7   23   43    -13.75     -6.77
    5   23   43      5.07     16.88
    3   23   43     -5.86     20.79
    1   23   43     -4.71    -17.90
   19   25   43     10.14     -7.36
   17   25   43     26.67     -6.00
   15   25   43     -7.44      3.72
   13   25   43     10.21      6.40
   11   25   43     -6.10      2.48
    9   25   43      0.05     -3.38
    7   25   43     -4.57      3.52
    5   25   43     -7.54     -7.72
    3   25   43     16.22      3.28
    1   25   43     12.61     -7.13
   17   27   43      9.87     21.13
   15   27   43     -0.95    -25.55
   13   27   43     20.41     -1.79
   11   27   43     15.13    -11.34
    9   27   43      5.98      4.09
    7   27   43     -4.35     -2.27
    5   27   43      4.73     17.65
    3   27   43    -11.97    -11.18
    1   27   43      2.04     -9.09
   13   29   43     -7.02    -19.44
   11   29   43     -1.76      3.80
    9   29   43      2.34     -6.04
    7   29   43     -2.00      8.26
    5   29   43     -4.07     -5.25
    3   29   43    -25.18     15.46
    1   29   43      3.91    -10.69
    7   31   43    -11.52      0.14
    5   31   43     -9.69      1.23
    3   31   43     -7.99     17.08
    1   31   43     14.66    -22.47
    0    2   44     43.65    -16.58
    2    2   44     -8.14    -31.85
    2    4   44     19.17    -23.46
    0    4   44     13.49      3.50
    4    4   44     23.53     19.31
    4    6   44     -3.84     18.53
    2    6   44     23.35     19.59
    0    6   44     16.30      2.56
    6    6   44      4.31      9.20
    6    8   44     18.18     -8.52
    4    8   44     -9.60     -2.62
    2    8   44      5.86     -2.34
    0    8   44      7.72      1.29
    8    8   44      0.64      2.20
    8   10   44     -4.82    -10.04
    6   10   44     11.07    -14.18
    4   10   44     12.35     11.92
    2   10   44     -2.74     -4.90
    0   10   44      3.71     -2.97
   10   10   44     28.98     -6.22
   10   12   44      1.87     -5.92
    8   12   44     26.15    -22.43
    6   12   44     -0.27     11.79
    4   12   44      5.63     -4.65
    2   12   44     11.23     12.05
    0   12   44     -0.44      0.06
   12   12   44     -4.91      0.37
   12   14   44      3.32     -7.01
   10   14   44     -9.23    -12.35
    8   14   44    -15.26      8.60
    6   14   44    -13.32      2.59
    4   14   44      8.57      5.12
    2   14   44    -11.38      3.42
    0   14   44     14.50     -3.06
   14   14   44      9.33     -1.05
   14   16   44    -10.36      5.35
   12   16   44     -1.67      3.64
   10   16   44     -7.45     14.53
    8   16   44      7.79    -17.18
    6   16   44    -16.27     -0.24
    4   16   44     -4.78     25.15
    2   16   44    -21.27    -24.03
    0   16   44      9.72     -3.89
   16   16   44     -2.73     -0.13
   16   18   44     -7.95      3.12
   14   18   44     -5.54    -12.51
   12   18   44     -5.70     -1.10
   10   18   44    -10.47     20.00
    8   18   44    -22.17      5.13
    6   18   44      0.59      1.45
    4   18   44      1.41     19.47
    2   18   44      3.65      9.11
    0   18   44    -40.95     -0.71
   18   18   44     -7.87     -1.38
   18   20   44     19.69     19.32
   16   20   44     13.48      2.95
   14   20   44     -3.15      9.54
   12   20   44      5.45      0.38
   10   20   44     -8.38      0.54
    8   20   44     -6.67    -21.62
    6   20   44      5.14     18.17
    4   20   44    -25.10      3.27
    2   20   44     12.12    -17.73
    0   20   44    -56.53     -0.08
   20   20   44    -29.29     -8.50
   20   22   44     19.03     -4.96
   18   22   44     25.20     -3.03
   16   22   44     12.79    -13.04
   14   22   44     15.18      5.79
   12   22   44     -7.07     -9.30
   10   22   44     17.64     15.02
    8   22   44    -11.62     -6.65
    6   22   44      0.30     14.29
    4   22   44      2.83     19.04
    2   22   44     25.64     -1.32
    0   22   44     31.73      3.10
   18   24   44     28.80     -0.19
   16   24   44      9.89      9.28
   14   24   44     30.53     -2.79
   12   24   44     23.57    -11.35
   10   24   44      0.79    -10.93
    8   24   44      2.32      5.67
    6   24   44     19.47     -2.41
    4   24   44     21.99    -11.26
    2   24   44      8.28     -6.30
    0   24   44     12.17      0.99
   16   26   44     29.07      5.87
   14   26   44      8.79     22.22
   12   26   44     26.52     20.86
   10   26   44     -2.19     28.66
    8   26   44      2.01     -4.98
    6   26   44     -7.73     13.51
    4   26   44     -8.05     -9.11
    2   26   44    -18.93    -12.74
    0   26   44      0.90      5.25
   12   28   44     -2.09      7.42
   10   28   44      3.75     13.54
    8   28   44     21.40     -0.95
    6   28   44     12.20      4.14
    4   28   44      2.02     -1.37
    2   28   44     -5.91      1.94
    0   28   44      3.90     -6.50
    6   30   44     -1.96      0.75
    4   30   44      2.44     16.40
    2   30   44    -12.59     -3.99
    0   30   44     -2.45     -0.54
    1    1   45    -17.13     15.81
    1    3   45      2.95    -12.21
    3    3   45    -14.98      0.87
    3    5   45    -16.27      1.62
    1    5   45      5.69     13.67
    5    5   45     11.62    -10.34
    5    7   45     -3.25    -16.76
    3    7   45     14.46     23.60
    1    7   45     -9.98     35.41
    7    7   45     -6.20      7.62
    7    9   45     -7.63    -14.03
    5    9   45     -4.83    -13.42
    3    9   45     12.98     -3.57
    1    9   45     12.24    -21.42
    9    9   45     -3.39      4.89
    9   11   45    -15.53      0.67
    7   11   45      3.60    -13.30
    5   11   45    -15.81      6.45
    3   11   45      9.37      0.18
    1   11   45     -6.61    -20.54
   11   11   45     11.10     -0.83
   11   13   45     36.32     16.86
    9   13   45     15.84      9.13
    7   13   45      2.38     -0.52
    5   13   45      2.73    -25.30
    3   13   45     -0.78     -7.48
    1   13   45    -13.03     -2.85
   13   13   45     21.82    -22.52
   13   15   45     11.99     11.51
   11   15   45    -11.32     -3.86
    9   15   45     14.50    -25.51
    7   15   45     -9.71     -3.73
    5   15   45     -8.21      2.31
    3   15   45      5.74     18.70
    1   15   45    -12.27     -4.20
   15   15   45     -2.00      9.40
   15   17   45     -9.17     -2.62
   13   17   45    -21.22    -19.22
   11   17   45     28.03    -20.03
    9   17   45     -3.59     15.01
    7   17   45      3.88    -25.64
    5   17   45      9.76      3.18
    3   17   45    -17.24      6.97
    1   17   45     -6.43      1.19
   17   17   45     -4.49      5.99
   17   19   45     -6.06     -3.65
   15   19   45     -0.43     -4.06
   13   19   45     -4.48     -2.18
   11   19   45     -2.78     -8.90
    9   19   45      1.26     -9.25
    7   19   45     -0.32     18.23
    5   19   45     -0.74     13.57
    3   19   45     14.32     15.09
    1   19   45    -14.59     12.94
   19   19   45    -12.83     17.08
   19   21   45    -12.97      2.79
   17   21   45     13.38     14.58
   15   21   45    -21.44     -0.15
   13   21   45    -11.87      7.71
   11   21   45     14.70     -1.97
    9   21   45     -1.49      7.17
    7   21   45    -33.80      4.46
    5   21   45    -27.85     -6.30
    3   21   45    -23.47     12.62
    1   21   45    -22.59      4.99
   17   23   45      9.57     33.00
   15   23   45     11.98     12.00
   13   23   45      5.58     -3.32
   11   23   45      5.13      5.18
    9   23   45     -7.02     -3.67
    7   23   45    -12.12    -13.18
    5   23   45    -13.64     21.24
    3   23   45     -0.81     -2.33
    1   23   45    -17.39     -6.85
   15   25   45      4.95    -13.26
   13   25   45    -14.64      6.65
   11   25   45      8.78    -17.77
    9   25   45     14.52      2.72
    7   25   45     -8.15     -9.21
    5   25   45    -17.47    -14.79
    3   25   45     30.55      6.00
    1   25   45    -24.93      6.94
   11   27   45      5.47     -5.07
    9   27   45     -3.87     -7.30
    7   27   45     -3.29      1.58
    5   27   45    -13.42     19.86
    3   27   45      5.14     -0.13
    1   27   45     -4.55     25.58
    3   29   45    -13.99     14.65
    1   29   45    -17.43      3.76
    0    2   46     17.27    -17.85
    2    2   46     -0.08     -0.88
    2    4   46    -27.10    -18.18
    0    4   46    -33.35     -3.00
    4    4   46     -3.45      2.60
    4    6   46     18.16    -15.16
    2    6   46      9.60    -19.14
    0    6   46     25.86     -0.14
    6    6   46     -3.46     -0.92
    6    8   46      3.72     -3.38
    4    8   46      1.78     -1.95
    2    8   46    -22.83     -9.70
    0    8   46     21.78     -0.36
    8    8   46      0.13     -0.35
    8   10   46      1.84     -2.20
    6   10   46     -5.32    -13.47
    4   10   46      3.82      7.19
    2   10   46      5.00    -12.12
    0   10   46     30.36     -2.98
   10   10   46      6.09     -1.08
   10   12   46     18.49     30.84
    8   12   46     -0.05    -13.64
    6   12   46      6.63      0.30
    4   12   46      7.41    -15.50
    2   12   46      2.03     16.17
    0   12   46     -6.52     11.05
   12   12   46     -2.70      6.51
   12   14   46     13.77     -3.39
   10   14   46     -2.32      8.74
    8   14   46     -6.43     -8.37
    6   14   46     -2.10     15.88
    4   14   46     -5.58     -1.27
    2   14   46    -27.05     26.95
    0   14   46    -21.87     -3.57
   14   14   46     -4.10      4.84
   14   16   46    -12.32     -7.21
   12   16   46    -16.67      1.87
   10   16   46     -0.27    -20.43
    8   16   46      2.33     -7.41
    6   16   46     -4.24      3.83
    4   16   46    -10.70     -7.21
    2   16   46    -13.48    -10.59
    0   16   46      1.55     -1.17
   16   16   46      4.93      0.22
   16   18   46      7.32      0.61
   14   18   46     11.78      5.69
   12   18   46     -3.15      3.88
   10   18   46     -1.15     19.76
    8   18   46    -15.51    -25.67
    6   18   46    -10.27     17.34
    4   18   46      9.37     11.74
    2   18   46     20.17     12.27
    0   18   46    -31.93      0.20
   18   18   46      2.17    -15.51
   18   20   46     14.72     11.74
   16   20   46     -3.60    -16.16
   14   20   46      1.58     -4.44
   12   20   46      5.67      1.91
   10   20   46      8.30     -3.05
    8   20   46    -14.84     14.23
    6   20   46     14.84    -10.49
    4   20   46      0.43    -14.77
    2   20   46     26.36     -9.64
    0   20   46     12.19     -4.82
   16   22   46     -3.57     -2.59
   14   22   46     18.80     20.44
   12   22   46      7.67      6.60
   10   22   46     12.68      0.67
    8   22   46      2.84     -4.68
    6   22   46     -3.41     15.84
    4   22   46     -0.86     25.12
    2   22   46    -16.00     -2.82
    0   22   46     -0.65      0.45
   12   24   46     -0.63     -5.34
   10   24   46      0.50     10.81
    8   24   46    -16.27     23.63
    6   24   46    -10.79     -9.15
    4   24   46     12.08    -21.80
    2   24   46    -39.41     -2.40
    0   24   46      6.70      3.28
    8   26   46      8.16    -20.78
    6   26   46     -2.02     12.61
    4   26   46     -3.80     -8.07
    2   26   46     34.76      1.80
    0   26   46      6.93     -0.77
    1    1   47      0.93     10.32
    1    3   47     12.82     -0.17
    3    3   47     12.88      0.42
    3    5   47    -27.10    -26.31
    1    5   47    -12.05     22.34
    5    5   47      5.79      1.58
    5    7   47     -7.79    -14.33
    3    7   47    -10.98      8.32
    1    7   47     -1.00      3.28
    7    7   47     -5.90     -4.45
    7    9   47     -2.12     21.72
    5    9   47     17.35     -3.56
    3    9   47     15.28      6.04
    1    9   47     15.11    -19.34
    9    9   47    -19.68    -17.97
    9   11   47     -5.04    -27.22
    7   11   47      3.54      9.11
    5   11   47     -3.40      5.21
    3   11   47    -13.82     22.63
    1   11   47     -8.84    -14.94
   11   11   47      2.81      5.92
   11   13   47     16.35     -1.45
    9   13   47     23.56    -20.23
    7   13   47      4.14      8.31
    5   13   47     -3.34     -6.15
    3   13   47     20.02      7.98
    1   13   47    -11.33     11.26
   13   13   47     20.72      1.68
   13   15   47     -3.64      7.86
   11   15   47      9.07    -18.21
    9   15   47      8.36      0.81
    7   15   47     -5.17     18.34
    5   15   47     12.79     11.14
    3   15   47     -4.79     -0.20
    1   15   47     16.87     -3.43
   15   15   47      1.07     -1.37
   15   17   47    -15.77     11.98
   13   17   47    -10.35      3.07
   11   17   47      5.03      0.09
    9   17   47    -15.02      0.90
    7   17   47      7.16     -7.77
    5   17   47     -2.07    -15.11
    3   17   47    -13.02      6.00
    1   17   47      0.68    -22.47
   17   17   47     -3.60     -3.97
   17   19   47     -5.53     -0.73
   15   19   47     32.89      3.94
   13   19   47      3.56     -4.34
   11   19   47      9.26     -3.37
    9   19   47     -9.04      0.14
    7   19   47     13.72     -8.22
    5   19   47    -21.57     -4.90
    3   19   47    -10.43     -2.25
    1   19   47    -19.78      4.20
   15   21   47     -3.42      2.57
   13   21   47     -4.72     -3.83
   11   21   47    -13.41      9.81
    9   21   47    -13.00      4.49
    7   21   47     -3.61     -1.52
    5   21   47     -0.50      6.26
    3   21   47    -25.32     -3.93
    1   21   47    -10.07     10.51
   11   23   47    -15.05      7.58
    9   23   47     -9.85     11.14
    7   23   47     -4.59     -5.34
    5   23   47     -0.97      8.97
    3   23   47    -27.00     30.79
    1   23   47      0.32    -29.33
    7   25   47     -4.75     -3.37
    5   25   47    -12.96      1.07
    3   25   47     13.49    -14.69
    1   25   47     -6.74     17.52
    0    0   48    -17.00    -56.62
    0    2   48     33.57     -0.63
    2    2   48     21.89      6.47
    2    4   48      8.20    -18.86
    0    4   48     -0.72    -23.08
    4    4   48     -7.74      3.94
    4    6   48     13.08     -0.33
    2    6   48      7.15      9.40
    0    6   48     -1.02      2.06
    6    6   48    -32.21      4.90
    6    8   48      2.74    -25.55
    4    8   48     -8.19      7.27
    2    8   48     -7.05      1.65
    0    8   48     -8.20    -16.30
    8    8   48    -11.64     -1.81
    8   10   48      2.38     -9.63
    6   10   48     -8.79     -6.73
    4   10   48     -8.63     -0.89
    2   10   48     -0.35     -4.76
    0   10   48     -7.31      5.68
   10   10   48     33.04      8.17
   10   12   48     -3.26     -7.85
    8   12   48      6.81     -2.57
    6   12   48      4.29      4.45
    4   12   48     -6.61     -8.18
    2   12   48     -8.37      4.66
    0   12   48      7.45     -0.58
   12   12   48    -16.70     -0.87
   12   14   48     32.62      1.62
   10   14   48     18.51     -8.41
    8   14   48    -17.64    -22.84
    6   14   48     -2.55     -7.95
    4   14   48     -0.27     -7.68
    2   14   48      2.78      5.39
    0   14   48     -0.14      0.16
   14   14   48      8.42     -1.76
   14   16   48      8.64      5.04
   12   16   48      1.88      8.78
   10   16   48     13.66     -1.23
    8   16   48     12.39      1.11
    6   16   48     19.61      4.75
    4   16   48     -6.11      2.26
    2   16   48     -1.77     -9.93
    0   16   48     23.67     -1.57
   16   16   48     14.71     -5.53
   16   18   48     -0.53     20.72
   14   18   48    -22.82     21.92
   12   18   48     19.90      6.91
   10   18   48      5.62     -5.31
    8   18   48     10.42      6.62
    6   18   48      6.74      5.41
    4   18   48     -0.76      3.60
    2   18   48      1.61      2.41
    0   18   48    -31.39      1.20
   12   20   48    -11.10     -0.11
   10   20   48     -1.27      4.37
    8   20   48     -5.45     -0.63
    6   20   48    -10.76      9.49
    4   20   48      4.31     -4.68
    2   20   48      2.71     -3.66
    0   20   48      0.18      1.92
    8   22   48      7.76     -6.81
    6   22   48     -6.75    -16.86
    4   22   48     15.55     13.18
    2   22   48    -16.19      0.94
    0   22   48      9.31      0.70
    2   24   48     11.18      7.41
    0   24   48     30.83     -3.16
    1    1   49    -22.56     -4.45
    1    3   49     -1.76    -21.62
    3    3   49      0.78    -20.66
    3    5   49      8.64      4.01
    1    5   49     43.41      8.87
    5    5   49     23.34      5.93
    5    7   49      1.94     28.48
    3    7   49     21.86      9.11
    1    7   49    -10.90      6.92
    7    7   49      4.05      0.53
    7    9   49     -3.68     -1.90
    5    9   49    -18.68      8.52
    3    9   49      2.69      6.38
    1    9   49      3.20    -19.74
    9    9   49     -2.15      4.20
    9   11   49     -5.35    -21.35
    7   11   49     15.98     -5.87
    5   11   49      2.05      5.82
    3   11   49      4.08     -7.91
    1   11   49      4.65      0.16
   11   11   49    -10.00     10.49
   11   13   49    -19.37      5.08
    9   13   49      2.44     18.43
    7   13   49     -8.24    -11.22
    5   13   49      9.88      1.72
    3   13   49     11.97     11.18
    1   13   49      8.32     -5.67
   13   13   49      8.12     -8.35
   13   15   49     10.48      7.65
   11   15   49      3.62     -2.42
    9   15   49     17.99     -7.99
    7   15   49     -4.12     -5.67
    5   15   49      8.41     -1.81
    3   15   49      4.84      5.78
    1   15   49     -7.68     -9.56
   15   15   49      7.66     -8.23
   13   17   49    -18.59    -25.43
   11   17   49      1.91     -3.17
    9   17   49    -14.08     11.63
    7   17   49     18.09    -18.23
    5   17   49     -3.85     -2.77
    3   17   49     -0.03     23.56
    1   17   49     -0.73     10.87
   11   19   49     -2.54     -4.23
    9   19   49      5.90      0.22
    7   19   49     -6.84     17.73
    5   19   49    -18.82      4.33
    3   19   49      8.94     -3.87
    1   19   49     -3.73     20.98
    5   21   49     11.17    -13.63
    3   21   49     -2.90     20.13
    1   21   49      1.51     21.86
    0    2   50     10.77      2.74
    2    2   50     -0.96      5.86
    2    4   50     -9.72    -20.37
    0    4   50     17.54     -0.64
    4    4   50      1.44    -22.51
    4    6   50    -21.72    -15.77
    2    6   50     10.18      1.85
    0    6   50     -2.90     39.93
    6    6   50     -5.79     37.70
    6    8   50    -10.35      1.96
    4    8   50      3.50     -5.58
    2    8   50      3.30      5.17
    0    8   50     -4.70     -7.22
    8    8   50     -0.70      2.22
    8   10   50     -9.82     10.56
    6   10   50    -11.48    -17.91
    4   10   50     -6.82    -12.21
    2   10   50      6.17     -5.78
    0   10   50     14.90      0.37
   10   10   50      2.95     -4.81
   10   12   50      9.63      2.56
    8   12   50     -4.39      0.33
    6   12   50      0.38     18.09
    4   12   50      0.98     -3.77
    2   12   50      2.88      2.39
    0   12   50    -14.72     -0.69
   12   12   50      3.54     -4.52
   12   14   50     11.98      6.92
   10   14   50     14.35      5.48
    8   14   50     -2.26     30.38
    6   14   50      3.93    -11.93
    4   14   50      1.88      9.61
    2   14   50     -2.97      9.75
    0   14   50     16.33      0.68
   10   16   50    -30.52     -4.11
    8   16   50      6.34     -2.12
    6   16   50     -4.95      5.51
    4   16   50      6.69      4.59
    2   16   50     -0.87     -4.48
    0   16   50    -14.30      1.91
    6   18   50      0.77    -30.61
    4   18   50     20.95     -5.23
    2   18   50     15.04     -0.96
    0   18   50      6.19      1.60
    1    1   51    -17.55     20.86
    1    3   51    -24.55    -30.15
    3    3   51     30.64      4.01
    3    5   51     -1.12    -12.33
    1    5   51    -11.37     21.34
    5    5   51    -15.23    -14.59
    5    7   51     14.23    -13.92
    3    7   51     18.96    -13.50
    1    7   51      6.71     24.76
    7    7   51    -11.63    -10.32
    7    9   51     -4.53     -2.26
    5    9   51      8.81      4.75
    3    9   51      0.54      2.26
    1    9   51      2.38     -6.61
    9    9   51      1.67      7.54
    9   11   51     15.46    -11.94
    7   11   51     14.44     13.77
    5   11   51      9.56      8.74
    3   11   51      6.29     -2.39
    1   11   51      7.68     18.43
   11   11   51     17.22     17.12
    9   13   51     -1.11     -6.80
    7   13   51    -18.57     21.08
    5   13   51     -4.76      9.20
    3   13   51      7.85      3.13
    1   13   51     -4.59      2.77
    7   15   51     -9.04     -1.01
    5   15   51      3.59    -13.14
    3   15   51     -8.04      2.17
    1   15   51     -1.16     -2.67
    0    0   52     31.52    -17.15
    0    2   52    -31.88     -1.53
    2    2   52     -0.18      5.21
    2    4   52     15.56    -16.26
    0    4   52     -3.45     13.13
    4    4   52      6.60     40.72
    4    6   52      7.00     11.33
    2    6   52    -14.85      0.19
    0    6   52     17.71     -8.98
    6    6   52    -17.67     -3.98
    6    8   52     -7.01     -1.15
    4    8   52      1.76      8.71
    2    8   52      7.94    -10.27
    0    8   52      0.77     -7.23
    8    8   52      1.92      1.90
    8   10   52      3.02      9.00
    6   10   52      3.05      5.32
    4   10   52      2.43      7.62
    2   10   52      6.81      3.83
    0   10   52    -16.14      0.00
    4   12   52     -9.22      5.60
    2   12   52     -4.19      5.33
    0   12   52     -8.51     -1.87
    1    1   53     -8.52    -30.61
    1    3   53     13.07    -17.52
    3    3   53     12.42    -29.32
    3    5   53    -32.34      0.33
    1    5   53     12.06     29.31
    5    5   53    -18.51     15.91
    5    7   53     10.67      9.34
    3    7   53      5.99      5.24
    1    7   53     16.35    -18.12
    1    1    1    126.26   -138.07
    0    2    2  -1860.86    232.54
    2    2    2    137.86   -438.57
    1    1    3     31.97    -10.96
    1    3    3     74.36    -72.36
    0    0    4   2169.51     43.86
    0    2    4    -37.66    -26.17
    2    4    4     62.01   1120.16
    4    4    4  -2643.47   -276.96
    1    1    5    210.56   -210.02
    2    2    6      2.11    136.50
    4    4    6    -12.71   -612.79
    0    0    8   1875.01     17.76
    2    4    8    -45.17    443.50
    4    4    8   1218.44   -150.93
    6    6    8   -105.77    -33.10
    2    8    8    -33.07   -264.49
    8    8    8    -34.07     17.89
    6    6   10     33.82   -339.70
    0    0   12   1127.32     22.39
    1    1   31     21.45     27.69
    0    0   32    -79.75     -5.50
    0    2   32     46.94      0.50
    2    2   32     45.12     12.80
    1    1   33     17.12    -20.44
   29   31   33    -13.02     -1.39
   27   33   33     27.53     29.30
    0    2   34     48.63     -0.38
    2    2   34     -1.23      2.63
   24   34   34     -0.95      1.41
    1    1   35      8.90     10.40
   29   29   35      9.19     19.13
   27   31   35    -19.57     34.56
   21   35   35     -6.00     15.05
    0    0   36     17.38     -7.40
    0    2   36     21.10     -4.22
    2    2   36     -2.59     -6.98
   24   32   36     -9.81     15.77
   18   36   36     -1.90      1.78
    1    1   37    -10.34      1.06
   21   33   37     19.68      8.34
   13   37   37      2.33      4.73
    0    2   38      5.82      5.39
    2    2   38      1.87     17.95
   26   28   38    -15.68     -3.02
   24   30   38     10.38    -12.26
   18   34   38      1.29     -6.05
    0   38   38    -13.71     -2.37
    2   38   38      0.54    -12.75
    4   38   38      5.91      0.47
    6   38   38     -2.66     -2.64
    1    1   39     33.71     41.54
   23   29   39      5.49      3.83
   21   31   39      2.68     -8.06
   17   33   39     -2.76     16.74
   13   35   39     11.14     -0.98
    1   37   39     -9.12    -14.98
    3   37   39     -4.24      7.87
    5   37   39    -17.50     13.40
    0    0   40    -67.47     -8.15
   20   30   40     10.97     32.84
   12   34   40      2.58     -0.98
    0   36   40     30.90      0.75
    2   36   40    -18.26     -4.55
    4   36   40      4.61      5.99
    6   36   40      0.42     -8.35
    1    1   41      0.05     -6.68
   25   25   41      3.72     -1.96
   17   31   41    -24.16     -2.69
   11   33   41     -1.30      7.71
    1   35   41      4.10     27.75
    3   35   41      1.55     -6.58
    5   35   41    -11.03      6.88
   24   24   42     -1.08     15.05
   22   26   42     33.76    -14.59
   16   30   42     -9.84     11.59
   10   32   42     -1.88      0.48
   12   32   42    -22.55    -32.68
    0   34   42     13.16      0.50
    2   34   42      3.74     16.11
   23   23   43     28.39     22.34
   21   25   43     -7.60      8.97
   15   29   43     -6.24      5.62
    9   31   43    -15.07      5.22
   11   31   43    -18.97     -0.01
    0    0   44    -76.07      2.26
   22   22   44     16.39      5.78
   20   24   44     11.94      6.62
   14   28   44      6.68     -3.67
    8   30   44    -32.63     -3.89
   21   21   45     11.83     -9.27
   19   23   45      5.09      0.97
   13   27   45    -11.73     -8.78
    5   29   45      6.18     -7.50
    7   29   45    -17.42      1.25
   20   20   46      3.04      9.63
   18   22   46     28.38      1.91
   14   24   46     13.70    -10.72
   10   26   46      0.53     -1.31
    0   28   46     -4.12     -2.87
    2   28   46     11.10      0.22
    4   28   46      8.80      9.25
   19   19   47     -0.20      3.91
   13   23   47     -2.49     -9.09
    9   25   47      3.44      1.24
   14   20   48      6.86     -8.96
   10   22   48      9.42    -38.51
   12   22   48    -14.83    -11.46
    4   24   48     13.00     -3.70
    6   24   48      2.07     -4.44
   15   17   49      7.67     11.14
   13   19   49     -5.78     -0.64
    7   21   49     -9.28      6.92
    9   21   49     -3.77      8.19
    1   23   49      3.09    -11.93
   14   14   50     -1.84      9.10
   12   16   50      0.13      1.15
    8   18   50      7.94    -28.75
   10   18   50     14.99    -23.76
    0   20   50      3.26      0.06
    2   20   50      3.02     -1.82
    4   20   50     17.16     12.27
   11   13   51     -1.97     -4.45
    9   15   51     -1.32     -9.33
    1   17   51     16.57     -4.91
    3   17   51     -0.82      8.71
    5   17   51     21.69      9.89
   10   10   52     -7.26      2.56
    6   12   52     -7.25     -0.36
    8   12   52      2.07      4.10
    0   14   52     19.10     -1.02
    2   14   52      9.94     -2.76
    4   14   52     11.92      7.80
    7    7   53    -10.63     14.42
    1    9   53     11.07      8.57
    3    9   53    -15.32     -6.52
    5    9   53     -6.04     -4.65
    1   11   53      3.35      3.78
    0    2   54     -2.38     -1.75
    2    2   54      0.83     -9.09
    0    4   54     22.63      6.58
    0    0    0      0.00      0.00
# SQUEEZE RESULTS (Version = 230318)
# Note: Data are Listed for all Voids in the P1 Unit Cell
# i.e. Centre of Gravity, Solvent Accessible Volume,
# Recovered number of Electrons in the Void and
# Details about the Squeezed Material
loop_
  _platon_squeeze_void_nr
  _platon_squeeze_void_average_x
  _platon_squeeze_void_average_y
  _platon_squeeze_void_average_z
  _platon_squeeze_void_volume
  _platon_squeeze_void_count_electrons
  _platon_squeeze_void_content
   1 -0.001 -0.017 -0.003     56662     22945 '10[(CH3)2NH2] 20(CH3)2NCHO 35H2O'
# Missing Reflections Below sin(th)/lambda = 0.25
loop_
  _platon_missing_refln_index_h
  _platon_missing_refln_index_k
  _platon_missing_refln_index_l
  _platon_missing_refln_theta
    1    1    1     0.782
    0    2    2     1.276
    2    2    2     1.563
    1    1    3     1.497
    1    3    3     1.967
    0    0    4     1.805
    0    2    4     2.018
    2    4    4     2.709
    4    4    4     3.128
    1    1    5     2.345
    2    2    6     2.995
    4    4    6     3.724
    0    0    8     3.612
    2    4    8     4.139
    4    4    8     4.426
    6    6    8     5.270
    2    8    8     5.192
    8    8    8     6.265
    6    6   10     5.929
    0    0   12     5.423
_platon_squeeze_void_probe_radius                  1.20
_platon_squeeze_details
)
TITL f4132     F 41 3 2     R = 0.20
CELL   45.1207   45.1207   45.1207     90.00     90.00     90.00
SPGR F4132
# Solvent Accessible Volume =     56631
# Electrons Found in S.A.V. =     22576
# Note: Atoms in Void are Labelled as Cxxx and Qxxx for all Others
Q101 0.143 0.412 0.003 !       2.58 eA-3
Q102 0.089 0.173 0.234 !       2.54 eA-3
C103 0.429 0.039 0.239 !       2.46 eA-3
C104 0.032 0.222 0.117 !       2.40 eA-3
C105 0.283 0.370 0.040 !       2.34 eA-3
C106 0.096 0.060 0.234 !       2.09 eA-3
C107 0.665 0.463 0.208 !       2.06 eA-3
C108 0.658 0.105 0.015 !       2.01 eA-3
C109 0.244 0.244 0.244 !       1.99 eA-3
C110 0.404 0.043 0.234 !       1.92 eA-3
C111 0.338 0.262 0.433 !       1.89 eA-3
C112 0.518 0.089 0.301 !       1.84 eA-3
C113 0.250 0.074 0.069 !       1.83 eA-3
C114 0.549 0.126 0.488 !       1.75 eA-3
C115 0.049 0.626 0.488 !       1.75 eA-3
C116 0.750 0.250 0.250 !       1.74 eA-3
C117 0.260 0.456 0.356 !       1.72 eA-3
C118 0.934 0.144 0.003 !       1.71 eA-3
C119 0.657 0.305 0.492 !       1.70 eA-3
C120 0.493 0.157 0.805 !       1.69 eA-3
C121 0.538 0.116 0.489 !       1.69 eA-3
C122 0.984 0.040 0.104 !       1.64 eA-3
C123 0.656 0.486 0.325 !       1.64 eA-3
C124 0.156 0.486 0.825 !       1.64 eA-3
C125 0.327 0.156 0.983 !       1.63 eA-3
C126 0.764 0.016 0.355 !       1.59 eA-3
C127 0.488 0.303 0.348 !       1.59 eA-3
C128 0.529 0.125 0.496 !       1.59 eA-3
C129 0.265 0.017 0.892 !       1.59 eA-3
C130 0.294 0.512 0.361 !       1.59 eA-3
C131 0.794 0.012 0.361 !       1.59 eA-3
C132 0.596 0.059 0.239 !       1.58 eA-3
C133 0.614 0.265 0.185 !       1.57 eA-3
C134 0.417 0.214 0.415 !       1.56 eA-3
C135 0.320 0.490 0.165 !       1.56 eA-3
C136 0.820 0.490 0.665 !       1.56 eA-3
C137 0.165 0.320 0.488 !       1.55 eA-3
C138 0.610 0.221 0.070 !       1.55 eA-3
C139 0.168 0.312 0.004 !       1.54 eA-3
C140 0.908 0.216 0.400 !       1.53 eA-3
C141 0.088 0.034 0.243 !       1.53 eA-3
Q142 0.238 0.357 0.453 !       1.53 eA-3
C143 0.219 0.012 0.106 !       1.51 eA-3
C144 0.914 0.053 0.249 !       1.50 eA-3
Q145 0.731 0.386 0.079 !       1.48 eA-3
C146 0.617 0.544 0.722 !       1.48 eA-3
C147 0.117 0.544 0.222 !       1.48 eA-3
C148 0.617 0.044 0.222 !       1.48 eA-3
C149 0.504 0.121 0.496 !       1.47 eA-3
C150 0.998 0.304 0.835 !       1.47 eA-3
C151 0.748 0.084 0.066 !       1.47 eA-3
C152 0.759 0.007 0.376 !       1.46 eA-3
C153 0.260 0.017 0.347 !       1.46 eA-3
C154 0.865 0.032 0.281 !       1.44 eA-3
C155 0.957 0.226 0.381 !       1.44 eA-3
C156 0.769 0.079 0.897 !       1.43 eA-3
C157 0.053 0.250 0.913 !       1.42 eA-3
Q158 0.237 0.376 0.434 !       1.42 eA-3
C159 0.348 0.257 0.002 !       1.41 eA-3
C160 0.285 0.452 0.350 !       1.41 eA-3
C161 0.875 0.278 0.305 !       1.40 eA-3
C162 0.241 0.495 0.851 !       1.40 eA-3
C163 0.223 0.261 0.165 !       1.39 eA-3
Q164 0.489 0.112 0.213 !       1.38 eA-3
C165 0.059 0.360 0.251 !       1.37 eA-3
C166 0.589 0.239 0.080 !       1.35 eA-3
Q167 0.922 0.386 0.237 !       1.35 eA-3
C168 0.856 0.283 0.280 !       1.34 eA-3
C169 0.781 0.782 0.857 !       1.34 eA-3
C170 0.246 0.012 0.359 !       1.34 eA-3
C171 0.418 0.252 0.056 !       1.33 eA-3
C172 0.066 0.216 0.094 !       1.33 eA-3
C173 0.076 0.074 0.427 !       1.33 eA-3
C174 0.289 0.057 0.161 !       1.33 eA-3
C175 0.516 0.374 0.275 !       1.32 eA-3
C176 0.016 0.358 0.270 !       1.32 eA-3
C177 0.364 0.270 0.790 !       1.32 eA-3
C178 0.263 0.045 0.371 !       1.31 eA-3
C179 0.496 0.278 0.345 !       1.30 eA-3
C180 0.368 0.264 0.795 !       1.30 eA-3
C181 0.270 0.493 0.366 !       1.30 eA-3
C182 0.891 0.089 0.261 !       1.30 eA-3
C183 0.774 0.268 0.347 !       1.29 eA-3
C184 0.207 0.470 0.160 !       1.28 eA-3
Q185 0.684 0.136 0.485 !       1.28 eA-3
C186 0.946 0.245 0.163 !       1.26 eA-3
C187 0.294 0.280 0.363 !       1.24 eA-3
C188 0.233 0.441 0.343 !       1.24 eA-3
C189 0.350 0.492 0.264 !       1.24 eA-3
C190 0.058 0.359 0.264 !       1.24 eA-3
C191 0.765 0.354 0.986 !       1.24 eA-3
C192 0.888 0.503 0.270 !       1.22 eA-3
Q193 0.805 0.015 0.909 !       1.22 eA-3
C194 0.688 0.476 0.129 !       1.22 eA-3
C195 0.758 0.379 0.072 !       1.22 eA-3
C196 0.023 0.137 0.290 !       1.22 eA-3
C197 0.012 0.038 0.427 !       1.17 eA-3
C198 0.512 0.538 0.427 !       1.17 eA-3
Q199 0.488 0.131 0.189 !       1.16 eA-3
)
;
_shelx_fab_checksum              65704
loop_
_space_group_symop_operation_xyz
'x, y, z'
'-x, -y+1/2, z+1/2'
'-x+1/2, y+1/2, -z'
'x+1/2, -y, -z+1/2'
'z, x, y'
'z+1/2, -x, -y+1/2'
'-z, -x+1/2, y+1/2'
'-z+1/2, x+1/2, -y'
'y, z, x'
'-y+1/2, z+1/2, -x'
'y+1/2, -z, -x+1/2'
'-y, -z+1/2, x+1/2'
'y+3/4, x+1/4, -z+3/4'
'-y+1/4, -x+1/4, -z+1/4'
'y+1/4, -x+3/4, z+3/4'
'-y+3/4, x+3/4, z+1/4'
'x+3/4, z+1/4, -y+3/4'
'-x+3/4, z+3/4, y+1/4'
'-x+1/4, -z+1/4, -y+1/4'
'x+1/4, -z+3/4, y+3/4'
'z+3/4, y+1/4, -x+3/4'
'z+1/4, -y+3/4, x+3/4'
'-z+3/4, y+3/4, x+1/4'
'-z+1/4, -y+1/4, -x+1/4'
'x, y+1/2, z+1/2'
'-x, -y+1, z+1'
'-x+1/2, y+1, -z+1/2'
'x+1/2, -y+1/2, -z+1'
'z, x+1/2, y+1/2'
'z+1/2, -x+1/2, -y+1'
'-z, -x+1, y+1'
'-z+1/2, x+1, -y+1/2'
'y, z+1/2, x+1/2'
'-y+1/2, z+1, -x+1/2'
'y+1/2, -z+1/2, -x+1'
'-y, -z+1, x+1'
'y+3/4, x+3/4, -z+5/4'
'-y+1/4, -x+3/4, -z+3/4'
'y+1/4, -x+5/4, z+5/4'
'-y+3/4, x+5/4, z+3/4'
'x+3/4, z+3/4, -y+5/4'
'-x+3/4, z+5/4, y+3/4'
'-x+1/4, -z+3/4, -y+3/4'
'x+1/4, -z+5/4, y+5/4'
'z+3/4, y+3/4, -x+5/4'
'z+1/4, -y+5/4, x+5/4'
'-z+3/4, y+5/4, x+3/4'
'-z+1/4, -y+3/4, -x+3/4'
'x+1/2, y, z+1/2'
'-x+1/2, -y+1/2, z+1'
'-x+1, y+1/2, -z+1/2'
'x+1, -y, -z+1'
'z+1/2, x, y+1/2'
'z+1, -x, -y+1'
'-z+1/2, -x+1/2, y+1'
'-z+1, x+1/2, -y+1/2'
'y+1/2, z, x+1/2'
'-y+1, z+1/2, -x+1/2'
'y+1, -z, -x+1'
'-y+1/2, -z+1/2, x+1'
'y+5/4, x+1/4, -z+5/4'
'-y+3/4, -x+1/4, -z+3/4'
'y+3/4, -x+3/4, z+5/4'
'-y+5/4, x+3/4, z+3/4'
'x+5/4, z+1/4, -y+5/4'
'-x+5/4, z+3/4, y+3/4'
'-x+3/4, -z+1/4, -y+3/4'
'x+3/4, -z+3/4, y+5/4'
'z+5/4, y+1/4, -x+5/4'
'z+3/4, -y+3/4, x+5/4'
'-z+5/4, y+3/4, x+3/4'
'-z+3/4, -y+1/4, -x+3/4'
'x+1/2, y+1/2, z'
'-x+1/2, -y+1, z+1/2'
'-x+1, y+1, -z'
'x+1, -y+1/2, -z+1/2'
'z+1/2, x+1/2, y'
'z+1, -x+1/2, -y+1/2'
'-z+1/2, -x+1, y+1/2'
'-z+1, x+1, -y'
'y+1/2, z+1/2, x'
'-y+1, z+1, -x'
'y+1, -z+1/2, -x+1/2'
'-y+1/2, -z+1, x+1/2'
'y+5/4, x+3/4, -z+3/4'
'-y+3/4, -x+3/4, -z+1/4'
'y+3/4, -x+5/4, z+3/4'
'-y+5/4, x+5/4, z+1/4'
'x+5/4, z+3/4, -y+3/4'
'-x+5/4, z+5/4, y+1/4'
'-x+3/4, -z+3/4, -y+1/4'
'x+3/4, -z+5/4, y+3/4'
'z+5/4, y+3/4, -x+3/4'
'z+3/4, -y+5/4, x+3/4'
'-z+5/4, y+5/4, x+1/4'
'-z+3/4, -y+3/4, -x+1/4'
loop_
_atom_site_label
_atom_site_type_symbol
_atom_site_fract_x
_atom_site_fract_y
_atom_site_fract_z
_atom_site_U_iso_or_equiv
_atom_site_adp_type
_atom_site_occupancy
_atom_site_site_symmetry_order
_atom_site_calc_flag
_atom_site_refinement_flags_posn
_atom_site_refinement_flags_adp
_atom_site_refinement_flags_occupancy
Zn1 Zn 1.0000 0.0000 0.23274(3) 0.1425(8) Uani 1 2 d S TU P
Zn2 Zn 0.83898(4) 0.10282(4) 0.12620(4) 0.1551(8) Uani 1 1 d . U .
C1 C 0.9067(3) -0.0580(3) 0.0939(2) 0.124(3) Uani 1 1 d D U .
C2 C 0.90196(16) -0.01411(15) 0.12754(15) 0.133(3) Uani 1 1 d DG U .
C3 C 0.89001(14) 0.01428(17) 0.12733(14) 0.120(3) Uani 1 1 d G U .
H3 H 0.8759 0.0196 0.1127 0.144 Uiso 1 1 calc R U .
C4 C 0.89876(16) 0.03483(13) 0.14854(16) 0.127(3) Uani 1 1 d DG U .
C5 C 0.91945(17) 0.02700(16) 0.16997(14) 0.135(3) Uani 1 1 d G U .
H5 H 0.9254 0.0410 0.1845 0.162 Uiso 1 1 calc R U .
C6 C 0.93140(15) -0.00140(18) 0.17019(14) 0.137(3) Uani 1 1 d DG U .
C7 C 0.92266(17) -0.02195(13) 0.14897(17) 0.128(3) Uani 1 1 d G U .
H7 H 0.9308 -0.0414 0.1491 0.153 Uiso 1 1 calc R U .
C8 C 0.8861(3) 0.0643(3) 0.1477(3) 0.139(3) Uani 1 1 d D U .
C9 C 0.9540(3) -0.0111(3) 0.1918(2) 0.134(3) Uani 1 1 d D U .
C10 C 0.6787(3) 0.1452(2) 0.1812(3) 0.130(3) Uani 1 1 d D U .
C11 C 0.71319(15) 0.10365(15) 0.19069(18) 0.134(4) Uani 1 1 d DG U .
C12 C 0.71271(16) 0.07674(17) 0.20567(18) 0.160(5) Uani 1 1 d G U .
H12 H 0.6966 0.0720 0.2183 0.191 Uiso 1 1 calc R U .
C13 C 0.73586(19) 0.05672(13) 0.20211(18) 0.155(5) Uani 1 1 d DG U .
C14 C 0.75948(16) 0.06362(14) 0.18358(18) 0.144(4) Uani 1 1 d G U .
H14 H 0.7753 0.0499 0.1812 0.173 Uiso 1 1 calc R U .
C15 C 0.75996(14) 0.09054(15) 0.16860(16) 0.128(3) Uani 1 1 d DG U .
C16 C 0.73681(16) 0.11055(12) 0.17216(16) 0.128(3) Uani 1 1 d G U .
H16 H 0.7371 0.1289 0.1619 0.153 Uiso 1 1 calc R U .
C17 C 0.7367(4) 0.0287(4) 0.2194(4) 0.209(8) Uani 1 1 d D U .
C18 C 0.7848(3) 0.0994(3) 0.1500(3) 0.137(3) Uani 1 1 d D U .
N1 N 0.9311(2) -0.0685(2) 0.10645(16) 0.123(2) Uani 1 1 d D U .
N2 N 0.8939(2) -0.03352(18) 0.1046(2) 0.133(3) Uani 1 1 d D U .
H2 H 0.8772 -0.0287 0.0957 0.159 Uiso 1 1 calc R U .
N3 N 0.65603(19) 0.1584(2) 0.1949(2) 0.131(3) Uani 1 1 d D U .
N4 N 0.6909(2) 0.1212(2) 0.1952(2) 0.155(4) Uani 1 1 d D U .
H4 H 0.6810 0.1164 0.2113 0.186 Uiso 1 1 calc R U .
O1 O 0.8680(2) 0.06901(18) 0.1273(2) 0.155(3) Uani 1 1 d D U .
O2 O 0.89616(19) 0.08384(18) 0.16694(19) 0.145(3) Uani 1 1 d D U .
O3 O 0.9658(2) 0.0108(2) 0.20786(16) 0.160(3) Uani 1 1 d D U .
O4 O 0.9625(2) -0.0356(2) 0.19372(17) 0.159(3) Uani 1 1 d D U .
O5 O 0.7138(3) 0.0239(3) 0.2363(3) 0.207(5) Uani 1 1 d D U .
O6 O 0.7534(3) 0.01026(19) 0.2147(3) 0.230(6) Uani 1 1 d D U .
O7 O 0.80816(18) 0.08271(17) 0.15160(19) 0.143(3) Uani 1 1 d D U .
O8 O 0.78540(18) 0.1231(2) 0.1347(2) 0.159(3) Uani 1 1 d D U .
O9 O 0.86121(13) 0.13879(13) 0.13879(13) 0.145(4) Uani 1 3 d S TU P
loop_
_atom_site_aniso_label
_atom_site_aniso_U_11
_atom_site_aniso_U_22
_atom_site_aniso_U_33
_atom_site_aniso_U_23
_atom_site_aniso_U_13
_atom_site_aniso_U_12
Zn1 0.189(2) 0.1697(18) 0.0689(9) 0.000 0.000 -0.0158(13)
Zn2 0.1446(12) 0.1643(14) 0.1563(13) -0.0271(10) 0.0280(9) 0.0470(9)
C1 0.105(7) 0.153(8) 0.112(8) -0.032(7) 0.003(5) 0.014(6)
C2 0.129(8) 0.137(7) 0.133(8) -0.034(6) 0.000(6) -0.003(6)
C3 0.107(6) 0.135(6) 0.117(6) -0.024(5) 0.018(5) 0.023(5)
C4 0.125(8) 0.131(7) 0.124(7) -0.029(6) 0.020(5) 0.023(6)
C5 0.153(9) 0.141(7) 0.111(7) -0.007(6) 0.014(5) -0.010(6)
C6 0.186(10) 0.149(8) 0.077(6) -0.001(5) 0.001(5) 0.002(7)
C7 0.142(8) 0.137(8) 0.104(7) -0.008(5) 0.011(5) -0.007(6)
C8 0.155(9) 0.136(7) 0.126(8) -0.009(6) 0.010(6) 0.016(7)
C9 0.153(9) 0.167(9) 0.083(6) -0.010(6) 0.019(5) 0.001(7)
C10 0.131(8) 0.115(7) 0.144(9) 0.028(6) 0.032(6) 0.024(6)
C11 0.159(9) 0.113(7) 0.131(8) 0.034(6) 0.030(6) 0.034(6)
C12 0.173(10) 0.134(8) 0.171(11) 0.053(8) 0.033(8) 0.045(7)
C13 0.170(10) 0.121(8) 0.174(11) 0.041(7) 0.020(7) 0.051(7)
C14 0.160(9) 0.107(7) 0.165(10) 0.005(6) 0.001(7) 0.056(6)
C15 0.138(7) 0.100(6) 0.147(9) -0.022(5) 0.021(6) 0.028(5)
C16 0.142(7) 0.110(6) 0.131(8) 0.015(6) 0.018(6) 0.045(6)
C17 0.182(13) 0.176(13) 0.268(18) 0.094(11) 0.043(11) 0.085(11)
C18 0.151(8) 0.136(8) 0.125(8) -0.022(6) 0.023(6) 0.060(7)
N1 0.126(7) 0.151(8) 0.093(5) -0.026(5) -0.004(5) 0.015(5)
N2 0.124(7) 0.143(6) 0.132(7) -0.039(5) -0.017(5) 0.020(5)
N3 0.110(6) 0.118(6) 0.166(7) 0.052(6) 0.014(5) 0.020(4)
N4 0.157(8) 0.152(7) 0.156(8) 0.066(6) 0.053(6) 0.046(6)
O1 0.149(7) 0.168(6) 0.149(6) -0.044(5) 0.007(5) 0.069(5)
O2 0.161(6) 0.134(6) 0.140(6) -0.035(4) 0.021(5) 0.021(5)
O3 0.194(8) 0.190(7) 0.095(5) -0.009(5) -0.022(5) -0.015(6)
O4 0.213(9) 0.165(7) 0.099(5) 0.004(5) -0.017(5) 0.005(6)
O5 0.179(9) 0.185(9) 0.257(13) 0.091(9) 0.030(8) 0.039(7)
O6 0.280(13) 0.112(6) 0.297(14) 0.073(7) 0.102(11) 0.081(7)
O7 0.129(5) 0.130(5) 0.168(6) -0.008(4) 0.023(4) 0.056(4)
O8 0.143(6) 0.159(7) 0.175(8) 0.017(5) 0.057(5) 0.053(5)
O9 0.145(4) 0.145(4) 0.145(4) -0.031(3) 0.031(3) 0.031(3)
loop_
_atom_type_symbol
_atom_type_description
_atom_type_scat_dispersion_real
_atom_type_scat_dispersion_imag
_atom_type_scat_source
C C 0.0033 0.0016 'International Tables Vol C Tables 4.2.6.8 and 6.1.1.4'
H H 0.0000 0.0000 'International Tables Vol C Tables 4.2.6.8 and 6.1.1.4'
N N 0.0061 0.0033 'International Tables Vol C Tables 4.2.6.8 and 6.1.1.4'
O O 0.0106 0.0060 'International Tables Vol C Tables 4.2.6.8 and 6.1.1.4'
Zn Zn 0.2839 1.4301 'International Tables Vol C Tables 4.2.6.8 and 6.1.1.4'
loop_
_geom_angle_atom_site_label_1
_geom_angle_atom_site_label_2
_geom_angle_atom_site_label_3
_geom_angle
_geom_angle_site_symmetry_1
_geom_angle_site_symmetry_3
O3 Zn1 O3 110.5(5) . 26_744
O3 Zn1 O6 102.3(5) . 44_544
O3 Zn1 O6 119.1(4) 26_744 44_544
O3 Zn1 O6 119.1(4) . 18_645
O3 Zn1 O6 102.3(5) 26_744 18_645
O6 Zn1 O6 104.4(7) 44_544 18_645
O3 Zn1 C17 98.2(6) . 44_544
O3 Zn1 C17 141.1(5) 26_744 44_544
O6 Zn1 C17 25.6(5) 44_544 44_544
O6 Zn1 C17 84.9(6) 18_645 44_544
O3 Zn1 C17 141.2(5) . 18_645
O3 Zn1 C17 98.2(6) 26_744 18_645
O6 Zn1 C17 84.9(6) 44_544 18_645
O6 Zn1 C17 25.6(5) 18_645 18_645
C17 Zn1 C17 72.1(11) 44_544 18_645
O2 Zn2 O9 109.5(3) 31_654 .
O2 Zn2 O1 97.5(4) 31_654 .
O9 Zn2 O1 106.5(4) . .
O2 Zn2 O7 118.5(4) 31_654 .
O9 Zn2 O7 123.5(3) . .
O1 Zn2 O7 95.4(4) . .
N1 C1 N2 119.9(11) . .
N1 C1 N1 125.9(9) . 80_535
N2 C1 N1 114.0(11) . 80_535
C3 C2 C7 120.0 . .
C3 C2 N2 118.0(6) . .
C7 C2 N2 121.9(6) . .
C4 C3 C2 120.0 . .
C5 C4 C3 120.0 . .
C5 C4 C8 121.0(8) . .
C3 C4 C8 118.9(8) . .
C6 C5 C4 120.0 . .
C5 C6 C7 120.0 . .
C5 C6 C9 123.1(7) . .
C7 C6 C9 116.9(7) . .
C6 C7 C2 120.0 . .
O1 C8 O2 126.7(11) . .
O1 C8 C4 115.5(11) . .
O2 C8 C4 117.6(11) . .
O4 C9 O3 121.8(12) . .
O4 C9 C6 123.7(12) . .
O3 C9 C6 114.4(11) . .
N3 C10 N3 127.4(9) . 77_545
N3 C10 N4 116.6(10) . .
N3 C10 N4 114.7(10) 77_545 .
N4 C11 C12 116.5(6) . .
N4 C11 C16 123.5(6) . .
C12 C11 C16 120.0 . .
C11 C12 C13 120.0 . .
C14 C13 C12 120.0 . .
C14 C13 C17 119.2(8) . .
C12 C13 C17 120.7(8) . .
C15 C14 C13 120.0 . .
C14 C15 C16 120.0 . .
C14 C15 C18 122.2(6) . .
C16 C15 C18 117.7(6) . .
C15 C16 C11 120.0 . .
O6 C17 O5 120.8(15) . .
O6 C17 C13 122.5(15) . .
O5 C17 C13 115.5(12) . .
O6 C17 Zn1 50.0(8) . 41_444
O5 C17 Zn1 74.6(8) . 41_444
C13 C17 Zn1 167.6(13) . 41_444
O8 C18 O7 119.9(11) . .
O8 C18 C15 124.2(9) . .
O7 C18 C15 115.7(10) . .
C1 N1 C1 114.0(10) . 59
C1 N2 C2 132.0(10) . .
C10 N3 C10 111.4(10) . 57_554
C11 N4 C10 136.4(10) . .
C8 O1 Zn2 124.8(8) . .
C8 O2 Zn2 125.5(9) . 82_546
C9 O3 Zn1 115.9(9) . .
C17 O6 Zn1 104.5(11) . 41_444
C18 O7 Zn2 105.5(8) . .
Zn2 O9 Zn2 108.8(3) . 82_546
Zn2 O9 Zn2 108.8(3) . 31_654
Zn2 O9 Zn2 108.8(3) 82_546 31_654
loop_
_geom_bond_atom_site_label_1
_geom_bond_atom_site_label_2
_geom_bond_distance
_geom_bond_site_symmetry_2
Zn1 O3 1.970(9) .
Zn1 O3 1.970(9) 26_744
Zn1 O6 2.026(11) 44_544
Zn1 O6 2.026(11) 18_645
Zn1 C17 2.562(13) 44_544
Zn1 C17 2.562(13) 18_645
Zn2 O2 1.931(9) 31_654
Zn2 O9 1.991(4) .
Zn2 O1 2.011(7) .
Zn2 O7 2.018(9) .
C1 N1 1.327(13) .
C1 N2 1.340(11) .
C1 N1 1.380(12) 80_535
C2 C3 1.3900 .
C2 C7 1.3900 .
C2 N2 1.403(10) .
C3 C4 1.3900 .
C4 C5 1.3900 .
C4 C8 1.447(12) .
C5 C6 1.3900 .
C6 C7 1.3900 .
C6 C9 1.478(12) .
C8 O1 1.253(15) .
C8 O2 1.316(14) .
C9 O4 1.173(14) .
C9 O3 1.338(15) .
C10 N3 1.334(13) .
C10 N3 1.355(12) 77_545
C10 N4 1.368(12) .
C11 N4 1.296(10) .
C11 C12 1.3900 .
C11 C16 1.3900 .
C12 C13 1.3900 .
C13 C14 1.3900 .
C13 C17 1.487(13) .
C14 C15 1.3900 .
C15 C16 1.3900 .
C15 C18 1.455(12) .
C17 O6 1.142(15) .
C17 O5 1.301(17) .
C17 Zn1 2.562(13) 41_444
C18 O8 1.274(14) .
C18 O7 1.300(13) .
N1 C1 1.380(12) 59
N3 C10 1.355(12) 57_554
O2 Zn2 1.931(9) 82_546
O6 Zn1 2.026(11) 41_444
O9 Zn2 1.991(4) 82_546
O9 Zn2 1.991(4) 31_654
