#------------------------------------------------------------------------------
#$Date: 2019-11-17 10:45:22 +0200 (Sun, 17 Nov 2019) $
#$Revision: 229414 $
#$URL: file:///home/coder/svn-repositories/cod/cif/7/04/72/7047218.cif $
#------------------------------------------------------------------------------
#
# This file is available in the Crystallography Open Database (COD),
# http://www.crystallography.net/
#
# All data on this site have been placed in the public domain by the
# contributors.
#
data_7047218
loop_
_publ_author_name
'Fernandes, Tamires S.'
'Melo, Wanessa D. C.'
'Kalinke, Lucas H. G.'
'Rabelo, Renato'
'Valdo, Ana K.'
'da Silva, Cameron C.'
'Martins, Felipe T.'
'Amor\'os, Pedro'
'Lloret, Francesc'
'Julve, Miguel'
'Cangussu, Danielle'
_publ_section_title
;
 2D and 3D mixed M<sup>II</sup>/Cu<sup>II</sup> metal-organic frameworks
 (M = Ca and Sr) with N,N'-2,6-pyridinebis(oxamate) and oxalate:
 preparation and magneto-structural study.
;
_journal_issue                   33
_journal_name_full
'Dalton transactions (Cambridge, England : 2003)'
_journal_page_first              11539
_journal_page_last               11553
_journal_paper_doi               10.1039/c8dt01686k
_journal_volume                  47
_journal_year                    2018
_chemical_formula_sum            'C100 H118 Cu12 N36 O97 Sr8'
_chemical_formula_weight         4839.87
_space_group_crystal_system      monoclinic
_space_group_IT_number           15
_space_group_name_Hall           '-C 2yc'
_space_group_name_H-M_alt        'C 1 2/c 1'
_symmetry_space_group_name_Hall  '-C 2yc'
_symmetry_space_group_name_H-M   'C 1 2/c 1'
_atom_sites_solution_hydrogens   mixed
_audit_creation_method           SHELXL-2014/7
_audit_update_record
;
2018-07-05 deposited with the CCDC.
2018-07-23 downloaded from the CCDC.
;
_cell_angle_alpha                90
_cell_angle_beta                 106.657(4)
_cell_angle_gamma                90
_cell_formula_units_Z            2
_cell_length_a                   26.2280(15)
_cell_length_b                   20.5339(13)
_cell_length_c                   21.4349(13)
_cell_measurement_reflns_used    5088
_cell_measurement_temperature    296(2)
_cell_measurement_theta_max      21.26
_cell_measurement_theta_min      2.55
_cell_volume                     11059.6(12)
_computing_cell_refinement       'SAINT (Bruker, 2002)'
_computing_data_collection       'Collect (Bruker AXS BV, 1997-2004)'
_computing_molecular_graphics
;
ORTEPIII (Farrugia, 2012), Mercury (Macrae, 2008)
;
_computing_publication_material
;
SHELXL-2014/7 (Sheldrick, 2015), WinGX (Farrugia, 2012)
;
_computing_structure_refinement  'SHELXL-2014 (Sheldrick, 2014)'
_computing_structure_solution    'SHELXL-2014 (Sheldrick, 2014)'
_diffrn_ambient_temperature      296(2)
_diffrn_measured_fraction_theta_full 0.998
_diffrn_measured_fraction_theta_max 0.989
_diffrn_measurement_device_type  'Bruker APEX-II CCD'
_diffrn_radiation_type           MoK\a
_diffrn_radiation_wavelength     0.71073
_diffrn_reflns_av_R_equivalents  0.0934
_diffrn_reflns_av_unetI/netI     0.1116
_diffrn_reflns_Laue_measured_fraction_full 0.998
_diffrn_reflns_Laue_measured_fraction_max 0.989
_diffrn_reflns_limit_h_max       31
_diffrn_reflns_limit_h_min       -31
_diffrn_reflns_limit_k_max       24
_diffrn_reflns_limit_k_min       -20
_diffrn_reflns_limit_l_max       24
_diffrn_reflns_limit_l_min       -25
_diffrn_reflns_number            43022
_diffrn_reflns_point_group_measured_fraction_full 0.998
_diffrn_reflns_point_group_measured_fraction_max 0.989
_diffrn_reflns_theta_full        25.000
_diffrn_reflns_theta_max         25.460
_diffrn_reflns_theta_min         1.621
_diffrn_source                   'sealed tube'
_exptl_absorpt_coefficient_mu    3.126
_exptl_absorpt_correction_T_max  0.626
_exptl_absorpt_correction_T_min  0.483
_exptl_absorpt_correction_type   multi-scan
_exptl_absorpt_process_details
'Blessing, R. H. (1995) Acta Cryst., A51, 33-38'
_exptl_crystal_colour            green
_exptl_crystal_density_diffrn    1.453
_exptl_crystal_description       'retangular prism'
_exptl_crystal_F_000             4796
_exptl_crystal_size_max          0.2
_exptl_crystal_size_mid          0.15
_exptl_crystal_size_min          0.15
_refine_diff_density_max         1.343
_refine_diff_density_min         -1.022
_refine_diff_density_rms         0.119
_refine_ls_extinction_method     none
_refine_ls_goodness_of_fit_ref   1.005
_refine_ls_hydrogen_treatment    constr
_refine_ls_matrix_type           full
_refine_ls_number_parameters     586
_refine_ls_number_reflns         10136
_refine_ls_number_restraints     1
_refine_ls_restrained_S_all      1.006
_refine_ls_R_factor_all          0.1309
_refine_ls_R_factor_gt           0.0609
_refine_ls_shift/su_max          0.001
_refine_ls_shift/su_mean         0.000
_refine_ls_structure_factor_coef Fsqd
_refine_ls_weighting_details
'w=1/[\s^2^(Fo^2^)+(0.0948P)^2^] where P=(Fo^2^+2Fc^2^)/3'
_refine_ls_weighting_scheme      calc
_refine_ls_wR_factor_gt          0.1527
_refine_ls_wR_factor_ref         0.1817
_reflns_Friedel_coverage         0.000
_reflns_number_gt                5468
_reflns_number_total             10136
_reflns_threshold_expression     'I > 2\s(I)'
_cod_data_source_file            c8dt01686k2.cif
_cod_data_source_block           Sr_Cu3L2L1
_cod_depositor_comments
'Adding full bibliography for 7047216--7047218.cif.'
_cod_database_code               7047218
_shelx_shelxl_version_number     2014/7
_shelx_space_group_comment
;
The symmetry employed for this shelxl refinement is uniquely defined
by the following loop, which should always be used as a source of
symmetry information in preference to the above space-group names.
They are only intended as comments.
;
_shelx_res_file
;

    shelx.res created by SHELXL-2014/7

TITL mo_TS222_A_0m in C2/c
CELL  0.71073  26.2280  20.5339  21.4349   90.000  106.657   90.000
ZERR     8.00   0.0015   0.0013   0.0013    0.000    0.004    0.000
LATT   7
SYMM  - X,   Y, 1/2 - Z
SFAC  C    H    N    O    CU   SR
UNIT  200 236 72 194 24 16
MERG   2
OMIT     0   2   0
OMIT    -6   2   2
OMIT     6   0   0
OMIT    -4   2   2
OMIT    -1   3   1
OMIT     1   1   1
OMIT    -5   1   2
OMIT    -6   4   2
OMIT     0   0   4
OMIT    -3   5   1
OMIT    -4   2   4
OMIT     3   3   1
OMIT     0   2   1
DFIX     1.5   0.010 C7 C6
FREE   Sr1 C23
FREE   Sr1 C22
FREE   Sr2 C15
EQIV $1 x, -1-y, -1/2+z
FREE   Sr1 C7_$1
FREE   Sr1 C6_$1
FREE   Sr2 C16
FREE   Sr2 C13
FREE   Sr2 C14
FMAP   2
PLAN   20
ACTA    50.00
BOND   $H
CONF
ABIN
L.S.    15
TEMP    23.00
WGHT    0.094800
FVAR       0.03470
CU3   5    0.270764   -0.692246    0.757694    11.00000    0.07351    0.03850 =
         0.02811   -0.00148    0.02299   -0.01101
CU2   5    0.323379   -0.568431    0.826681    11.00000    0.04291    0.03917 =
         0.02220   -0.00009    0.01468   -0.00297
CU1   5    0.373553   -0.442571    0.848674    11.00000    0.04756    0.04079 =
         0.02633   -0.00457    0.01648    0.00162
O8    4    0.257966   -0.731335    0.565777    11.00000    0.07688    0.04170 =
         0.02540   -0.00776    0.02060    0.00023
N6    3    0.249871   -0.622786    0.690063    11.00000    0.05868    0.03186 =
         0.01936    0.00039    0.01315   -0.00162
O10   4    0.379383   -0.417271    0.662988    11.00000    0.12066    0.04137 =
         0.03858   -0.00259    0.04265    0.01002
N9    3    0.350041   -0.681269    0.784364    11.00000    0.07086    0.03070 =
         0.03087    0.00355    0.01644   -0.00098
O7    4    0.229849   -0.609558    0.578701    11.00000    0.13717    0.04441 =
         0.02314    0.00349    0.02675    0.01589
O7W   4    0.194041   -0.699099    0.755405    11.00000    0.09087    0.05695 =
         0.08116    0.00854    0.04582   -0.02011
AFIX   3
H7A   2    0.181856   -0.743776    0.761319    11.00000   -1.50000
H7B   2    0.189306   -0.671572    0.791245    11.00000   -1.50000
AFIX   0
O13   4    0.423460   -0.740624    0.840617    11.00000    0.07644    0.09589 =
         0.14671    0.05762    0.01857    0.01369
C25   1    0.338496   -0.771052    0.848142    11.00000    0.11889    0.04354 =
         0.03338    0.00340    0.01157   -0.00649
C7    1    0.304044   -0.620973    0.933245    11.00000    0.04819    0.05236 =
         0.05017   -0.00552    0.02620   -0.02174
O2    4    0.286308   -0.348231    0.472248    11.00000    0.06792    0.10975 =
         0.03862   -0.02095    0.01843    0.04053
C3    1    0.525413   -0.573575    0.953117    11.00000    0.04048    0.06994 =
         0.03375   -0.00813    0.01471    0.00770
AFIX  43
H3    2    0.554583   -0.599730    0.972589    11.00000   -1.20000
AFIX   0
C2    1    0.532965   -0.513171    0.932149    11.00000    0.03577    0.06496 =
         0.04422   -0.00682    0.01721    0.00314
AFIX  43
H2    2    0.567157   -0.497252    0.937558    11.00000   -1.20000
AFIX   0
N2    3    0.494824   -0.414824    0.878568    11.00000    0.04878    0.06796 =
         0.08434    0.01645    0.02322   -0.01457
AFIX  93
H1N   2    0.467163   -0.391967    0.859984    11.00000   -1.20000
H2N   2    0.526096   -0.399667    0.882118    11.00000   -1.20000
AFIX   0
C16   1    0.259052   -0.714485    0.622338    11.00000    0.06053    0.02214 =
         0.04384   -0.01022    0.01969   -0.00996
C15   1    0.244254   -0.642715    0.628912    11.00000    0.06893    0.03616 =
         0.02374   -0.00192    0.02110   -0.00358
O6    4    0.367765   -0.404322    0.928797    11.00000    0.04753    0.05222 =
         0.02814   -0.01134    0.00925    0.00003
C13   1    0.320300   -0.605910    0.431757    11.00000    0.06226    0.02711 =
         0.03094   -0.00001    0.01988   -0.00200
C14   1    0.274814   -0.580604    0.375147    11.00000    0.05561    0.03937 =
         0.02324    0.00464    0.01199   -0.00404
N5    3    0.291808   -0.447790    0.829120    11.00000    0.04421    0.03923 =
         0.02753   -0.01577    0.01067   -0.00036
C8    1    0.254620   -0.471230    0.772171    11.00000    0.03593    0.04090 =
         0.02631   -0.00620    0.00674    0.00472
N4    3    0.263610   -0.532298    0.757220    11.00000    0.04680    0.03649 =
         0.01578   -0.00467    0.00940    0.00154
C12   1    0.235117   -0.558627    0.700750    11.00000    0.05299    0.03429 =
         0.02589   -0.00066    0.01740   -0.00221
C11   1    0.193017   -0.523964    0.658719    11.00000    0.06518    0.05457 =
         0.04087   -0.01682   -0.00343    0.00416
AFIX  43
H11   2    0.171946   -0.542636    0.620468    11.00000   -1.20000
AFIX   0
C10   1    0.183840   -0.460863    0.676103    11.00000    0.07050    0.07089 =
         0.04099   -0.00815   -0.00333    0.01774
AFIX  43
H10   2    0.156301   -0.436730    0.648957    11.00000   -1.20000
AFIX   0
C9    1    0.214571   -0.433786    0.732319    11.00000    0.06887    0.04397 =
         0.04570   -0.01755    0.01184    0.00675
AFIX  43
H9    2    0.208770   -0.391265    0.743586    11.00000   -1.20000
AFIX   0
O4    4    0.228869   -0.588378    0.377536    11.00000    0.04228    0.07841 =
         0.04969    0.03124    0.01945   -0.00542
O5    4    0.308398   -0.634890    0.476728    11.00000    0.05524    0.06473 =
         0.03253    0.02220    0.01640   -0.00298
O12   4    0.379496   -0.345393    0.809728    11.00000    0.10484    0.03387 =
         0.03327   -0.00342    0.02729    0.00173
C23   1    0.369679   -0.348185    0.748855    11.00000    0.06796    0.03509 =
         0.03587   -0.00660    0.02843   -0.00231
O11   4    0.356777   -0.302565    0.709835    11.00000    0.11412    0.03809 =
         0.03309    0.00736    0.03211    0.02756
C22   1    0.376987   -0.414722    0.720460    11.00000    0.06459    0.04299 =
         0.02949   -0.00274    0.02610    0.01007
N8    3    0.381572   -0.464189    0.761325    11.00000    0.04952    0.02817 =
         0.02810   -0.00466    0.01940   -0.00196
C17   1    0.392556   -0.527461    0.744264    11.00000    0.05772    0.04250 =
         0.02837    0.00086    0.02019   -0.00470
C18   1    0.426220   -0.542554    0.706584    11.00000    0.08246    0.03708 =
         0.07267    0.00125    0.05657    0.00178
AFIX  43
H18   2    0.442031   -0.509418    0.689079    11.00000   -1.20000
AFIX   0
C19   1    0.435778   -0.604993    0.695609    11.00000    0.13319    0.04881 =
         0.09193   -0.01064    0.09447   -0.00355
AFIX  43
H19   2    0.459188   -0.615422    0.671733    11.00000   -1.20000
AFIX   0
C20   1    0.410124   -0.654770    0.720485    11.00000    0.12143    0.03270 =
         0.07413   -0.01392    0.07300    0.00264
AFIX  43
H20   2    0.414645   -0.698247    0.711133    11.00000   -1.20000
AFIX   0
C21   1    0.379113   -0.638161    0.757851    11.00000    0.06114    0.02848 =
         0.04213   -0.00243    0.03044   -0.00146
C24   1    0.376992   -0.729901    0.823314    11.00000    0.08639    0.04347 =
         0.05655   -0.00058    0.02335   -0.00659
O15   4    0.287877   -0.760751    0.823493    11.00000    0.11529    0.04902 =
         0.03086    0.00411    0.02989   -0.02902
O14   4    0.355608   -0.813599    0.888152    11.00000    0.14213    0.07244 =
         0.08817    0.04613    0.01632   -0.01036
N7    3    0.370534   -0.575659    0.769498    11.00000    0.04191    0.03594 =
         0.02321    0.00050    0.01538   -0.00407
N1    3    0.438341   -0.495749    0.894959    11.00000    0.04010    0.03991 =
         0.02508    0.00019    0.01723   -0.00716
C5    1    0.432047   -0.555156    0.918051    11.00000    0.03212    0.05087 =
         0.02013   -0.00273    0.01179   -0.00029
N3    3    0.379336   -0.573731    0.908661    11.00000    0.03897    0.04405 =
         0.02302    0.00387    0.01523   -0.00558
C6    1    0.363743   -0.603512    0.955774    11.00000    0.04310    0.04274 =
         0.03321   -0.00144    0.00897   -0.01015
O1    4    0.390073   -0.616229    1.012750    11.00000    0.05508    0.08258 =
         0.03452    0.01769    0.00959   -0.01784
C4    1    0.474659   -0.596440    0.945709    11.00000    0.04851    0.05261 =
         0.02875   -0.00033    0.01121   -0.00001
AFIX  43
H4    2    0.468993   -0.638329    0.958825    11.00000   -1.20000
AFIX   0
C1    1    0.489052   -0.475576    0.902593    11.00000    0.05963    0.04702 =
         0.03226   -0.00377    0.01606   -0.00769
O9    4    0.271863   -0.749785    0.672012    11.00000    0.11878    0.02938 =
         0.02718    0.00274    0.02390    0.00478
O3    4    0.277047   -0.603375    0.876402    11.00000    0.04442    0.06985 =
         0.02792    0.00595    0.01023   -0.01190
SR1   6    0.347255   -0.319322    0.587250    11.00000    0.07324    0.07958 =
         0.02665    0.00206    0.02014    0.03228
SR2   6    0.208799   -0.660515    0.465839    11.00000    0.05789    0.04349 =
         0.02591    0.00316    0.02106   -0.00072
O5W   4    0.139456   -0.684407    0.349326    11.00000    0.10996    0.09728 =
         0.08748   -0.01692    0.00471   -0.02194
AFIX   3
H5B   2    0.113261   -0.652033    0.353656    11.00000   -1.50000
H5A   2    0.157861   -0.679533    0.315256    11.00000   -1.50000
AFIX   0
O4W   4    0.139714   -0.745109    0.489038    11.00000    0.07110    0.10095 =
         0.14669    0.06225    0.03463   -0.00339
AFIX   3
H4A   2    0.152519   -0.790028    0.485213    11.00000   -1.50000
H4B   2    0.104427   -0.738830    0.456613    11.00000   -1.50000
AFIX   0
O1W   4    0.445971   -0.283860    0.635692    11.00000    0.13018    0.09923 =
         0.13702   -0.01642    0.05333   -0.00500
AFIX   3
H1A   2    0.446322   -0.235072    0.644138    11.00000   -1.50000
H1B   2    0.466324   -0.291974    0.604340    11.00000   -1.50000
AFIX   0
O3W   4    0.258102   -0.348449    0.597636    11.00000    0.11244    0.32966 =
         0.14236   -0.09449    0.07529   -0.05852
AFIX   3
H3A   2    0.252872   -0.387972    0.596729    11.00000   -1.50000
H3B   2    0.233975   -0.327672    0.606729    11.00000   -1.50000
AFIX   0
O2W   4    0.301986   -0.214299    0.596116    11.00000    0.28556    0.24435 =
         0.11637    0.02475    0.04058    0.21146
AFIX   3
H2B   2    0.331476   -0.181949    0.598033    11.00000   -1.50000
H2A   2    0.271512   -0.197579    0.560446    11.00000   -1.50000
AFIX   0
O6W   4    0.131272   -0.579748    0.453797    11.00000    0.26051    0.26818 =
         0.18137    0.01805    0.07751    0.17338
AFIX   3
H6A   2    0.144141   -0.543738    0.485230    11.00000   -1.50000
H6B   2    0.098903   -0.597836    0.462933    11.00000   -1.50000
AFIX   0
O9W   4    0.303401   -0.492087    0.559465    10.50000    0.19148    0.11734 =
         0.06927   -0.01477   -0.02115   -0.09905
AFIX   3
H9A   2    0.334816   -0.482266    0.597503    10.50000   -1.50000
H9B   2    0.316033   -0.505402    0.522275    10.50000   -1.50000
AFIX   0
O10W  4    0.201065   -0.453683    0.511140    10.35000    0.27736    0.16059 =
         0.13557   -0.07680    0.13030   -0.16763
AFIX   3
H10A  2    0.217557   -0.424344    0.492315    10.35000   -1.50000
H10B  2    0.223539   -0.491522    0.523443    10.35000   -1.50000
AFIX   0
O11W  4    0.165617   -0.445283    0.347672    10.40000    0.11506    0.22534 =
         0.26181   -0.04750    0.13450    0.00063
AFIX   3
H11A  2    0.203211   -0.445600    0.347147    10.40000   -1.50000
H11B  2    0.143705   -0.485506    0.349752    10.40000   -1.50000
AFIX   0
O8W   4    0.382484   -0.224345    0.524151    11.00000    0.57534    0.12761 =
         0.12151    0.04268    0.08295   -0.05454
AFIX   3
H8A   2    0.367188   -0.184921    0.497149    11.00000   -1.50000
H8B   2    0.408388   -0.220021    0.497749    11.00000   -1.50000
AFIX   0
HKLF    4  1.0  1.00  0.00  0.00  0.00  1.00  0.00  0.00  0.00  1.00

REM  mo_TS222_A_0m in C2/c
REM R1 =  0.0609 for    5468 Fo > 4sig(Fo)  and  0.1309 for all   10136 data
REM    586 parameters refined using      1 restraints

END

WGHT      0.0996      0.0000

REM Highest difference peak  1.343,  deepest hole -1.022,  1-sigma level  0.119
Q1    1   0.3269 -0.3647  0.5869  11.00000  0.05    1.34
Q2    1   0.1335 -0.5220  0.3220  11.00000  0.05    0.94
Q3    1   0.4721 -0.2573  0.5896  11.00000  0.05    0.83
Q4    1   0.2082 -0.5155  0.4676  11.00000  0.05    0.71
Q5    1   0.1590 -0.3996  0.4883  11.00000  0.05    0.69
Q6    1   0.3266 -0.5177  0.5649  11.00000  0.05    0.64
Q7    1   0.2392 -0.6433  0.4885  11.00000  0.05    0.64
Q8    1   0.1733 -0.4404  0.3878  11.00000  0.05    0.61
Q9    1   0.3160 -0.2168  0.5580  11.00000  0.05    0.57
Q10   1   0.4792 -0.2815  0.7051  11.00000  0.05    0.56
Q11   1   0.2641 -0.4944  0.5499  11.00000  0.05    0.53
Q12   1   0.2926 -0.5191  0.5408  11.00000  0.05    0.53
Q13   1   0.3710 -0.2340  0.8779  11.00000  0.05    0.51
Q14   1   0.1488 -0.3957  0.3467  11.00000  0.05    0.50
Q15   1   0.3602 -0.3196  0.5831  11.00000  0.05    0.50
Q16   1   0.3495 -0.3021  0.6051  11.00000  0.05    0.49
Q17   1   0.3066 -0.4973  0.5962  11.00000  0.05    0.49
Q18   1   0.0429 -0.7611  0.4115  11.00000  0.05    0.49
Q19   1   0.2504 -0.6780  0.5005  11.00000  0.05    0.48
Q20   1   0.1569 -0.4080  0.4005  11.00000  0.05    0.48
;
_shelx_res_checksum              10877
_shelx_fab_file
;
    2    0    0    606.07      0.00
    4    0    0    125.21      0.00
    8    0    0     -5.46      0.00
   10    0    0    -14.65      0.00
   12    0    0    -42.39      0.00
   14    0    0    -27.56      0.00
   16    0    0     -1.22      0.00
   18    0    0      0.89      0.00
   20    0    0     -5.41      0.00
   22    0    0      0.36      0.00
   24    0    0      9.99      0.00
   26    0    0     11.13      0.00
   28    0    0      3.77      0.00
   30    0    0     -0.30      0.00
    3    1    0   -148.67      0.00
    5    1    0     65.44      0.00
    7    1    0     73.82      0.00
    9    1    0     22.92      0.00
   11    1    0     17.45      0.00
   13    1    0     21.76      0.00
   15    1    0      8.09      0.00
   17    1    0     -2.96      0.00
   19    1    0     -1.20      0.00
   21    1    0      1.88      0.00
   23    1    0     -1.72      0.00
   25    1    0     -8.38      0.00
   27    1    0    -10.55      0.00
   29    1    0     -6.80      0.00
    2    2    0    -73.73      0.00
    4    2    0    -66.30      0.00
    6    2    0    -92.08      0.00
    8    2    0    -56.84      0.00
   10    2    0      7.19      0.00
   12    2    0     21.92      0.00
   14    2    0      7.65      0.00
   16    2    0      2.35      0.00
   18    2    0      5.91      0.00
   20    2    0      4.36      0.00
   22    2    0     -3.07      0.00
   24    2    0     -5.28      0.00
   26    2    0      0.82      0.00
   28    2    0      8.26      0.00
   30    2    0      7.25      0.00
    1    3    0    131.20      0.00
    3    3    0     51.49      0.00
    5    3    0     12.42      0.00
    7    3    0     14.22      0.00
    9    3    0     -7.45      0.00
   11    3    0    -28.97      0.00
   13    3    0    -20.06      0.00
   15    3    0     -5.36      0.00
   17    3    0     -1.15      0.00
   19    3    0      0.20      0.00
   21    3    0      3.48      0.00
   23    3    0      9.20      0.00
   25    3    0     14.08      0.00
   27    3    0     10.60      0.00
   29    3    0      1.38      0.00
    0    4    0     19.47      0.00
    2    4    0     13.38      0.00
    4    4    0     23.22      0.00
    6    4    0     45.47      0.00
    8    4    0     36.83      0.00
   10    4    0     11.33      0.00
   12    4    0     -3.20      0.00
   14    4    0     -6.19      0.00
   16    4    0     -5.76      0.00
   18    4    0     -9.92      0.00
   20    4    0    -10.68      0.00
   22    4    0     -4.90      0.00
   24    4    0     -4.33      0.00
   26    4    0     -7.63      0.00
   28    4    0     -4.99      0.00
   30    4    0      3.04      0.00
    1    5    0    -29.34      0.00
    3    5    0    -29.58      0.00
    5    5    0    -38.20      0.00
    7    5    0    -33.90      0.00
    9    5    0    -10.41      0.00
   11    5    0      6.68      0.00
   13    5    0      8.18      0.00
   15    5    0      5.13      0.00
   17    5    0      5.91      0.00
   19    5    0      7.84      0.00
   21    5    0      3.88      0.00
   23    5    0     -2.47      0.00
   25    5    0     -3.95      0.00
   27    5    0     -3.16      0.00
   29    5    0     -5.47      0.00
    0    6    0    -48.99      0.00
    2    6    0    -16.48      0.00
    4    6    0     13.14      0.00
    6    6    0     -9.72      0.00
    8    6    0    -24.68      0.00
   10    6    0     -5.34      0.00
   12    6    0     11.71      0.00
   14    6    0      8.95      0.00
   16    6    0      2.23      0.00
   18    6    0      1.17      0.00
   20    6    0     -1.37      0.00
   22    6    0     -3.32      0.00
   24    6    0     -2.34      0.00
   26    6    0     -2.26      0.00
   28    6    0      1.52      0.00
    1    7    0     13.53      0.00
    3    7    0     -3.45      0.00
    5    7    0      7.55      0.00
    7    7    0     29.13      0.00
    9    7    0     17.48      0.00
   11    7    0     -9.62      0.00
   13    7    0    -14.69      0.00
   15    7    0     -5.21      0.00
   17    7    0     -2.25      0.00
   19    7    0      0.28      0.00
   21    7    0      6.39      0.00
   23    7    0      6.04      0.00
   25    7    0      2.85      0.00
   27    7    0      1.59      0.00
   29    7    0     -2.89      0.00
    0    8    0     41.95      0.00
    2    8    0     17.58      0.00
    4    8    0    -10.77      0.00
    6    8    0     -8.60      0.00
    8    8    0     -3.61      0.00
   10    8    0     -3.68      0.00
   12    8    0     -1.05      0.00
   14    8    0      0.75      0.00
   16    8    0      1.31      0.00
   18    8    0     -0.24      0.00
   20    8    0     -5.18      0.00
   22    8    0     -6.42      0.00
   24    8    0      2.33      0.00
   26    8    0      9.38      0.00
   28    8    0      4.69      0.00
    1    9    0    -18.03      0.00
    3    9    0      8.32      0.00
    5    9    0     10.23      0.00
    7    9    0     -5.62      0.00
    9    9    0     -4.70      0.00
   11    9    0      3.15      0.00
   13    9    0      1.28      0.00
   15    9    0     -2.05      0.00
   17    9    0     -2.02      0.00
   19    9    0     -2.00      0.00
   21    9    0      0.69      0.00
   23    9    0     -0.21      0.00
   25    9    0    -11.89      0.00
   27    9    0    -17.30      0.00
    0   10    0    -25.27      0.00
    2   10    0    -14.32      0.00
    4   10    0     -2.89      0.00
    6   10    0     -4.34      0.00
    8   10    0     -3.00      0.00
   10   10    0      3.48      0.00
   12   10    0      7.86      0.00
   14   10    0      6.48      0.00
   16   10    0      4.00      0.00
   18   10    0      7.90      0.00
   20   10    0      9.27      0.00
   22   10    0      1.51      0.00
   24   10    0     -1.87      0.00
   26   10    0      6.87      0.00
    1   11    0     14.88      0.00
    3   11    0     -7.02      0.00
    5   11    0     -6.74      0.00
    7   11    0      8.49      0.00
    9   11    0      6.07      0.00
   11   11    0     -4.41      0.00
   13   11    0     -2.52      0.00
   15   11    0      3.93      0.00
   17   11    0      2.65      0.00
   19   11    0     -0.29      0.00
   21   11    0      3.56      0.00
   23   11    0     10.77      0.00
   25   11    0     11.25      0.00
   27   11    0      1.65      0.00
    0   12    0     -3.21      0.00
    2   12    0     -1.49      0.00
    4   12    0      1.99      0.00
    6   12    0      1.72      0.00
    8   12    0     -0.67      0.00
   10   12    0     -0.27      0.00
   12   12    0     -1.31      0.00
   14   12    0     -2.95      0.00
   16   12    0     -2.97      0.00
   18   12    0     -5.39      0.00
   20   12    0     -7.90      0.00
   22   12    0     -7.76      0.00
   24   12    0     -5.98      0.00
   26   12    0     -2.04      0.00
    1   13    0      7.35      0.00
    3   13    0     11.80      0.00
    5   13    0      5.59      0.00
    7   13    0     -4.74      0.00
    9   13    0     -3.94      0.00
   11   13    0      0.86      0.00
   13   13    0     -2.74      0.00
   15   13    0     -5.53      0.00
   17   13    0      2.09      0.00
   19   13    0      7.94      0.00
   21   13    0      4.66      0.00
   23   13    0      0.46      0.00
   25   13    0     -1.54      0.00
    0   14    0     -9.48      0.00
    2   14    0     -8.36      0.00
    4   14    0     -5.93      0.00
    6   14    0     -2.27      0.00
    8   14    0      0.51      0.00
   10   14    0      2.76      0.00
   12   14    0      9.06      0.00
   14   14    0     10.67      0.00
   16   14    0      0.89      0.00
   18   14    0     -6.16      0.00
   20   14    0     -2.03      0.00
   22   14    0      3.25      0.00
   24   14    0      2.48      0.00
    1   15    0      8.63      0.00
    3   15    0      1.80      0.00
    5   15    0      0.57      0.00
    7   15    0      5.83      0.00
    9   15    0      2.34      0.00
   11   15    0     -9.51      0.00
   13   15    0    -10.56      0.00
   15   15    0     -3.41      0.00
   17   15    0     -4.76      0.00
   19   15    0     -9.62      0.00
   21   15    0     -9.94      0.00
   23   15    0     -9.28      0.00
    0   16    0     -2.40      0.00
    2   16    0     -1.19      0.00
    4   16    0      1.02      0.00
    6   16    0     -1.46      0.00
    8   16    0     -4.34      0.00
   10   16    0      0.69      0.00
   12   16    0      2.84      0.00
   14   16    0      2.12      0.00
   16   16    0     13.47      0.00
   18   16    0     24.06      0.00
   20   16    0     17.08      0.00
   22   16    0      7.15      0.00
    1   17    0     -5.47      0.00
    3   17    0     -1.25      0.00
    5   17    0      1.64      0.00
    7   17    0     -0.59      0.00
    9   17    0     -0.98      0.00
   11   17    0      2.96      0.00
   13   17    0     -1.86      0.00
   15   17    0    -17.26      0.00
   17   17    0    -26.54      0.00
   19   17    0    -22.82      0.00
   21   17    0    -13.51      0.00
    0   18    0      7.14      0.00
    2   18    0      5.62      0.00
    4   18    0      1.45      0.00
    6   18    0      2.99      0.00
    8   18    0      7.72      0.00
   10   18    0      2.75      0.00
   12   18    0      2.95      0.00
   14   18    0     16.38      0.00
   16   18    0     19.60      0.00
   18   18    0     12.41      0.00
   20   18    0     12.19      0.00
    1   19    0     -1.28      0.00
    3   19    0     -2.14      0.00
    5   19    0     -5.02      0.00
    7   19    0     -7.63      0.00
    9   19    0     -6.96      0.00
   11   19    0     -6.95      0.00
   13   19    0     -9.78      0.00
   15   19    0     -8.68      0.00
   17   19    0     -2.95      0.00
   19   19    0     -0.79      0.00
    0   20    0     -4.81      0.00
    2   20    0     -4.88      0.00
    4   20    0     -2.90      0.00
    6   20    0     -2.93      0.00
    8   20    0     -4.83      0.00
   10   20    0     -0.09      0.00
   12   20    0      0.20      0.00
   14   20    0    -10.13      0.00
   16   20    0    -12.39      0.00
    1   21    0     -1.44      0.00
    3   21    0     -1.05      0.00
    5   21    0      3.16      0.00
    7   21    0      6.10      0.00
    9   21    0     -0.68      0.00
   11   21    0     -6.90      0.00
   13   21    0      1.82      0.00
   15   21    0     13.16      0.00
    0   22    0      8.50      0.00
    2   22    0      8.32      0.00
    4   22    0      3.30      0.00
    6   22    0     -3.66      0.00
    8   22    0     -2.24      0.00
   10   22    0      4.14      0.00
   12   22    0      6.71      0.00
    1   23    0     -3.17      0.00
    3   23    0     -0.58      0.00
    5   23    0      2.54      0.00
    7   23    0      5.62      0.00
    9   23    0      6.53      0.00
   11   23    0      1.13      0.00
    0   24    0      0.47      0.00
    2   24    0     -0.20      0.00
    4   24    0     -0.11      0.00
    6   24    0     -0.75      0.00
  -29    1    1     -1.31      0.00
  -27    1    1     -3.49      0.00
  -25    1    1      0.43      0.00
  -23    1    1      2.12      0.00
  -21    1    1      0.55      0.00
  -19    1    1      1.22      0.00
  -17    1    1      6.49      0.00
  -15    1    1     10.17      0.00
  -13    1    1      8.62      0.00
  -11    1    1      7.81      0.00
   -9    1    1     21.71      0.00
   -7    1    1     18.76      0.00
   -5    1    1    -59.53      0.00
   -3    1    1   -105.04      0.00
    3    1    1     27.82      0.00
    5    1    1    -36.09      0.00
    7    1    1     15.94      0.00
    9    1    1     43.43      0.00
   11    1    1     14.40      0.00
   13    1    1      2.05      0.00
   15    1    1     13.66      0.00
   17    1    1     19.36      0.00
   19    1    1     10.70      0.00
   21    1    1      0.81      0.00
   23    1    1     -0.93      0.00
   25    1    1      1.32      0.00
   27    1    1      0.16      0.00
   29    1    1     -4.22      0.00
  -30    2    1      4.36      0.00
  -28    2    1      4.56      0.00
  -26    2    1      0.84      0.00
  -24    2    1      0.94      0.00
  -22    2    1      4.02      0.00
  -20    2    1      0.44      0.00
  -18    2    1     -4.18      0.00
  -16    2    1      0.32      0.00
  -14    2    1      3.47      0.00
  -12    2    1     -6.28      0.00
  -10    2    1    -21.99      0.00
   -8    2    1    -24.22      0.00
   -6    2    1      8.00      0.00
   -4    2    1     46.30      0.00
   -2    2    1     30.84      0.00
    0    2    1      1.86      0.00
    2    2    1     39.72      0.00
    4    2    1     82.48      0.00
    6    2    1     46.47      0.00
    8    2    1     -4.62      0.00
   10    2    1     -6.12      0.00
   12    2    1      3.18      0.00
   14    2    1     -4.00      0.00
   16    2    1     -8.66      0.00
   18    2    1     -4.74      0.00
   20    2    1      2.15      0.00
   22    2    1      8.75      0.00
   24    2    1      7.52      0.00
   26    2    1     -0.62      0.00
   28    2    1     -3.62      0.00
  -29    3    1     -5.36      0.00
  -27    3    1     -3.09      0.00
  -25    3    1     -5.49      0.00
  -23    3    1    -10.67      0.00
  -21    3    1     -7.73      0.00
  -19    3    1      2.20      0.00
  -17    3    1     -2.58      0.00
  -15    3    1    -15.28      0.00
  -13    3    1     -3.67      0.00
  -11    3    1     25.13      0.00
   -9    3    1     22.79      0.00
   -7    3    1     -0.51      0.00
   -5    3    1     39.07      0.00
   -3    3    1     95.48      0.00
    1    3    1    -75.90      0.00
    3    3    1    -57.80      0.00
    5    3    1      5.78      0.00
    7    3    1      6.62      0.00
    9    3    1    -11.22      0.00
   11    3    1     -3.51      0.00
   13    3    1      8.72      0.00
   15    3    1      3.05      0.00
   17    3    1     -7.99      0.00
   19    3    1     -7.81      0.00
   21    3    1     -7.88      0.00
   23    3    1    -10.66      0.00
   25    3    1     -4.74      0.00
   27    3    1      3.30      0.00
   29    3    1      3.26      0.00
  -30    4    1     -0.90      0.00
  -28    4    1      1.37      0.00
  -26    4    1      6.17      0.00
  -24    4    1      9.27      0.00
  -22    4    1      7.96      0.00
  -20    4    1      2.12      0.00
  -18    4    1     -1.37      0.00
  -16    4    1      3.38      0.00
  -14    4    1      5.14      0.00
  -12    4    1     -4.55      0.00
  -10    4    1      1.41      0.00
   -8    4    1     35.57      0.00
   -6    4    1     33.71      0.00
   -4    4    1    -26.67      0.00
   -2    4    1    -40.50      0.00
    0    4    1     17.55      0.00
    2    4    1     23.89      0.00
    4    4    1    -35.51      0.00
    6    4    1    -48.85      0.00
    8    4    1    -10.60      0.00
   10    4    1      4.05      0.00
   12    4    1     -8.14      0.00
   14    4    1     -8.89      0.00
   16    4    1      2.24      0.00
   18    4    1      6.44      0.00
   20    4    1      4.90      0.00
   22    4    1      4.94      0.00
   24    4    1      2.90      0.00
   26    4    1     -0.24      0.00
   28    4    1      1.94      0.00
  -29    5    1      4.27      0.00
  -27    5    1      0.47      0.00
  -25    5    1     -0.39      0.00
  -23    5    1      1.52      0.00
  -21    5    1      2.32      0.00
  -19    5    1      0.25      0.00
  -17    5    1      3.82      0.00
  -15    5    1      9.69      0.00
  -13    5    1      4.72      0.00
  -11    5    1    -13.83      0.00
   -9    5    1    -34.01      0.00
   -7    5    1    -38.65      0.00
   -5    5    1    -39.32      0.00
   -1    5    1     -8.30      0.00
    1    5    1     27.62      0.00
    3    5    1     29.34      0.00
    5    5    1     24.19      0.00
    7    5    1     23.17      0.00
    9    5    1     10.72      0.00
   11    5    1     -0.71      0.00
   13    5    1     -3.00      0.00
   15    5    1     -1.00      0.00
   17    5    1      1.25      0.00
   19    5    1      0.51      0.00
   21    5    1      0.14      0.00
   23    5    1      1.61      0.00
   25    5    1      4.46      0.00
   27    5    1      5.67      0.00
   29    5    1      1.14      0.00
  -28    6    1      0.83      0.00
  -26    6    1      1.07      0.00
  -24    6    1      0.03      0.00
  -22    6    1     -2.79      0.00
  -20    6    1     -2.70      0.00
  -18    6    1     -1.76      0.00
  -16    6    1     -7.31      0.00
  -14    6    1    -11.94      0.00
  -12    6    1     -3.23      0.00
  -10    6    1     11.07      0.00
   -8    6    1     12.03      0.00
   -6    6    1      6.46      0.00
   -4    6    1     11.20      0.00
   -2    6    1      6.80      0.00
    0    6    1    -16.66      0.00
    2    6    1    -23.90      0.00
    4    6    1     -7.18      0.00
    6    6    1      4.06      0.00
    8    6    1      5.81      0.00
   10    6    1      9.58      0.00
   12    6    1     11.38      0.00
   14    6    1      5.26      0.00
   16    6    1     -2.38      0.00
   18    6    1     -4.76      0.00
   20    6    1     -5.25      0.00
   22    6    1     -4.00      0.00
   24    6    1     -0.47      0.00
   26    6    1     -2.91      0.00
   28    6    1     -8.99      0.00
  -29    7    1      0.93      0.00
  -27    7    1     -1.33      0.00
  -25    7    1     -6.19      0.00
  -23    7    1     -5.96      0.00
  -21    7    1     -3.04      0.00
  -19    7    1     -1.53      0.00
  -17    7    1     -4.07      0.00
  -15    7    1     -4.28      0.00
  -13    7    1      4.11      0.00
  -11    7    1      9.82      0.00
   -9    7    1      1.00      0.00
   -7    7    1     -7.11      0.00
   -5    7    1     14.19      0.00
   -3    7    1     37.97      0.00
   -1    7    1     15.21      0.00
    1    7    1    -10.83      0.00
    3    7    1      3.61      0.00
    5    7    1      6.29      0.00
    7    7    1    -19.49      0.00
    9    7    1    -26.84      0.00
   11    7    1    -10.48      0.00
   13    7    1      2.96      0.00
   15    7    1      3.96      0.00
   17    7    1      1.48      0.00
   19    7    1      4.07      0.00
   21    7    1      6.58      0.00
   23    7    1      2.00      0.00
   25    7    1     -5.26      0.00
   27    7    1     -2.37      0.00
  -28    8    1     -0.68      0.00
  -26    8    1      2.30      0.00
  -24    8    1      1.94      0.00
  -22    8    1      0.54      0.00
  -20    8    1      0.26      0.00
  -18    8    1      1.67      0.00
  -16    8    1      6.19      0.00
  -14    8    1      4.84      0.00
  -12    8    1     -4.55      0.00
  -10    8    1     -3.05      0.00
   -8    8    1     12.07      0.00
   -6    8    1      9.61      0.00
   -4    8    1    -15.38      0.00
   -2    8    1    -18.31      0.00
    0    8    1      5.83      0.00
    2    8    1      9.45      0.00
    4    8    1     -4.67      0.00
    6    8    1      1.69      0.00
    8    8    1     15.81      0.00
   10    8    1      8.77      0.00
   12    8    1     -6.90      0.00
   14    8    1     -8.76      0.00
   16    8    1     -2.45      0.00
   18    8    1     -1.17      0.00
   20    8    1     -2.95      0.00
   22    8    1     -3.08      0.00
   24    8    1      0.72      0.00
   26    8    1      5.95      0.00
   28    8    1      3.11      0.00
  -27    9    1     -7.89      0.00
  -25    9    1      0.29      0.00
  -23    9    1      3.69      0.00
  -21    9    1      2.04      0.00
  -19    9    1     -0.90      0.00
  -17    9    1     -1.61      0.00
  -15    9    1      0.79      0.00
  -13    9    1      1.21      0.00
  -11    9    1     -4.39      0.00
   -9    9    1     -8.14      0.00
   -7    9    1     -3.48      0.00
   -5    9    1     -7.33      0.00
   -3    9    1    -16.03      0.00
   -1    9    1     -0.69      0.00
    1    9    1     13.50      0.00
    3    9    1     -0.98      0.00
    5    9    1     -6.89      0.00
    7    9    1      6.51      0.00
    9    9    1      9.17      0.00
   11    9    1      2.34      0.00
   13    9    1      0.63      0.00
   15    9    1      2.76      0.00
   17    9    1      2.25      0.00
   19    9    1     -2.00      0.00
   21    9    1     -5.18      0.00
   23    9    1     -4.48      0.00
   25    9    1     -1.47      0.00
   27    9    1     -1.05      0.00
  -28   10    1     11.98      0.00
  -26   10    1      1.90      0.00
  -24   10    1     -3.13      0.00
  -22   10    1     -2.29      0.00
  -20   10    1     -1.31      0.00
  -18   10    1      1.78      0.00
  -16   10    1      1.46      0.00
  -14   10    1     -2.74      0.00
  -12   10    1      0.42      0.00
  -10   10    1      3.16      0.00
   -8   10    1     -8.12      0.00
   -6   10    1    -10.61      0.00
   -4   10    1      8.59      0.00
   -2   10    1      9.29      0.00
    0   10    1    -12.78      0.00
    2   10    1     -8.91      0.00
    4   10    1      9.50      0.00
    6   10    1     -0.77      0.00
    8   10    1    -15.79      0.00
   10   10    1     -4.35      0.00
   12   10    1      8.39      0.00
   14   10    1      2.11      0.00
   16   10    1     -4.21      0.00
   18   10    1      0.29      0.00
   20   10    1      4.37      0.00
   22   10    1      4.36      0.00
   24   10    1      1.75      0.00
   26   10    1     -1.99      0.00
  -27   11    1     -2.07      0.00
  -25   11    1     -0.04      0.00
  -23   11    1     -1.93      0.00
  -21   11    1      0.78      0.00
  -19   11    1      2.82      0.00
  -17   11    1     -3.96      0.00
  -15   11    1     -8.31      0.00
  -13   11    1     -2.55      0.00
  -11   11    1      3.54      0.00
   -9   11    1      5.37      0.00
   -7   11    1      3.31      0.00
   -5   11    1      1.57      0.00
   -3   11    1      3.92      0.00
   -1   11    1      0.78      0.00
    1   11    1     -6.52      0.00
    3   11    1     -5.42      0.00
    5   11    1      0.96      0.00
    7   11    1      3.49      0.00
    9   11    1     -2.67      0.00
   11   11    1     -9.86      0.00
   13   11    1     -5.19      0.00
   15   11    1      1.37      0.00
   17   11    1     -1.43      0.00
   19   11    1     -3.47      0.00
   21   11    1      0.88      0.00
   23   11    1      3.65      0.00
   25   11    1     -0.16      0.00
  -26   12    1     -6.59      0.00
  -24   12    1     -2.96      0.00
  -22   12    1     -1.50      0.00
  -20   12    1     -4.98      0.00
  -18   12    1     -3.93      0.00
  -16   12    1      6.94      0.00
  -14   12    1     12.04      0.00
  -12   12    1      1.25      0.00
  -10   12    1     -5.84      0.00
   -8   12    1      5.47      0.00
   -6   12    1     12.69      0.00
   -4   12    1      0.22      0.00
   -2   12    1     -4.47      0.00
    0   12    1      8.57      0.00
    2   12    1      8.08      0.00
    4   12    1     -7.36      0.00
    6   12    1     -8.70      0.00
    8   12    1      2.97      0.00
   10   12    1      7.14      0.00
   12   12    1      2.85      0.00
   14   12    1      1.54      0.00
   16   12    1      4.69      0.00
   18   12    1      6.67      0.00
   20   12    1      4.03      0.00
   22   12    1     -2.84      0.00
   24   12    1     -4.29      0.00
   26   12    1      3.41      0.00
  -25   13    1     11.74      0.00
  -23   13    1      8.61      0.00
  -21   13    1      7.34      0.00
  -19   13    1      8.79      0.00
  -17   13    1      8.77      0.00
  -15   13    1      2.38      0.00
  -13   13    1     -2.77      0.00
  -11   13    1      0.30      0.00
   -9   13    1     -0.56      0.00
   -7   13    1     -7.73      0.00
   -5   13    1     -7.93      0.00
   -3   13    1     -3.57      0.00
   -1   13    1     -3.23      0.00
    1   13    1     -4.51      0.00
    3   13    1     -2.41      0.00
    5   13    1      1.30      0.00
    7   13    1      1.23      0.00
    9   13    1     -0.01      0.00
   11   13    1     -0.67      0.00
   13   13    1     -2.82      0.00
   15   13    1     -1.13      0.00
   17   13    1      2.93      0.00
   19   13    1      2.68      0.00
   21   13    1      3.56      0.00
   23   13    1      7.64      0.00
   25   13    1      7.25      0.00
  -24   14    1      7.14      0.00
  -22   14    1      4.70      0.00
  -20   14    1      2.41      0.00
  -18   14    1      0.16      0.00
  -16   14    1     -6.19      0.00
  -14   14    1     -7.14      0.00
  -12   14    1      1.02      0.00
  -10   14    1      4.75      0.00
   -8   14    1      1.08      0.00
   -6   14    1      0.15      0.00
   -4   14    1      1.87      0.00
   -2   14    1     -1.69      0.00
    0   14    1     -7.08      0.00
    2   14    1     -3.54      0.00
    4   14    1      5.68      0.00
    6   14    1      6.08      0.00
    8   14    1     -1.36      0.00
   10   14    1      0.75      0.00
   12   14    1     10.58      0.00
   14   14    1      7.94      0.00
   16   14    1     -2.66      0.00
   18   14    1     -4.77      0.00
   20   14    1     -4.30      0.00
   22   14    1     -6.77      0.00
   24   14    1     -6.08      0.00
  -23   15    1    -11.33      0.00
  -21   15    1     -1.25      0.00
  -19   15    1      0.38      0.00
  -17   15    1     -0.93      0.00
  -15   15    1      4.07      0.00
  -13   15    1      6.35      0.00
  -11   15    1      0.64      0.00
   -9   15    1     -2.69      0.00
   -7   15    1     -2.49      0.00
   -5   15    1     -2.24      0.00
   -3   15    1      1.98      0.00
   -1   15    1      6.23      0.00
    1   15    1      4.55      0.00
    3   15    1     -1.60      0.00
    5   15    1     -5.68      0.00
    7   15    1     -0.12      0.00
    9   15    1      5.66      0.00
   11   15    1      0.80      0.00
   13   15    1     -2.62      0.00
   15   15    1      0.61      0.00
   17   15    1      1.24      0.00
   19   15    1      2.45      0.00
   21   15    1      8.16      0.00
   23   15    1      9.08      0.00
  -22   16    1     -5.83      0.00
  -20   16    1    -11.09      0.00
  -18   16    1     -8.85      0.00
  -16   16    1      0.89      0.00
  -14   16    1      5.49      0.00
  -12   16    1      0.13      0.00
  -10   16    1     -2.14      0.00
   -8   16    1      1.77      0.00
   -6   16    1      1.74      0.00
   -4   16    1     -2.59      0.00
   -2   16    1     -3.42      0.00
    0   16    1      1.83      0.00
    2   16    1      7.58      0.00
    4   16    1      6.04      0.00
    6   16    1     -1.14      0.00
    8   16    1     -7.21      0.00
   10   16    1    -13.05      0.00
   12   16    1    -14.39      0.00
   14   16    1     -3.71      0.00
   16   16    1      5.03      0.00
   18   16    1     -0.48      0.00
   20   16    1     -7.35      0.00
   22   16    1     -7.19      0.00
  -21   17    1      5.47      0.00
  -19   17    1      9.64      0.00
  -17   17    1      6.83      0.00
  -15   17    1     -7.37      0.00
  -13   17    1    -11.67      0.00
  -11   17    1     -1.56      0.00
   -9   17    1      3.48      0.00
   -7   17    1      2.81      0.00
   -5   17    1      2.93      0.00
   -3   17    1      0.16      0.00
   -1   17    1     -3.70      0.00
    1   17    1     -7.94      0.00
    3   17    1     -8.71      0.00
    5   17    1     -0.04      0.00
    7   17    1      7.66      0.00
    9   17    1     12.75      0.00
   11   17    1     19.12      0.00
   13   17    1      9.99      0.00
   15   17    1     -7.92      0.00
   17   17    1     -6.25      0.00
   19   17    1      3.37      0.00
   21   17    1     -0.58      0.00
  -20   18    1      0.86      0.00
  -18   18    1      3.63      0.00
  -16   18    1      8.50      0.00
  -14   18    1     13.00      0.00
  -12   18    1     11.67      0.00
  -10   18    1      3.41      0.00
   -8   18    1     -2.08      0.00
   -6   18    1      1.81      0.00
   -4   18    1      7.97      0.00
   -2   18    1      9.11      0.00
    0   18    1      7.56      0.00
    2   18    1      6.06      0.00
    4   18    1      3.54      0.00
    6   18    1     -0.20      0.00
    8   18    1     -5.20      0.00
   10   18    1     -9.31      0.00
   12   18    1     -8.61      0.00
   14   18    1     -5.33      0.00
   16   18    1     -3.99      0.00
   18   18    1     -3.19      0.00
   20   18    1      0.15      0.00
  -19   19    1     -6.94      0.00
  -17   19    1    -13.20      0.00
  -15   19    1     -5.66      0.00
  -13   19    1      1.58      0.00
  -11   19    1      2.57      0.00
   -9   19    1      5.85      0.00
   -7   19    1      3.57      0.00
   -5   19    1     -4.58      0.00
   -3   19    1     -5.83      0.00
   -1   19    1     -4.35      0.00
    1   19    1     -3.73      0.00
    3   19    1     -1.79      0.00
    5   19    1     -2.17      0.00
    7   19    1     -0.88      0.00
    9   19    1      0.28      0.00
   11   19    1     -1.45      0.00
   13   19    1      9.39      0.00
   15   19    1     25.05      0.00
   17   19    1     19.20      0.00
  -18   20    1      7.05      0.00
  -16   20    1      1.85      0.00
  -14   20    1    -10.05      0.00
  -12   20    1    -16.22      0.00
  -10   20    1    -13.17      0.00
   -8   20    1     -6.91      0.00
   -6   20    1     -2.18      0.00
   -4   20    1     -1.33      0.00
   -2   20    1     -1.76      0.00
    0   20    1      0.24      0.00
    2   20    1      2.53      0.00
    4   20    1      1.78      0.00
    6   20    1      0.28      0.00
    8   20    1      5.50      0.00
   10   20    1     14.58      0.00
   12   20    1      9.33      0.00
   14   20    1    -10.19      0.00
   16   20    1    -17.80      0.00
  -15   21    1      8.25      0.00
  -13   21    1     12.17      0.00
  -11   21    1     15.17      0.00
   -9   21    1      7.32      0.00
   -7   21    1      0.14      0.00
   -5   21    1      1.55      0.00
   -3   21    1      2.74      0.00
   -1   21    1      1.36      0.00
    1   21    1     -1.37      0.00
    3   21    1     -2.67      0.00
    5   21    1      0.67      0.00
    7   21    1     -2.19      0.00
    9   21    1    -12.28      0.00
   11   21    1    -12.69      0.00
   13   21    1     -4.43      0.00
   15   21    1      0.30      0.00
  -14   22    1     -6.32      0.00
  -12   22    1    -11.27      0.00
  -10   22    1    -12.29      0.00
   -8   22    1     -6.19      0.00
   -6   22    1     -3.54      0.00
   -4   22    1     -5.92      0.00
   -2   22    1     -6.47      0.00
    0   22    1     -4.99      0.00
    2   22    1     -5.44      0.00
    4   22    1     -6.99      0.00
    6   22    1     -5.55      0.00
    8   22    1     -3.66      0.00
   10   22    1     -7.04      0.00
   12   22    1    -10.87      0.00
  -11   23    1      3.45      0.00
   -9   23    1      2.08      0.00
   -7   23    1      0.39      0.00
   -5   23    1      0.17      0.00
   -3   23    1      0.98      0.00
   -1   23    1      1.18      0.00
    1   23    1      2.43      0.00
    3   23    1      3.13      0.00
    5   23    1      0.08      0.00
    7   23    1      0.59      0.00
    9   23    1      7.22      0.00
   -6   24    1      1.83      0.00
   -4   24    1      6.16      0.00
   -2   24    1      9.43      0.00
    0   24    1      7.09      0.00
    2   24    1      6.40      0.00
    4   24    1      8.74      0.00
    6   24    1      6.27      0.00
  -30    0    2     -3.77      0.00
  -28    0    2     -0.21      0.00
  -26    0    2      0.46      0.00
  -24    0    2      1.83      0.00
  -22    0    2      3.83      0.00
  -20    0    2      4.19      0.00
  -18    0    2      2.24      0.00
  -16    0    2     -7.72      0.00
  -14    0    2    -23.43      0.00
  -12    0    2    -23.74      0.00
  -10    0    2     -4.66      0.00
   -8    0    2    -14.67      0.00
   -6    0    2    -40.79      0.00
   -4    0    2      8.32      0.00
   -2    0    2     52.62      0.00
    0    0    2    -30.78      0.00
    2    0    2    -86.75      0.00
    4    0    2    -10.56      0.00
    6    0    2     29.71      0.00
    8    0    2    -13.06      0.00
   10    0    2    -26.26      0.00
   12    0    2     -6.97      0.00
   14    0    2     -1.80      0.00
   16    0    2     -6.36      0.00
   18    0    2     -9.41      0.00
   20    0    2     -9.97      0.00
   22    0    2     -9.26      0.00
   24    0    2     -6.87      0.00
   26    0    2     -1.39      0.00
   28    0    2      6.72      0.00
  -29    1    2     -0.51      0.00
  -27    1    2      0.45      0.00
  -25    1    2      0.99      0.00
  -23    1    2     -1.36      0.00
  -21    1    2     -2.11      0.00
  -19    1    2      0.45      0.00
  -17    1    2      2.22      0.00
  -15    1    2      4.48      0.00
  -13    1    2      7.87      0.00
  -11    1    2      2.68      0.00
   -9    1    2     -8.01      0.00
   -7    1    2     -7.51      0.00
   -3    1    2      2.28      0.00
   -1    1    2     14.37      0.00
    1    1    2     20.21      0.00
    3    1    2      0.70      0.00
    5    1    2    -12.36      0.00
    7    1    2      0.96      0.00
    9    1    2      9.21      0.00
   11    1    2      1.72      0.00
   13    1    2     -2.12      0.00
   15    1    2     -1.61      0.00
   17    1    2     -2.21      0.00
   19    1    2      0.88      0.00
   21    1    2      4.42      0.00
   23    1    2      1.57      0.00
   25    1    2     -3.82      0.00
   27    1    2     -6.79      0.00
   29    1    2     -7.38      0.00
  -30    2    2     -1.28      0.00
  -28    2    2     -2.43      0.00
  -26    2    2     -2.98      0.00
  -24    2    2     -2.80      0.00
  -22    2    2     -3.16      0.00
  -20    2    2     -5.26      0.00
  -18    2    2     -4.54      0.00
  -16    2    2      5.29      0.00
  -14    2    2     14.22      0.00
  -12    2    2      7.62      0.00
  -10    2    2     -5.64      0.00
   -8    2    2      7.41      0.00
   -2    2    2   -107.19      0.00
    0    2    2    -28.38      0.00
    2    2    2     42.92      0.00
    4    2    2    -15.16      0.00
    6    2    2    -60.72      0.00
    8    2    2    -21.65      0.00
   10    2    2     10.97      0.00
   12    2    2      7.78      0.00
   14    2    2      3.65      0.00
   16    2    2      8.05      0.00
   18    2    2      7.75      0.00
   20    2    2      1.01      0.00
   22    2    2      1.89      0.00
   24    2    2      9.29      0.00
   26    2    2     10.88      0.00
   28    2    2      4.98      0.00
  -29    3    2      5.76      0.00
  -27    3    2     -1.62      0.00
  -25    3    2     -3.47      0.00
  -23    3    2      3.79      0.00
  -21    3    2      9.54      0.00
  -19    3    2      5.20      0.00
  -17    3    2     -2.99      0.00
  -15    3    2     -8.02      0.00
  -13    3    2     -9.20      0.00
  -11    3    2     -2.54      0.00
   -9    3    2      5.71      0.00
   -7    3    2      9.14      0.00
   -5    3    2     28.37      0.00
   -3    3    2     44.81      0.00
   -1    3    2      1.62      0.00
    1    3    2    -49.33      0.00
    3    3    2    -16.34      0.00
    5    3    2     39.18      0.00
    7    3    2     26.83      0.00
    9    3    2     -9.63      0.00
   11    3    2    -15.08      0.00
   13    3    2     -8.21      0.00
   15    3    2     -4.26      0.00
   17    3    2      2.90      0.00
   19    3    2      7.00      0.00
   21    3    2      1.44      0.00
   23    3    2     -5.94      0.00
   25    3    2     -7.51      0.00
   27    3    2     -3.76      0.00
   29    3    2      2.05      0.00
  -30    4    2     -9.78      0.00
  -28    4    2      3.68      0.00
  -26    4    2     12.00      0.00
  -24    4    2      5.75      0.00
  -22    4    2     -4.64      0.00
  -20    4    2     -2.66      0.00
  -18    4    2      6.06      0.00
  -16    4    2      1.27      0.00
  -14    4    2     -6.26      0.00
  -12    4    2      5.88      0.00
  -10    4    2     21.68      0.00
   -8    4    2     -0.94      0.00
   -4    4    2     -4.39      0.00
   -2    4    2     79.91      0.00
    0    4    2     80.89      0.00
    2    4    2     26.24      0.00
    4    4    2     20.66      0.00
    6    4    2     35.53      0.00
    8    4    2     22.72      0.00
   10    4    2      6.95      0.00
   12    4    2      7.76      0.00
   14    4    2      9.02      0.00
   16    4    2     -4.53      0.00
   18    4    2    -15.45      0.00
   20    4    2     -8.33      0.00
   22    4    2      0.81      0.00
   24    4    2      1.71      0.00
   26    4    2     -1.70      0.00
   28    4    2     -6.21      0.00
  -29    5    2     -1.83      0.00
  -27    5    2    -10.70      0.00
  -25    5    2     -9.31      0.00
  -23    5    2     -3.11      0.00
  -21    5    2     -2.19      0.00
  -19    5    2     -4.47      0.00
  -17    5    2      0.56      0.00
  -15    5    2     10.03      0.00
  -13    5    2      5.80      0.00
  -11    5    2    -13.51      0.00
   -9    5    2    -13.43      0.00
   -7    5    2     21.29      0.00
   -5    5    2     31.35      0.00
   -3    5    2    -15.23      0.00
   -1    5    2    -41.19      0.00
    1    5    2    -11.16      0.00
    3    5    2      3.55      0.00
    5    5    2    -13.90      0.00
    7    5    2    -11.05      0.00
    9    5    2      9.45      0.00
   11    5    2     10.81      0.00
   13    5    2      0.05      0.00
   15    5    2      1.59      0.00
   17    5    2      8.21      0.00
   19    5    2      4.71      0.00
   21    5    2     -1.02      0.00
   23    5    2     -1.55      0.00
   25    5    2      0.32      0.00
   27    5    2      6.18      0.00
  -30    6    2      1.03      0.00
  -28    6    2      2.86      0.00
  -26    6    2      4.15      0.00
  -24    6    2      3.18      0.00
  -22    6    2      4.51      0.00
  -20    6    2      4.90      0.00
  -18    6    2     -2.86      0.00
  -16    6    2     -6.42      0.00
  -14    6    2      1.69      0.00
  -12    6    2      8.52      0.00
  -10    6    2      4.63      0.00
   -8    6    2      2.51      0.00
   -6    6    2      9.45      0.00
   -4    6    2     -0.46      0.00
   -2    6    2    -18.27      0.00
    0    6    2     -4.39      0.00
    2    6    2      6.99      0.00
    4    6    2    -18.00      0.00
    6    6    2    -34.87      0.00
    8    6    2    -23.84      0.00
   10    6    2    -10.96      0.00
   12    6    2     -7.30      0.00
   14    6    2     -8.00      0.00
   16    6    2     -3.88      0.00
   18    6    2      4.48      0.00
   20    6    2      8.24      0.00
   22    6    2      6.36      0.00
   24    6    2      2.31      0.00
   26    6    2     -1.86      0.00
   28    6    2     -6.56      0.00
  -29    7    2      2.13      0.00
  -27    7    2      2.29      0.00
  -25    7    2      0.54      0.00
  -23    7    2      0.07      0.00
  -21    7    2     -1.60      0.00
  -19    7    2     -0.49      0.00
  -17    7    2      2.78      0.00
  -15    7    2     -1.81      0.00
  -13    7    2     -9.67      0.00
  -11    7    2     -6.78      0.00
   -9    7    2     -2.02      0.00
   -7    7    2    -13.13      0.00
   -5    7    2    -20.55      0.00
   -3    7    2     -3.21      0.00
   -1    7    2      7.48      0.00
    1    7    2     -3.85      0.00
    3    7    2      0.01      0.00
    5    7    2     21.73      0.00
    7    7    2     22.88      0.00
    9    7    2      3.10      0.00
   11    7    2     -5.51      0.00
   13    7    2      1.20      0.00
   15    7    2      2.25      0.00
   17    7    2     -4.06      0.00
   19    7    2     -6.73      0.00
   21    7    2     -6.76      0.00
   23    7    2     -3.27      0.00
   25    7    2      5.27      0.00
   27    7    2      9.86      0.00
  -28    8    2     -2.80      0.00
  -26    8    2     -0.16      0.00
  -24    8    2      1.30      0.00
  -22    8    2     -0.39      0.00
  -20    8    2     -0.52      0.00
  -18    8    2      2.32      0.00
  -16    8    2     -1.24      0.00
  -14    8    2     -7.55      0.00
  -12    8    2     -3.57      0.00
  -10    8    2      4.98      0.00
   -8    8    2      2.22      0.00
   -6    8    2     -2.53      0.00
   -4    8    2     15.21      0.00
   -2    8    2     28.99      0.00
    0    8    2      5.42      0.00
    2    8    2    -10.46      0.00
    4    8    2      5.88      0.00
    6    8    2     10.92      0.00
    8    8    2      3.21      0.00
   10    8    2      6.78      0.00
   12    8    2      9.81      0.00
   14    8    2      4.97      0.00
   16    8    2     -0.02      0.00
   18    8    2     -3.43      0.00
   20    8    2     -3.74      0.00
   22    8    2      0.10      0.00
   24    8    2     -1.15      0.00
   26    8    2    -11.80      0.00
  -27    9    2      8.91      0.00
  -25    9    2      2.25      0.00
  -23    9    2     -2.46      0.00
  -21    9    2     -0.60      0.00
  -19    9    2     -2.00      0.00
  -17    9    2     -4.92      0.00
  -15    9    2      3.57      0.00
  -13    9    2     10.73      0.00
  -11    9    2      1.22      0.00
   -9    9    2     -3.43      0.00
   -7    9    2     10.11      0.00
   -5    9    2      8.88      0.00
   -3    9    2    -12.68      0.00
   -1    9    2     -8.69      0.00
    1    9    2     15.10      0.00
    3    9    2     10.49      0.00
    5    9    2     -8.44      0.00
    7    9    2     -7.27      0.00
    9    9    2     -1.63      0.00
   11    9    2     -6.66      0.00
   13    9    2     -7.78      0.00
   15    9    2     -0.48      0.00
   17    9    2      4.49      0.00
   19    9    2      6.76      0.00
   21    9    2      7.26      0.00
   23    9    2      1.79      0.00
   25    9    2      0.64      0.00
   27    9    2      8.05      0.00
  -28   10    2    -13.52      0.00
  -26   10    2     -8.12      0.00
  -24   10    2      0.52      0.00
  -22   10    2      0.31      0.00
  -20   10    2     -4.78      0.00
  -18   10    2     -3.87      0.00
  -16   10    2      1.91      0.00
  -14   10    2      4.60      0.00
  -12   10    2      4.88      0.00
  -10   10    2      3.84      0.00
   -8   10    2      1.37      0.00
   -6   10    2      1.29      0.00
   -4   10    2     -5.05      0.00
   -2   10    2    -15.19      0.00
    0   10    2     -9.36      0.00
    2   10    2     -0.80      0.00
    4   10    2     -5.23      0.00
    6   10    2     -4.71      0.00
    8   10    2      4.41      0.00
   10   10    2      8.01      0.00
   12   10    2      2.97      0.00
   14   10    2     -3.26      0.00
   16   10    2     -1.39      0.00
   18   10    2      3.01      0.00
   20   10    2      0.05      0.00
   22   10    2     -3.00      0.00
   24   10    2      2.34      0.00
   26   10    2      9.14      0.00
  -27   11    2     -0.94      0.00
  -25   11    2     -7.13      0.00
  -23   11    2     -4.29      0.00
  -21   11    2      3.38      0.00
  -19   11    2      7.78      0.00
  -17   11    2      5.27      0.00
  -15   11    2     -5.84      0.00
  -13   11    2    -15.59      0.00
  -11   11    2    -10.96      0.00
   -9   11    2     -3.04      0.00
   -7   11    2     -6.95      0.00
   -5   11    2     -3.88      0.00
   -3   11    2     13.62      0.00
   -1   11    2     11.72      0.00
    1   11    2     -6.90      0.00
    3   11    2     -3.14      0.00
    5   11    2     10.72      0.00
    7   11    2      3.41      0.00
    9   11    2     -8.26      0.00
   11   11    2     -2.10      0.00
   13   11    2      7.09      0.00
   15   11    2      1.88      0.00
   17   11    2     -8.73      0.00
   19   11    2    -12.49      0.00
   21   11    2    -10.80      0.00
   23   11    2    -10.14      0.00
   25   11    2    -16.30      0.00
  -26   12    2      7.36      0.00
  -24   12    2      1.35      0.00
  -22   12    2     -7.55      0.00
  -20   12    2     -8.75      0.00
  -18   12    2     -8.14      0.00
  -16   12    2     -8.89      0.00
  -14   12    2     -1.60      0.00
  -12   12    2      8.65      0.00
  -10   12    2      8.68      0.00
   -8   12    2      2.88      0.00
   -6   12    2     -2.67      0.00
   -4   12    2     -3.63      0.00
   -2   12    2      4.25      0.00
    0   12    2     10.01      0.00
    2   12    2      6.04      0.00
    4   12    2      0.63      0.00
    6   12    2      0.56      0.00
    8   12    2      2.51      0.00
   10   12    2     -1.40      0.00
   12   12    2     -6.39      0.00
   14   12    2     -3.91      0.00
   16   12    2     -0.21      0.00
   18   12    2      1.67      0.00
   20   12    2      5.84      0.00
   22   12    2     11.23      0.00
   24   12    2     16.57      0.00
  -25   13    2     -2.91      0.00
  -23   13    2      3.26      0.00
  -21   13    2      1.50      0.00
  -19   13    2     -4.49      0.00
  -17   13    2     -1.91      0.00
  -15   13    2      6.13      0.00
  -13   13    2      3.76      0.00
  -11   13    2     -7.88      0.00
   -9   13    2     -9.46      0.00
   -7   13    2      3.75      0.00
   -5   13    2      9.56      0.00
   -3   13    2     -2.56      0.00
   -1   13    2     -9.06      0.00
    1   13    2      0.49      0.00
    3   13    2      3.88      0.00
    5   13    2     -5.12      0.00
    7   13    2     -6.51      0.00
    9   13    2      2.97      0.00
   11   13    2      4.65      0.00
   13   13    2     -1.57      0.00
   15   13    2      1.35      0.00
   17   13    2      8.87      0.00
   19   13    2      8.31      0.00
   21   13    2      2.54      0.00
   23   13    2     -5.23      0.00
   25   13    2    -11.40      0.00
  -24   14    2      0.33      0.00
  -22   14    2      4.79      0.00
  -20   14    2     10.65      0.00
  -18   14    2     10.15      0.00
  -16   14    2      4.83      0.00
  -14   14    2     -0.96      0.00
  -12   14    2     -2.17      0.00
  -10   14    2      1.50      0.00
   -8   14    2      1.41      0.00
   -6   14    2     -1.56      0.00
   -4   14    2     -0.49      0.00
   -2   14    2      0.38      0.00
    0   14    2     -3.95      0.00
    2   14    2     -8.70      0.00
    4   14    2     -4.70      0.00
    6   14    2      3.03      0.00
    8   14    2      0.09      0.00
   10   14    2     -5.81      0.00
   12   14    2     -2.95      0.00
   14   14    2     -1.28      0.00
   16   14    2     -5.76      0.00
   18   14    2     -8.43      0.00
   20   14    2     -7.60      0.00
   22   14    2     -5.63      0.00
   24   14    2     -1.86      0.00
  -23   15    2      5.49      0.00
  -21   15    2     -4.06      0.00
  -19   15    2     -3.40      0.00
  -17   15    2      2.62      0.00
  -15   15    2      0.75      0.00
  -13   15    2      0.49      0.00
  -11   15    2      7.08      0.00
   -9   15    2      6.22      0.00
   -7   15    2     -2.54      0.00
   -5   15    2     -4.30      0.00
   -3   15    2      1.91      0.00
   -1   15    2      5.82      0.00
    1   15    2      4.77      0.00
    3   15    2      2.30      0.00
    5   15    2      0.01      0.00
    7   15    2     -2.19      0.00
    9   15    2     -0.88      0.00
   11   15    2      6.99      0.00
   13   15    2     10.75      0.00
   15   15    2      3.90      0.00
   17   15    2      2.16      0.00
   19   15    2      9.11      0.00
   21   15    2     11.02      0.00
   23   15    2      9.24      0.00
  -22   16    2     -3.28      0.00
  -20   16    2      2.58      0.00
  -18   16    2     -3.31      0.00
  -16   16    2     -8.15      0.00
  -14   16    2     -4.29      0.00
  -12   16    2     -4.19      0.00
  -10   16    2     -6.90      0.00
   -8   16    2     -2.13      0.00
   -6   16    2      1.06      0.00
   -4   16    2     -3.05      0.00
   -2   16    2     -5.92      0.00
    0   16    2     -5.79      0.00
    2   16    2     -3.76      0.00
    4   16    2     -2.33      0.00
    6   16    2     -1.99      0.00
    8   16    2      1.36      0.00
   10   16    2     -0.85      0.00
   12   16    2     -7.73      0.00
   14   16    2     -0.61      0.00
   16   16    2     10.06      0.00
   18   16    2      4.35      0.00
   20   16    2     -3.00      0.00
   22   16    2     -0.12      0.00
  -21   17    2      2.36      0.00
  -19   17    2      1.42      0.00
  -17   17    2      1.59      0.00
  -15   17    2      5.87      0.00
  -13   17    2      7.31      0.00
  -11   17    2      2.33      0.00
   -9   17    2     -1.36      0.00
   -7   17    2     -0.76      0.00
   -5   17    2     -0.22      0.00
   -3   17    2     -0.88      0.00
   -1   17    2     -1.05      0.00
    1   17    2      1.09      0.00
    3   17    2      5.35      0.00
    5   17    2      6.41      0.00
    7   17    2      3.46      0.00
    9   17    2      2.72      0.00
   11   17    2      2.84      0.00
   13   17    2      0.83      0.00
   15   17    2      0.34      0.00
   17   17    2     -0.22      0.00
   19   17    2     -3.00      0.00
   21   17    2     -4.77      0.00
  -20   18    2     -6.36      0.00
  -18   18    2      1.61      0.00
  -16   18    2      5.40      0.00
  -14   18    2     -2.99      0.00
  -12   18    2     -3.82      0.00
  -10   18    2      3.29      0.00
   -8   18    2      3.49      0.00
   -6   18    2      2.55      0.00
   -4   18    2      3.54      0.00
   -2   18    2      1.88      0.00
    0   18    2      1.11      0.00
    2   18    2     -1.78      0.00
    4   18    2     -5.37      0.00
    6   18    2     -2.85      0.00
    8   18    2     -0.92      0.00
   10   18    2      1.22      0.00
   12   18    2      2.61      0.00
   14   18    2    -10.76      0.00
   16   18    2    -22.91      0.00
   18   18    2    -12.75      0.00
   20   18    2     -1.39      0.00
  -19   19    2     -6.03      0.00
  -17   19    2     -7.07      0.00
  -15   19    2     -1.64      0.00
  -13   19    2      4.57      0.00
  -11   19    2      3.86      0.00
   -9   19    2      0.17      0.00
   -7   19    2     -1.40      0.00
   -5   19    2     -0.85      0.00
   -3   19    2      1.94      0.00
   -1   19    2      5.40      0.00
    1   19    2      6.83      0.00
    3   19    2      6.95      0.00
    5   19    2      7.91      0.00
    7   19    2      6.02      0.00
    9   19    2     -3.85      0.00
   11   19    2    -10.62      0.00
   13   19    2     -0.31      0.00
   15   19    2     13.42      0.00
   17   19    2     11.22      0.00
  -18   20    2     10.82      0.00
  -16   20    2     -0.05      0.00
  -14   20    2     -2.15      0.00
  -12   20    2     -0.81      0.00
  -10   20    2      0.47      0.00
   -8   20    2      3.11      0.00
   -6   20    2      1.98      0.00
   -4   20    2     -0.56      0.00
   -2   20    2     -1.95      0.00
    0   20    2     -6.48      0.00
    2   20    2     -9.15      0.00
    4   20    2    -10.26      0.00
    6   20    2    -11.32      0.00
    8   20    2      0.63      0.00
   10   20    2     15.68      0.00
   12   20    2     13.14      0.00
   14   20    2      7.90      0.00
   16   20    2     11.82      0.00
  -15   21    2     11.66      0.00
  -13   21    2      9.19      0.00
  -11   21    2      4.73      0.00
   -9   21    2      3.07      0.00
   -7   21    2      4.65      0.00
   -5   21    2      6.06      0.00
   -3   21    2      4.43      0.00
   -1   21    2      4.04      0.00
    1   21    2      7.46      0.00
    3   21    2     11.66      0.00
    5   21    2     12.07      0.00
    7   21    2      4.43      0.00
    9   21    2     -5.00      0.00
   11   21    2     -6.95      0.00
   13   21    2     -7.67      0.00
   15   21    2    -12.22      0.00
  -14   22    2     -3.06      0.00
  -12   22    2     -3.17      0.00
  -10   22    2     -0.48      0.00
   -8   22    2     -3.65      0.00
   -6   22    2     -8.68      0.00
   -4   22    2    -10.07      0.00
   -2   22    2     -9.26      0.00
    0   22    2     -7.95      0.00
    2   22    2     -7.74      0.00
    4   22    2     -4.39      0.00
    6   22    2      2.81      0.00
    8   22    2      2.20      0.00
   10   22    2     -2.53      0.00
   12   22    2      2.60      0.00
  -11   23    2     -1.41      0.00
   -9   23    2     -0.31      0.00
   -7   23    2      5.25      0.00
   -5   23    2     10.91      0.00
   -3   23    2     11.72      0.00
   -1   23    2      8.81      0.00
    1   23    2      2.78      0.00
    3   23    2     -8.83      0.00
    5   23    2    -18.43      0.00
    7   23    2    -12.63      0.00
    9   23    2      1.48      0.00
   -6   24    2     -9.61      0.00
   -4   24    2    -11.20      0.00
   -2   24    2     -9.16      0.00
    0   24    2     -3.06      0.00
    2   24    2      7.70      0.00
    4   24    2     16.59      0.00
    6   24    2     13.48      0.00
  -31    1    3      2.98      0.00
  -29    1    3     -0.46      0.00
  -27    1    3     -1.57      0.00
  -25    1    3     -2.84      0.00
  -23    1    3     -5.26      0.00
  -21    1    3     -7.52      0.00
  -19    1    3     -1.59      0.00
  -17    1    3     11.11      0.00
  -15    1    3     15.49      0.00
  -13    1    3     13.90      0.00
  -11    1    3     30.58      0.00
   -9    1    3     51.01      0.00
   -7    1    3      8.52      0.00
   -5    1    3    -52.26      0.00
   -3    1    3     -4.65      0.00
   -1    1    3     53.47      0.00
    1    1    3    -29.24      0.00
    3    1    3   -110.27      0.00
    5    1    3    -65.27      0.00
    7    1    3    -12.28      0.00
    9    1    3    -10.97      0.00
   11    1    3     -8.00      0.00
   13    1    3      3.79      0.00
   15    1    3      7.33      0.00
   17    1    3      2.95      0.00
   19    1    3     -1.58      0.00
   21    1    3     -2.16      0.00
   23    1    3     -2.68      0.00
   25    1    3     -3.56      0.00
   27    1    3     -3.71      0.00
   29    1    3     -3.29      0.00
  -30    2    3     -1.77      0.00
  -28    2    3     -0.15      0.00
  -26    2    3      0.66      0.00
  -24    2    3     -0.16      0.00
  -22    2    3     -0.70      0.00
  -20    2    3     -0.79      0.00
  -18    2    3     -3.44      0.00
  -16    2    3     -7.81      0.00
  -14    2    3     -9.80      0.00
  -12    2    3    -15.76      0.00
  -10    2    3    -28.92      0.00
   -8    2    3    -22.84      0.00
   -6    2    3      3.16      0.00
   -4    2    3     -8.90      0.00
   -2    2    3    -50.14      0.00
    0    2    3    -31.17      0.00
    2    2    3     31.98      0.00
    4    2    3     40.82      0.00
    6    2    3      2.11      0.00
    8    2    3    -16.26      0.00
   10    2    3    -10.37      0.00
   12    2    3     -4.08      0.00
   14    2    3     -1.48      0.00
   16    2    3     -2.74      0.00
   18    2    3     -5.90      0.00
   20    2    3     -4.04      0.00
   22    2    3      1.88      0.00
   24    2    3      3.71      0.00
   26    2    3      2.15      0.00
   28    2    3      3.89      0.00
  -29    3    3      0.02      0.00
  -27    3    3     -0.52      0.00
  -25    3    3      3.29      0.00
  -23    3    3      8.15      0.00
  -21    3    3     10.11      0.00
  -19    3    3      5.72      0.00
  -17    3    3     -2.80      0.00
  -15    3    3     -5.77      0.00
  -13    3    3     -3.06      0.00
  -11    3    3    -12.91      0.00
   -9    3    3    -42.75      0.00
   -7    3    3    -42.96      0.00
   -5    3    3      2.64      0.00
   -3    3    3     10.65      0.00
   -1    3    3    -18.32      0.00
    1    3    3     -2.17      0.00
    3    3    3     22.10      0.00
    5    3    3      9.82      0.00
    7    3    3      8.91      0.00
    9    3    3     19.56      0.00
   11    3    3      9.56      0.00
   13    3    3     -6.05      0.00
   15    3    3     -7.94      0.00
   17    3    3      1.25      0.00
   19    3    3      6.36      0.00
   21    3    3      1.09      0.00
   23    3    3     -3.17      0.00
   25    3    3     -1.61      0.00
   27    3    3     -0.91      0.00
  -30    4    3      0.49      0.00
  -28    4    3     -0.65      0.00
  -26    4    3     -5.27      0.00
  -24    4    3     -9.57      0.00
  -22    4    3     -7.87      0.00
  -20    4    3     -4.85      0.00
  -18    4    3     -3.42      0.00
  -16    4    3      1.78      0.00
  -14    4    3      5.28      0.00
  -12    4    3      2.24      0.00
  -10    4    3     12.98      0.00
   -8    4    3     32.95      0.00
   -6    4    3     21.18      0.00
   -4    4    3     -8.46      0.00
   -2    4    3    -11.92      0.00
    0    4    3     -5.96      0.00
    2    4    3    -11.01      0.00
    4    4    3    -13.03      0.00
    6    4    3    -14.50      0.00
    8    4    3    -15.79      0.00
   10    4    3     -4.78      0.00
   12    4    3      6.08      0.00
   14    4    3      3.40      0.00
   16    4    3     -2.03      0.00
   18    4    3     -1.59      0.00
   20    4    3     -0.09      0.00
   22    4    3     -0.61      0.00
   24    4    3     -0.11      0.00
   26    4    3      0.84      0.00
   28    4    3      0.12      0.00
  -29    5    3     -0.02      0.00
  -27    5    3      5.33      0.00
  -25    5    3      8.99      0.00
  -23    5    3      6.57      0.00
  -21    5    3      1.28      0.00
  -19    5    3      5.63      0.00
  -17    5    3     12.94      0.00
  -15    5    3      5.45      0.00
  -13    5    3      0.92      0.00
  -11    5    3     19.29      0.00
   -9    5    3     34.19      0.00
   -7    5    3     11.91      0.00
   -5    5    3    -12.31      0.00
   -3    5    3     18.53      0.00
   -1    5    3     42.72      0.00
    1    5    3     -9.36      0.00
    3    5    3    -44.91      0.00
    5    5    3     -2.41      0.00
    7    5    3     26.38      0.00
    9    5    3      0.30      0.00
   11    5    3    -18.72      0.00
   13    5    3     -3.40      0.00
   15    5    3     11.60      0.00
   17    5    3      5.60      0.00
   19    5    3     -1.04      0.00
   21    5    3      1.94      0.00
   23    5    3      2.62      0.00
   25    5    3     -0.09      0.00
   27    5    3     -0.78      0.00
  -30    6    3     -0.54      0.00
  -28    6    3     -2.79      0.00
  -26    6    3     -4.72      0.00
  -24    6    3     -4.11      0.00
  -22    6    3     -2.83      0.00
  -20    6    3     -3.74      0.00
  -18    6    3     -5.45      0.00
  -16    6    3      0.09      0.00
  -14    6    3      8.70      0.00
  -12    6    3      1.70      0.00
  -10    6    3    -18.57      0.00
   -8    6    3    -18.78      0.00
   -6    6    3      5.81      0.00
   -4    6    3      6.55      0.00
   -2    6    3    -18.15      0.00
    0    6    3     -5.33      0.00
    2    6    3     30.11      0.00
    4    6    3     16.70      0.00
    6    6    3    -20.00      0.00
    8    6    3    -13.72      0.00
   10    6    3     13.73      0.00
   12    6    3     12.21      0.00
   14    6    3     -4.25      0.00
   16    6    3     -4.54      0.00
   18    6    3     -0.25      0.00
   20    6    3     -4.57      0.00
   22    6    3     -5.21      0.00
   24    6    3     -1.05      0.00
   26    6    3     -0.60      0.00
   28    6    3     -0.82      0.00
  -29    7    3     -2.64      0.00
  -27    7    3     -2.65      0.00
  -25    7    3     -0.40      0.00
  -23    7    3      3.61      0.00
  -21    7    3     10.17      0.00
  -19    7    3      8.28      0.00
  -17    7    3     -7.38      0.00
  -15    7    3    -15.86      0.00
  -13    7    3     -8.07      0.00
  -11    7    3     -3.95      0.00
   -9    7    3    -13.88      0.00
   -7    7    3    -14.55      0.00
   -5    7    3      0.85      0.00
   -3    7    3     -3.28      0.00
   -1    7    3    -17.30      0.00
    1    7    3     -0.81      0.00
    3    7    3     17.84      0.00
    5    7    3     10.59      0.00
    7    7    3      2.47      0.00
    9    7    3      0.47      0.00
   11    7    3     -2.96      0.00
   13    7    3     -4.89      0.00
   15    7    3     -5.65      0.00
   17    7    3     -2.63      0.00
   19    7    3      4.68      0.00
   21    7    3      6.32      0.00
   23    7    3     -3.43      0.00
   25    7    3    -12.97      0.00
   27    7    3    -10.04      0.00
  -28    8    3      5.78      0.00
  -26    8    3      1.89      0.00
  -24    8    3     -1.52      0.00
  -22    8    3     -5.98      0.00
  -20    8    3    -10.65      0.00
  -18    8    3     -2.25      0.00
  -16    8    3     11.03      0.00
  -14    8    3      6.11      0.00
  -12    8    3     -5.27      0.00
  -10    8    3      2.50      0.00
   -8    8    3     12.34      0.00
   -6    8    3      0.98      0.00
   -4    8    3     -3.71      0.00
   -2    8    3     12.33      0.00
    0    8    3      9.80      0.00
    2    8    3    -10.45      0.00
    4    8    3     -6.37      0.00
    6    8    3     10.92      0.00
    8    8    3      8.02      0.00
   10    8    3     -1.71      0.00
   12    8    3      3.61      0.00
   14    8    3     10.87      0.00
   16    8    3      5.36      0.00
   18    8    3     -3.08      0.00
   20    8    3     -5.94      0.00
   22    8    3     -0.43      0.00
   24    8    3     16.73      0.00
   26    8    3     28.72      0.00
  -29    9    3     -1.12      0.00
  -27    9    3      3.36      0.00
  -25    9    3      4.78      0.00
  -23    9    3      2.59      0.00
  -21    9    3      3.23      0.00
  -19    9    3      5.39      0.00
  -17    9    3      2.27      0.00
  -15    9    3     -2.89      0.00
  -13    9    3      0.25      0.00
  -11    9    3      7.98      0.00
   -9    9    3      9.54      0.00
   -7    9    3      0.79      0.00
   -5    9    3     -8.94      0.00
   -3    9    3     -0.61      0.00
   -1    9    3     10.84      0.00
    1    9    3     -0.91      0.00
    3    9    3    -14.19      0.00
    5    9    3    -11.38      0.00
    7    9    3     -6.71      0.00
    9    9    3     -3.71      0.00
   11    9    3     -3.59      0.00
   13    9    3     -6.18      0.00
   15    9    3     -2.79      0.00
   17    9    3      2.78      0.00
   19    9    3      4.83      0.00
   21    9    3      5.47      0.00
   23    9    3     -0.22      0.00
   25    9    3    -15.81      0.00
   27    9    3    -25.61      0.00
  -28   10    3     -4.33      0.00
  -26   10    3     -0.84      0.00
  -24   10    3      5.01      0.00
  -22   10    3      6.89      0.00
  -20   10    3      5.46      0.00
  -18   10    3      3.84      0.00
  -16   10    3      5.55      0.00
  -14   10    3      9.34      0.00
  -12   10    3      5.64      0.00
  -10   10    3     -6.13      0.00
   -8   10    3     -6.69      0.00
   -6   10    3      7.85      0.00
   -4   10    3      6.74      0.00
   -2   10    3    -12.25      0.00
    0   10    3    -10.67      0.00
    2   10    3      7.37      0.00
    4   10    3      7.48      0.00
    6   10    3     -3.19      0.00
    8   10    3     -3.98      0.00
   10   10    3     -0.18      0.00
   12   10    3     -1.24      0.00
   14   10    3     -4.19      0.00
   16   10    3     -4.91      0.00
   18   10    3     -6.14      0.00
   20   10    3     -8.27      0.00
   22   10    3     -8.23      0.00
   24   10    3     -3.43      0.00
   26   10    3      6.95      0.00
  -27   11    3     -0.58      0.00
  -25   11    3     -8.62      0.00
  -23   11    3     -9.10      0.00
  -21   11    3     -5.69      0.00
  -19   11    3     -7.99      0.00
  -17   11    3    -13.11      0.00
  -15   11    3    -11.57      0.00
  -13   11    3     -5.06      0.00
  -11   11    3     -0.63      0.00
   -9   11    3     -1.16      0.00
   -7   11    3     -0.53      0.00
   -5   11    3      6.38      0.00
   -3   11    3      6.57      0.00
   -1   11    3     -0.23      0.00
    1   11    3      3.76      0.00
    3   11    3     10.52      0.00
    5   11    3      7.72      0.00
    7   11    3      4.03      0.00
    9   11    3      3.13      0.00
   11   11    3      2.24      0.00
   13   11    3      0.28      0.00
   15   11    3     -0.90      0.00
   17   11    3      3.38      0.00
   19   11    3      9.67      0.00
   21   11    3     11.25      0.00
   23   11    3      7.13      0.00
   25   11    3      1.09      0.00
  -26   12    3      9.45      0.00
  -24   12    3      7.13      0.00
  -22   12    3     -0.47      0.00
  -20   12    3     -2.92      0.00
  -18   12    3      4.31      0.00
  -16   12    3      7.64      0.00
  -14   12    3     -2.06      0.00
  -12   12    3     -9.15      0.00
  -10   12    3     -0.31      0.00
   -8   12    3      5.72      0.00
   -6   12    3     -5.59      0.00
   -4   12    3     -8.10      0.00
   -2   12    3      7.13      0.00
    0   12    3      5.93      0.00
    2   12    3    -12.07      0.00
    4   12    3    -12.59      0.00
    6   12    3      1.12      0.00
    8   12    3      3.78      0.00
   10   12    3     -1.09      0.00
   12   12    3      2.65      0.00
   14   12    3      8.28      0.00
   16   12    3      3.04      0.00
   18   12    3     -5.31      0.00
   20   12    3     -8.17      0.00
   22   12    3     -6.29      0.00
   24   12    3     -0.84      0.00
  -25   13    3     -8.05      0.00
  -23   13    3     -2.52      0.00
  -21   13    3      1.29      0.00
  -19   13    3      1.90      0.00
  -17   13    3     -0.23      0.00
  -15   13    3     -0.12      0.00
  -13   13    3      4.87      0.00
  -11   13    3      6.21      0.00
   -9   13    3      2.25      0.00
   -7   13    3      1.46      0.00
   -5   13    3     -0.92      0.00
   -3   13    3     -7.02      0.00
   -1   13    3     -5.57      0.00
    1   13    3      3.21      0.00
    3   13    3      8.55      0.00
    5   13    3      5.27      0.00
    7   13    3      0.29      0.00
    9   13    3      1.34      0.00
   11   13    3      1.65      0.00
   13   13    3     -2.11      0.00
   15   13    3     -2.91      0.00
   17   13    3     -2.04      0.00
   19   13    3     -4.32      0.00
   21   13    3     -7.59      0.00
   23   13    3     -7.23      0.00
  -24   14    3     -2.68      0.00
  -22   14    3     -1.94      0.00
  -20   14    3     -0.35      0.00
  -18   14    3     -2.55      0.00
  -16   14    3     -3.79      0.00
  -14   14    3     -0.78      0.00
  -12   14    3     -1.28      0.00
  -10   14    3     -8.49      0.00
   -8   14    3    -10.59      0.00
   -6   14    3     -0.24      0.00
   -4   14    3      8.91      0.00
   -2   14    3      6.18      0.00
    0   14    3      2.29      0.00
    2   14    3      3.28      0.00
    4   14    3      0.49      0.00
    6   14    3     -5.63      0.00
    8   14    3     -4.50      0.00
   10   14    3     -0.28      0.00
   12   14    3     -5.84      0.00
   14   14    3    -12.07      0.00
   16   14    3     -6.49      0.00
   18   14    3      1.25      0.00
   20   14    3      5.84      0.00
   22   14    3      7.81      0.00
  -23   15    3      1.04      0.00
  -21   15    3     -3.47      0.00
  -19   15    3     -9.21      0.00
  -17   15    3    -10.39      0.00
  -15   15    3     -7.32      0.00
  -13   15    3     -4.98      0.00
  -11   15    3     -0.28      0.00
   -9   15    3      6.29      0.00
   -7   15    3      6.18      0.00
   -5   15    3      2.44      0.00
   -3   15    3      1.12      0.00
   -1   15    3     -0.46      0.00
    1   15    3     -3.00      0.00
    3   15    3     -2.57      0.00
    5   15    3      3.23      0.00
    7   15    3      4.83      0.00
    9   15    3     -3.07      0.00
   11   15    3     -2.33      0.00
   13   15    3      9.47      0.00
   15   15    3     10.68      0.00
   17   15    3      2.34      0.00
   19   15    3     -1.84      0.00
   21   15    3     -2.51      0.00
  -22   16    3      4.51      0.00
  -20   16    3      6.35      0.00
  -18   16    3     13.69      0.00
  -16   16    3     16.52      0.00
  -14   16    3      9.23      0.00
  -12   16    3      3.82      0.00
  -10   16    3      3.96      0.00
   -8   16    3      0.97      0.00
   -6   16    3     -5.06      0.00
   -4   16    3     -7.05      0.00
   -2   16    3     -3.55      0.00
    0   16    3      0.35      0.00
    2   16    3     -2.03      0.00
    4   16    3     -8.34      0.00
    6   16    3     -7.08      0.00
    8   16    3      0.37      0.00
   10   16    3      2.68      0.00
   12   16    3      1.19      0.00
   14   16    3     -0.69      0.00
   16   16    3     -1.72      0.00
   18   16    3      4.61      0.00
   20   16    3     11.31      0.00
  -21   17    3     -0.55      0.00
  -19   17    3      1.50      0.00
  -17   17    3     -2.87      0.00
  -15   17    3     -7.24      0.00
  -13   17    3     -7.93      0.00
  -11   17    3    -10.24      0.00
   -9   17    3     -9.29      0.00
   -7   17    3     -2.55      0.00
   -5   17    3      0.80      0.00
   -3   17    3      1.27      0.00
   -1   17    3      2.17      0.00
    1   17    3      3.35      0.00
    3   17    3      8.12      0.00
    5   17    3      7.61      0.00
    7   17    3     -1.04      0.00
    9   17    3     -3.39      0.00
   11   17    3     -3.37      0.00
   13   17    3     -4.68      0.00
   15   17    3      2.69      0.00
   17   17    3      4.45      0.00
   19   17    3     -8.09      0.00
  -20   18    3     -4.38      0.00
  -18   18    3    -15.21      0.00
  -16   18    3    -18.71      0.00
  -14   18    3     -6.05      0.00
  -12   18    3      7.66      0.00
  -10   18    3      8.62      0.00
   -8   18    3      3.44      0.00
   -6   18    3      2.09      0.00
   -4   18    3      2.35      0.00
   -2   18    3     -0.35      0.00
    0   18    3     -4.06      0.00
    2   18    3     -4.59      0.00
    4   18    3     -1.43      0.00
    6   18    3      0.62      0.00
    8   18    3      1.15      0.00
   10   18    3      3.88      0.00
   12   18    3      2.19      0.00
   14   18    3     -6.18      0.00
   16   18    3     -6.69      0.00
   18   18    3      3.57      0.00
  -19   19    3      5.19      0.00
  -17   19    3     25.61      0.00
  -15   19    3     26.86      0.00
  -13   19    3      5.81      0.00
  -11   19    3     -6.85      0.00
   -9   19    3     -5.01      0.00
   -7   19    3     -2.47      0.00
   -5   19    3     -1.26      0.00
   -3   19    3     -2.36      0.00
   -1   19    3     -4.14      0.00
    1   19    3     -4.93      0.00
    3   19    3     -9.86      0.00
    5   19    3     -8.99      0.00
    7   19    3      0.09      0.00
    9   19    3     -1.08      0.00
   11   19    3     -2.79      0.00
   13   19    3      7.97      0.00
   15   19    3      9.24      0.00
   17   19    3     -2.08      0.00
  -18   20    3    -16.97      0.00
  -16   20    3    -26.04      0.00
  -14   20    3    -20.75      0.00
  -12   20    3     -8.43      0.00
  -10   20    3     -1.94      0.00
   -8   20    3     -1.96      0.00
   -6   20    3     -3.19      0.00
   -4   20    3     -0.42      0.00
   -2   20    3      5.89      0.00
    0   20    3     11.57      0.00
    2   20    3     15.71      0.00
    4   20    3     13.89      0.00
    6   20    3      4.97      0.00
    8   20    3     -0.36      0.00
   10   20    3     -0.40      0.00
   12   20    3     -2.67      0.00
   14   20    3     -4.35      0.00
   16   20    3     -2.57      0.00
  -15   21    3     -1.52      0.00
  -13   21    3      6.00      0.00
  -11   21    3     10.63      0.00
   -9   21    3      9.33      0.00
   -7   21    3      5.60      0.00
   -5   21    3     -2.66      0.00
   -3   21    3     -9.56      0.00
   -1   21    3    -10.01      0.00
    1   21    3     -8.19      0.00
    3   21    3     -3.73      0.00
    5   21    3      0.80      0.00
    7   21    3      3.13      0.00
    9   21    3      7.78      0.00
   11   21    3      6.01      0.00
   13   21    3     -5.36      0.00
  -14   22    3     23.40      0.00
  -12   22    3      1.72      0.00
  -10   22    3    -10.84      0.00
   -8   22    3     -7.60      0.00
   -6   22    3      5.66      0.00
   -4   22    3     17.28      0.00
   -2   22    3     16.85      0.00
    0   22    3      6.39      0.00
    2   22    3     -2.72      0.00
    4   22    3     -2.62      0.00
    6   22    3      0.24      0.00
    8   22    3     -3.67      0.00
   10   22    3     -5.44      0.00
   12   22    3      4.04      0.00
  -11   23    3     20.53      0.00
   -9   23    3     26.78      0.00
   -7   23    3     16.01      0.00
   -5   23    3      0.99      0.00
   -3   23    3     -6.29      0.00
   -1   23    3     -3.69      0.00
    1   23    3      1.62      0.00
    3   23    3     -0.35      0.00
    5   23    3     -5.22      0.00
    7   23    3     -4.14      0.00
    9   23    3     -2.49      0.00
   -6   24    3    -14.01      0.00
   -4   24    3     -7.33      0.00
   -2   24    3     -4.46      0.00
    0   24    3      0.02      0.00
    2   24    3      5.16      0.00
    4   24    3      4.88      0.00
  -30    0    4     -4.46      0.00
  -28    0    4     -0.65      0.00
  -26    0    4     -2.14      0.00
  -24    0    4     -3.92      0.00
  -22    0    4     -0.12      0.00
  -20    0    4      6.00      0.00
  -18    0    4      5.09      0.00
  -16    0    4      1.85      0.00
  -14    0    4     11.68      0.00
  -12    0    4     33.60      0.00
  -10    0    4     32.03      0.00
   -8    0    4      0.23      0.00
   -6    0    4     20.23      0.00
   -4    0    4     94.89      0.00
   -2    0    4     99.13      0.00
    2    0    4     20.26      0.00
    4    0    4      7.34      0.00
    6    0    4     -8.55      0.00
    8    0    4      7.63      0.00
   10    0    4     20.60      0.00
   12    0    4     12.90      0.00
   14    0    4      8.00      0.00
   16    0    4      0.84      0.00
   18    0    4     -5.47      0.00
   20    0    4      0.20      0.00
   22    0    4      2.95      0.00
   24    0    4     -8.01      0.00
   26    0    4    -18.75      0.00
   28    0    4    -17.31      0.00
  -31    1    4      4.04      0.00
  -29    1    4      2.65      0.00
  -27    1    4      1.70      0.00
  -25    1    4      2.66      0.00
  -23    1    4      2.45      0.00
  -21    1    4      1.16      0.00
  -19    1    4      0.67      0.00
  -17    1    4     -0.41      0.00
  -15    1    4     -2.07      0.00
  -13    1    4     -4.57      0.00
  -11    1    4     -6.63      0.00
   -9    1    4      3.18      0.00
   -7    1    4     22.67      0.00
   -5    1    4     22.29      0.00
   -3    1    4     -8.08      0.00
   -1    1    4    -32.79      0.00
    1    1    4    -16.18      0.00
    3    1    4     24.74      0.00
    5    1    4     37.23      0.00
    7    1    4     12.43      0.00
    9    1    4     -4.23      0.00
   11    1    4      0.81      0.00
   13    1    4      0.36      0.00
   15    1    4     -4.96      0.00
   17    1    4      0.14      0.00
   19    1    4      4.11      0.00
   21    1    4     -0.97      0.00
   23    1    4      0.01      0.00
   25    1    4     10.53      0.00
   27    1    4     14.93      0.00
  -30    2    4     -2.05      0.00
  -28    2    4     -2.88      0.00
  -26    2    4     -1.55      0.00
  -24    2    4     -0.86      0.00
  -22    2    4     -2.67      0.00
  -20    2    4     -7.47      0.00
  -18    2    4     -5.70      0.00
  -16    2    4      1.51      0.00
  -14    2    4     -3.23      0.00
  -12    2    4    -18.56      0.00
  -10    2    4    -15.97      0.00
   -8    2    4     -4.64      0.00
   -6    2    4    -43.86      0.00
   -2    2    4    -16.64      0.00
    0    2    4     56.00      0.00
    2    2    4      3.56      0.00
    4    2    4    -52.70      0.00
    6    2    4    -20.09      0.00
    8    2    4      9.11      0.00
   10    2    4     -3.89      0.00
   12    2    4    -11.11      0.00
   14    2    4      0.06      0.00
   16    2    4      7.25      0.00
   18    2    4      1.60      0.00
   20    2    4     -1.42      0.00
   22    2    4      2.22      0.00
   24    2    4      0.13      0.00
   26    2    4     -5.18      0.00
   28    2    4     -4.70      0.00
  -31    3    4      0.37      0.00
  -29    3    4      1.30      0.00
  -27    3    4      1.96      0.00
  -25    3    4      1.23      0.00
  -23    3    4      0.06      0.00
  -21    3    4     -0.50      0.00
  -19    3    4     -0.63      0.00
  -17    3    4     -1.65      0.00
  -15    3    4     -4.25      0.00
  -13    3    4     -3.54      0.00
  -11    3    4      0.91      0.00
   -9    3    4      2.42      0.00
   -7    3    4     12.34      0.00
   -5    3    4     29.52      0.00
   -3    3    4     12.43      0.00
   -1    3    4    -28.36      0.00
    1    3    4    -26.06      0.00
    3    3    4      7.82      0.00
    5    3    4     12.44      0.00
    7    3    4     -5.28      0.00
    9    3    4    -11.08      0.00
   11    3    4     -5.49      0.00
   13    3    4     -0.55      0.00
   15    3    4      0.21      0.00
   17    3    4     -0.01      0.00
   19    3    4      1.57      0.00
   21    3    4      2.91      0.00
   23    3    4      2.63      0.00
   25    3    4      1.68      0.00
   27    3    4      2.00      0.00
  -30    4    4      5.21      0.00
  -28    4    4      3.31      0.00
  -26    4    4      0.16      0.00
  -24    4    4     -0.57      0.00
  -22    4    4     -0.97      0.00
  -20    4    4      1.04      0.00
  -18    4    4     -1.68      0.00
  -16    4    4     -8.00      0.00
  -14    4    4      0.72      0.00
  -12    4    4     18.33      0.00
  -10    4    4      7.81      0.00
   -8    4    4    -27.92      0.00
   -6    4    4    -20.33      0.00
   -4    4    4     25.76      0.00
   -2    4    4     15.94      0.00
    0    4    4    -21.75      0.00
    2    4    4     -2.35      0.00
    4    4    4     18.01      0.00
    6    4    4     -4.76      0.00
    8    4    4    -10.14      0.00
   10    4    4      9.84      0.00
   12    4    4     11.65      0.00
   14    4    4     -2.66      0.00
   16    4    4     -7.31      0.00
   18    4    4     -3.31      0.00
   20    4    4     -5.06      0.00
   22    4    4     -6.53      0.00
   24    4    4     -0.71      0.00
   26    4    4      1.41      0.00
   28    4    4     -3.82      0.00
  -29    5    4     -2.23      0.00
  -27    5    4      0.55      0.00
  -25    5    4     -0.83      0.00
  -23    5    4     -0.09      0.00
  -21    5    4      4.47      0.00
  -19    5    4      6.12      0.00
  -17    5    4      7.84      0.00
  -15    5    4      9.98      0.00
  -13    5    4      0.31      0.00
  -11    5    4    -10.88      0.00
   -9    5    4      2.41      0.00
   -7    5    4     13.20      0.00
   -5    5    4    -13.69      0.00
   -3    5    4    -31.09      0.00
   -1    5    4     -9.14      0.00
    1    5    4     -2.67      0.00
    3    5    4    -17.19      0.00
    5    5    4     -3.71      0.00
    7    5    4     19.22      0.00
    9    5    4     12.51      0.00
   11    5    4     -1.15      0.00
   13    5    4      2.90      0.00
   15    5    4      5.78      0.00
   17    5    4     -1.58      0.00
   19    5    4     -0.59      0.00
   21    5    4      5.35      0.00
   23    5    4     -1.07      0.00
   25    5    4     -7.89      0.00
   27    5    4     -1.39      0.00
  -30    6    4     -4.94      0.00
  -28    6    4     -8.38      0.00
  -26    6    4     -5.24      0.00
  -24    6    4     -0.35      0.00
  -22    6    4     -1.07      0.00
  -20    6    4     -4.79      0.00
  -18    6    4      0.59      0.00
  -16    6    4      6.88      0.00
  -14    6    4     -0.10      0.00
  -12    6    4     -5.49      0.00
  -10    6    4      5.39      0.00
   -8    6    4     18.27      0.00
   -6    6    4      8.47      0.00
   -4    6    4     -8.04      0.00
   -2    6    4      9.13      0.00
    0    6    4     28.94      0.00
    2    6    4      6.33      0.00
    4    6    4    -18.74      0.00
    6    6    4    -17.00      0.00
    8    6    4    -13.34      0.00
   10    6    4    -13.94      0.00
   12    6    4    -11.47      0.00
   14    6    4     -4.38      0.00
   16    6    4      5.82      0.00
   18    6    4      7.91      0.00
   20    6    4      0.30      0.00
   22    6    4     -1.25      0.00
   24    6    4      9.11      0.00
   26    6    4     15.15      0.00
  -29    7    4      4.14      0.00
  -27    7    4      4.27      0.00
  -25    7    4      3.27      0.00
  -23    7    4      1.72      0.00
  -21    7    4     -0.09      0.00
  -19    7    4     -3.67      0.00
  -17    7    4     -8.92      0.00
  -15    7    4     -7.13      0.00
  -13    7    4      1.37      0.00
  -11    7    4     -0.37      0.00
   -9    7    4    -14.90      0.00
   -7    7    4    -13.40      0.00
   -5    7    4     12.61      0.00
   -3    7    4     20.90      0.00
   -1    7    4      1.28      0.00
    1    7    4     -1.28      0.00
    3    7    4     15.39      0.00
    5    7    4     16.22      0.00
    7    7    4      7.09      0.00
    9    7    4      7.61      0.00
   11    7    4      8.66      0.00
   13    7    4      0.88      0.00
   15    7    4     -6.12      0.00
   17    7    4     -5.94      0.00
   19    7    4     -1.80      0.00
   21    7    4      5.60      0.00
   23    7    4      7.42      0.00
   25    7    4     -5.62      0.00
   27    7    4    -16.98      0.00
  -28    8    4      3.92      0.00
  -26    8    4      2.10      0.00
  -24    8    4     -2.47      0.00
  -22    8    4     -3.10      0.00
  -20    8    4      2.10      0.00
  -18    8    4      0.55      0.00
  -16    8    4     -8.86      0.00
  -14    8    4     -8.98      0.00
  -12    8    4      1.26      0.00
  -10    8    4      4.31      0.00
   -8    8    4     -5.15      0.00
   -6    8    4     -8.33      0.00
   -4    8    4     -4.62      0.00
   -2    8    4    -18.10      0.00
    0    8    4    -28.65      0.00
    2    8    4     -9.43      0.00
    4    8    4      5.61      0.00
    6    8    4     -1.77      0.00
    8    8    4     -6.00      0.00
   10    8    4      0.48      0.00
   12    8    4      7.70      0.00
   14    8    4      8.26      0.00
   16    8    4      3.81      0.00
   18    8    4      1.18      0.00
   20    8    4     -4.67      0.00
   22    8    4    -16.57      0.00
   24    8    4    -20.86      0.00
   26    8    4     -9.35      0.00
  -29    9    4     -3.20      0.00
  -27    9    4     -5.24      0.00
  -25    9    4     -3.96      0.00
  -23    9    4      1.16      0.00
  -21    9    4      2.66      0.00
  -19    9    4      5.22      0.00
  -17    9    4     17.60      0.00
  -15    9    4     23.59      0.00
  -13    9    4      9.72      0.00
  -11    9    4     -1.71      0.00
   -9    9    4      7.57      0.00
   -7    9    4     13.24      0.00
   -5    9    4      0.22      0.00
   -3    9    4     -0.96      0.00
   -1    9    4     12.39      0.00
    1    9    4      3.16      0.00
    3    9    4    -19.07      0.00
    5    9    4    -18.04      0.00
    7    9    4     -3.89      0.00
    9    9    4     -2.66      0.00
   11    9    4     -8.74      0.00
   13    9    4     -5.88      0.00
   15    9    4      1.03      0.00
   17    9    4      1.93      0.00
   19    9    4      3.17      0.00
   21    9    4     10.02      0.00
   23    9    4     18.05      0.00
   25    9    4     20.64      0.00
  -28   10    4     -6.47      0.00
  -26   10    4     -1.62      0.00
  -24   10    4      2.59      0.00
  -22   10    4      4.24      0.00
  -20   10    4      2.79      0.00
  -18   10    4     -3.05      0.00
  -16   10    4     -7.74      0.00
  -14   10    4     -5.00      0.00
  -12   10    4      0.94      0.00
  -10   10    4      2.69      0.00
   -8   10    4      2.15      0.00
   -6   10    4     -3.27      0.00
   -4   10    4    -11.80      0.00
   -2   10    4     -4.10      0.00
    0   10    4     11.93      0.00
    2   10    4     12.43      0.00
    4   10    4      7.50      0.00
    6   10    4      6.99      0.00
    8   10    4      4.69      0.00
   10   10    4      3.11      0.00
   12   10    4      2.60      0.00
   14   10    4      1.29      0.00
   16   10    4      0.91      0.00
   18   10    4     -0.15      0.00
   20   10    4     -2.65      0.00
   22   10    4     -4.88      0.00
   24   10    4     -4.21      0.00
  -27   11    4     10.60      0.00
  -25   11    4      8.04      0.00
  -23   11    4      2.04      0.00
  -21   11    4     -3.38      0.00
  -19   11    4     -3.22      0.00
  -17   11    4     -2.20      0.00
  -15   11    4     -3.58      0.00
  -13   11    4     -2.01      0.00
  -11   11    4     -1.01      0.00
   -9   11    4     -9.63      0.00
   -7   11    4    -12.24      0.00
   -5   11    4      3.19      0.00
   -3   11    4      7.39      0.00
   -1   11    4     -7.89      0.00
    1   11    4     -8.00      0.00
    3   11    4      7.26      0.00
    5   11    4      9.41      0.00
    7   11    4      1.86      0.00
    9   11    4      1.87      0.00
   11   11    4      5.15      0.00
   13   11    4      1.02      0.00
   15   11    4     -4.13      0.00
   17   11    4     -3.38      0.00
   19   11    4     -2.75      0.00
   21   11    4     -2.42      0.00
   23   11    4     -2.03      0.00
   25   11    4     -6.19      0.00
  -26   12    4     -0.54      0.00
  -24   12    4     -3.31      0.00
  -22   12    4      0.97      0.00
  -20   12    4      4.87      0.00
  -18   12    4      2.17      0.00
  -16   12    4      0.45      0.00
  -14   12    4      3.06      0.00
  -12   12    4      2.97      0.00
  -10   12    4      2.38      0.00
   -8   12    4      5.12      0.00
   -6   12    4      7.75      0.00
   -4   12    4      8.92      0.00
   -2   12    4      5.20      0.00
    0   12    4     -1.56      0.00
    2   12    4     -4.83      0.00
    4   12    4     -7.47      0.00
    6   12    4     -8.79      0.00
    8   12    4     -6.96      0.00
   10   12    4     -7.07      0.00
   12   12    4     -7.18      0.00
   14   12    4     -4.99      0.00
   16   12    4     -2.62      0.00
   18   12    4      1.18      0.00
   20   12    4      4.91      0.00
   22   12    4      4.74      0.00
   24   12    4      1.79      0.00
  -25   13    4     -5.35      0.00
  -23   13    4     -2.27      0.00
  -21   13    4     -1.93      0.00
  -19   13    4      0.48      0.00
  -17   13    4      4.42      0.00
  -15   13    4      2.89      0.00
  -13   13    4     -2.59      0.00
  -11   13    4     -1.65      0.00
   -9   13    4      6.28      0.00
   -7   13    4      4.50      0.00
   -5   13    4     -9.86      0.00
   -3   13    4    -12.23      0.00
   -1   13    4     -0.52      0.00
    1   13    4     -0.04      0.00
    3   13    4     -7.06      0.00
    5   13    4     -1.25      0.00
    7   13    4      8.61      0.00
    9   13    4      4.85      0.00
   11   13    4     -3.10      0.00
   13   13    4      1.13      0.00
   15   13    4      7.23      0.00
   17   13    4      3.69      0.00
   19   13    4     -0.14      0.00
   21   13    4     -0.74      0.00
   23   13    4      0.31      0.00
  -24   14    4     10.00      0.00
  -22   14    4      4.87      0.00
  -20   14    4     -2.45      0.00
  -18   14    4     -1.65      0.00
  -16   14    4      3.80      0.00
  -14   14    4      4.78      0.00
  -12   14    4      0.92      0.00
  -10   14    4     -5.76      0.00
   -8   14    4     -8.25      0.00
   -6   14    4     -1.30      0.00
   -4   14    4      3.62      0.00
   -2   14    4      1.91      0.00
    0   14    4      3.84      0.00
    2   14    4      8.85      0.00
    4   14    4      6.05      0.00
    6   14    4     -4.71      0.00
    8   14    4     -5.90      0.00
   10   14    4      7.06      0.00
   12   14    4     11.78      0.00
   14   14    4      2.85      0.00
   16   14    4     -2.97      0.00
   18   14    4     -4.46      0.00
   20   14    4     -7.78      0.00
   22   14    4     -9.49      0.00
  -25   15    4     -5.05      0.00
  -23   15    4     -5.01      0.00
  -21   15    4      3.00      0.00
  -19   15    4      5.05      0.00
  -17   15    4     -5.71      0.00
  -15   15    4    -11.55      0.00
  -13   15    4     -3.46      0.00
  -11   15    4      4.88      0.00
   -9   15    4      4.37      0.00
   -7   15    4      1.86      0.00
   -5   15    4      3.44      0.00
   -3   15    4      3.96      0.00
   -1   15    4     -1.09      0.00
    1   15    4     -5.27      0.00
    3   15    4     -1.13      0.00
    5   15    4      5.86      0.00
    7   15    4      4.56      0.00
    9   15    4     -1.85      0.00
   11   15    4     -5.80      0.00
   13   15    4     -9.46      0.00
   15   15    4     -9.27      0.00
   17   15    4     -3.07      0.00
   19   15    4      0.88      0.00
   21   15    4      2.87      0.00
  -22   16    4    -10.85      0.00
  -20   16    4     -6.56      0.00
  -18   16    4     -1.09      0.00
  -16   16    4      3.18      0.00
  -14   16    4      1.83      0.00
  -12   16    4     -2.95      0.00
  -10   16    4     -3.67      0.00
   -8   16    4     -2.16      0.00
   -6   16    4     -2.42      0.00
   -4   16    4     -1.21      0.00
   -2   16    4      0.94      0.00
    0   16    4      2.24      0.00
    2   16    4      0.74      0.00
    4   16    4     -4.20      0.00
    6   16    4     -2.80      0.00
    8   16    4      1.89      0.00
   10   16    4     -1.70      0.00
   12   16    4     -1.83      0.00
   14   16    4      5.79      0.00
   16   16    4      6.60      0.00
   18   16    4      3.69      0.00
   20   16    4      3.54      0.00
  -21   17    4      4.64      0.00
  -19   17    4     -7.62      0.00
  -17   17    4     -2.26      0.00
  -15   17    4      6.58      0.00
  -13   17    4      5.80      0.00
  -11   17    4      3.14      0.00
   -9   17    4      3.65      0.00
   -7   17    4      2.41      0.00
   -5   17    4     -0.72      0.00
   -3   17    4     -1.35      0.00
   -1   17    4      0.71      0.00
    1   17    4      3.19      0.00
    3   17    4      3.61      0.00
    5   17    4      1.57      0.00
    7   17    4      1.04      0.00
    9   17    4      1.66      0.00
   11   17    4      1.58      0.00
   13   17    4      3.32      0.00
   15   17    4      1.36      0.00
   17   17    4     -7.03      0.00
   19   17    4    -10.17      0.00
  -20   18    4     16.28      0.00
  -18   18    4     16.57      0.00
  -16   18    4     -0.66      0.00
  -14   18    4    -11.07      0.00
  -12   18    4     -8.67      0.00
  -10   18    4     -4.31      0.00
   -8   18    4      2.24      0.00
   -6   18    4      6.61      0.00
   -4   18    4      2.08      0.00
   -2   18    4     -1.92      0.00
    0   18    4     -2.37      0.00
    2   18    4     -2.95      0.00
    4   18    4     -1.64      0.00
    6   18    4     -5.08      0.00
    8   18    4     -8.53      0.00
   10   18    4     -1.35      0.00
   12   18    4     -0.53      0.00
   14   18    4     -7.36      0.00
   16   18    4      0.39      0.00
   18   18    4     11.59      0.00
  -19   19    4    -12.78      0.00
  -17   19    4     -9.07      0.00
  -15   19    4      1.56      0.00
  -13   19    4     11.47      0.00
  -11   19    4     11.82      0.00
   -9   19    4      1.28      0.00
   -7   19    4     -8.18      0.00
   -5   19    4     -6.30      0.00
   -3   19    4     -1.37      0.00
   -1   19    4     -3.05      0.00
    1   19    4     -7.33      0.00
    3   19    4     -6.17      0.00
    5   19    4      2.10      0.00
    7   19    4      7.96      0.00
    9   19    4      4.91      0.00
   11   19    4      1.40      0.00
   13   19    4      1.50      0.00
   15   19    4      0.70      0.00
   17   19    4      0.67      0.00
  -18   20    4    -10.33      0.00
  -16   20    4     -2.64      0.00
  -14   20    4     -6.99      0.00
  -12   20    4    -18.30      0.00
  -10   20    4    -18.55      0.00
   -8   20    4    -12.43      0.00
   -6   20    4     -7.67      0.00
   -4   20    4     -0.99      0.00
   -2   20    4      5.26      0.00
    0   20    4      9.78      0.00
    2   20    4      9.89      0.00
    4   20    4      0.37      0.00
    6   20    4     -6.59      0.00
    8   20    4     -5.87      0.00
   10   20    4     -7.02      0.00
   12   20    4     -1.01      0.00
   14   20    4     10.68      0.00
  -15   21    4     -5.90      0.00
  -13   21    4     -3.06      0.00
  -11   21    4      5.15      0.00
   -9   21    4     12.39      0.00
   -7   21    4     14.81      0.00
   -5   21    4      5.94      0.00
   -3   21    4     -6.64      0.00
   -1   21    4    -10.09      0.00
    1   21    4     -4.69      0.00
    3   21    4      1.54      0.00
    5   21    4      2.43      0.00
    7   21    4      1.96      0.00
    9   21    4      3.79      0.00
   11   21    4     -2.78      0.00
   13   21    4    -16.60      0.00
  -14   22    4      3.29      0.00
  -12   22    4      5.72      0.00
  -10   22    4      1.13      0.00
   -8   22    4     -6.06      0.00
   -6   22    4     -5.00      0.00
   -4   22    4      2.92      0.00
   -2   22    4      6.02      0.00
    0   22    4     -1.59      0.00
    2   22    4     -8.65      0.00
    4   22    4     -3.69      0.00
    6   22    4      0.83      0.00
    8   22    4     -1.27      0.00
   10   22    4      5.57      0.00
  -11   23    4     -7.58      0.00
   -9   23    4     -7.72      0.00
   -7   23    4     -4.62      0.00
   -5   23    4     -3.52      0.00
   -3   23    4     -1.70      0.00
   -1   23    4      5.18      0.00
    1   23    4     10.84      0.00
    3   23    4      8.48      0.00
    5   23    4      5.22      0.00
    7   23    4      4.97      0.00
   -6   24    4      9.61      0.00
   -4   24    4      5.61      0.00
   -2   24    4      2.48      0.00
    0   24    4      0.60      0.00
    2   24    4     -1.25      0.00
    4   24    4     -5.16      0.00
  -31    1    5      0.00      0.00
  -29    1    5      2.87      0.00
  -27    1    5      2.49      0.00
  -25    1    5     -1.34      0.00
  -23    1    5     -5.36      0.00
  -21    1    5     -3.94      0.00
  -19    1    5      3.13      0.00
  -17    1    5      3.28      0.00
  -15    1    5     -3.17      0.00
  -13    1    5      4.58      0.00
  -11    1    5     28.22      0.00
   -9    1    5     24.28      0.00
   -7    1    5     -8.21      0.00
   -5    1    5     14.33      0.00
   -3    1    5     70.20      0.00
   -1    1    5     46.09      0.00
    1    1    5     -4.11      0.00
    3    1    5      9.97      0.00
    5    1    5     20.33      0.00
    7    1    5     -5.68      0.00
    9    1    5    -12.66      0.00
   11    1    5      1.28      0.00
   13    1    5      9.50      0.00
   15    1    5      6.77      0.00
   17    1    5      0.51      0.00
   19    1    5     -0.03      0.00
   21    1    5     -1.05      0.00
   23    1    5     -5.81      0.00
   25    1    5     -4.60      0.00
   27    1    5      2.06      0.00
  -30    2    5      0.78      0.00
  -28    2    5      0.62      0.00
  -26    2    5     -0.17      0.00
  -24    2    5     -0.81      0.00
  -22    2    5     -0.19      0.00
  -20    2    5     -0.10      0.00
  -18    2    5     -2.03      0.00
  -16    2    5     -2.50      0.00
  -14    2    5      1.30      0.00
  -12    2    5      1.91      0.00
  -10    2    5     -0.01      0.00
   -8    2    5     10.62      0.00
   -6    2    5     25.12      0.00
   -4    2    5     24.21      0.00
   -2    2    5     20.84      0.00
    0    2    5     23.60      0.00
    2    2    5     17.84      0.00
    4    2    5      7.50      0.00
    6    2    5      4.58      0.00
    8    2    5      3.97      0.00
   10    2    5      0.63      0.00
   12    2    5     -3.44      0.00
   14    2    5     -4.11      0.00
   16    2    5     -0.66      0.00
   18    2    5      1.77      0.00
   20    2    5      4.62      0.00
   22    2    5     10.84      0.00
   24    2    5     12.21      0.00
   26    2    5      4.42      0.00
  -31    3    5     -1.46      0.00
  -29    3    5     -6.49      0.00
  -27    3    5     -6.57      0.00
  -25    3    5     -0.54      0.00
  -23    3    5      4.54      0.00
  -21    3    5      3.32      0.00
  -19    3    5     -1.47      0.00
  -17    3    5      2.70      0.00
  -15    3    5      9.60      0.00
  -13    3    5     -1.88      0.00
  -11    3    5    -23.91      0.00
   -9    3    5    -18.15      0.00
   -7    3    5      5.83      0.00
   -5    3    5    -19.89      0.00
   -3    3    5    -61.61      0.00
   -1    3    5    -22.90      0.00
    1    3    5     29.71      0.00
    3    3    5      8.32      0.00
    5    3    5    -12.32      0.00
    7    3    5      9.86      0.00
    9    3    5     19.52      0.00
   11    3    5      8.44      0.00
   13    3    5      1.19      0.00
   15    3    5      0.19      0.00
   17    3    5      1.46      0.00
   19    3    5      0.99      0.00
   21    3    5     -3.82      0.00
   23    3    5     -9.85      0.00
   25    3    5     -9.14      0.00
   27    3    5     -1.34      0.00
  -30    4    5      1.06      0.00
  -28    4    5      4.55      0.00
  -26    4    5      2.30      0.00
  -24    4    5     -1.56      0.00
  -22    4    5     -3.11      0.00
  -20    4    5     -3.00      0.00
  -18    4    5     -3.53      0.00
  -16    4    5     -6.40      0.00
  -14    4    5     -7.66      0.00
  -12    4    5      0.38      0.00
  -10    4    5      7.20      0.00
   -8    4    5     -2.59      0.00
   -6    4    5     -5.98      0.00
   -4    4    5      7.62      0.00
   -2    4    5     -4.52      0.00
    0    4    5    -36.06      0.00
    2    4    5    -27.45      0.00
    4    4    5      7.67      0.00
    6    4    5     15.39      0.00
    8    4    5      1.72      0.00
   10    4    5     -4.20      0.00
   12    4    5     -1.35      0.00
   14    4    5      0.65      0.00
   16    4    5     -0.45      0.00
   18    4    5     -3.57      0.00
   20    4    5     -6.34      0.00
   22    4    5     -2.98      0.00
   24    4    5      3.32      0.00
   26    4    5      1.42      0.00
  -29    5    5      6.79      0.00
  -27    5    5      9.24      0.00
  -25    5    5     10.29      0.00
  -23    5    5      7.47      0.00
  -21    5    5      3.38      0.00
  -19    5    5      1.94      0.00
  -17    5    5     -5.71      0.00
  -15    5    5    -14.48      0.00
  -13    5    5     -6.10      0.00
  -11    5    5     11.44      0.00
   -9    5    5      8.48      0.00
   -7    5    5    -10.10      0.00
   -5    5    5      6.62      0.00
   -3    5    5     46.89      0.00
   -1    5    5     38.06      0.00
    1    5    5      1.99      0.00
    3    5    5     -4.69      0.00
    5    5    5     -9.81      0.00
    7    5    5    -24.10      0.00
    9    5    5    -18.15      0.00
   11    5    5     -4.59      0.00
   13    5    5     -2.86      0.00
   15    5    5     -3.82      0.00
   17    5    5      0.62      0.00
   19    5    5      6.50      0.00
   21    5    5      8.89      0.00
   23    5    5      8.44      0.00
   25    5    5      7.07      0.00
   27    5    5      5.61      0.00
  -30    6    5     -2.28      0.00
  -28    6    5     -8.85      0.00
  -26    6    5    -13.99      0.00
  -24    6    5    -17.84      0.00
  -22    6    5    -16.69      0.00
  -20    6    5    -10.00      0.00
  -18    6    5      1.31      0.00
  -16    6    5     15.47      0.00
  -14    6    5     20.91      0.00
  -12    6    5      9.69      0.00
  -10    6    5      0.75      0.00
   -8    6    5     11.48      0.00
   -6    6    5     12.82      0.00
   -4    6    5    -12.55      0.00
   -2    6    5    -19.39      0.00
    0    6    5      4.07      0.00
    2    6    5     11.95      0.00
    4    6    5      3.64      0.00
    6    6    5      6.21      0.00
    8    6    5      7.62      0.00
   10    6    5     -0.48      0.00
   12    6    5     -0.58      0.00
   14    6    5      6.33      0.00
   16    6    5      3.97      0.00
   18    6    5     -1.93      0.00
   20    6    5     -0.66      0.00
   22    6    5     -2.61      0.00
   24    6    5     -9.26      0.00
   26    6    5     -5.92      0.00
  -29    7    5      1.06      0.00
  -27    7    5      2.18      0.00
  -25    7    5      4.75      0.00
  -23    7    5     12.16      0.00
  -21    7    5     15.82      0.00
  -19    7    5      6.69      0.00
  -17    7    5     -3.50      0.00
  -15    7    5     -7.42      0.00
  -13    7    5    -12.51      0.00
  -11    7    5    -18.00      0.00
   -9    7    5    -13.73      0.00
   -7    7    5     -2.84      0.00
   -5    7    5    -10.91      0.00
   -3    7    5    -31.10      0.00
   -1    7    5    -22.09      0.00
    1    7    5      0.23      0.00
    3    7    5     -0.25      0.00
    5    7    5     -1.52      0.00
    7    7    5     11.60      0.00
    9    7    5     18.58      0.00
   11    7    5     10.88      0.00
   13    7    5     -1.08      0.00
   15    7    5     -3.67      0.00
   17    7    5      0.02      0.00
   19    7    5     -2.62      0.00
   21    7    5     -6.37      0.00
   23    7    5     -1.58      0.00
   25    7    5      4.10      0.00
  -28    8    5      2.03      0.00
  -26    8    5      6.75      0.00
  -24    8    5      6.88      0.00
  -22    8    5     -2.49      0.00
  -20    8    5     -8.38      0.00
  -18    8    5     -5.72      0.00
  -16    8    5     -4.44      0.00
  -14    8    5     -3.82      0.00
  -12    8    5      2.10      0.00
  -10    8    5      3.21      0.00
   -8    8    5     -7.58      0.00
   -6    8    5     -5.93      0.00
   -4    8    5     18.50      0.00
   -2    8    5     26.85      0.00
    0    8    5      7.06      0.00
    2    8    5     -3.48      0.00
    4    8    5      2.08      0.00
    6    8    5      0.51      0.00
    8    8    5     -6.93      0.00
   10    8    5     -6.15      0.00
   12    8    5     -0.47      0.00
   14    8    5     -0.38      0.00
   16    8    5     -3.00      0.00
   18    8    5     -2.82      0.00
   20    8    5     -1.44      0.00
   22    8    5      1.38      0.00
   24    8    5      2.36      0.00
   26    8    5     -1.14      0.00
  -29    9    5     -4.08      0.00
  -27    9    5     -6.15      0.00
  -25    9    5     -9.42      0.00
  -23    9    5     -9.47      0.00
  -21    9    5     -4.71      0.00
  -19    9    5      0.68      0.00
  -17    9    5     -0.10      0.00
  -15    9    5     -3.62      0.00
  -13    9    5     -0.12      0.00
  -11    9    5      8.38      0.00
   -9    9    5      9.24      0.00
   -7    9    5      0.29      0.00
   -5    9    5      0.19      0.00
   -3    9    5      8.64      0.00
   -1    9    5      2.90      0.00
    1    9    5     -4.10      0.00
    3    9    5      3.81      0.00
    5    9    5      4.84      0.00
    7    9    5     -4.62      0.00
    9    9    5     -6.44      0.00
   11    9    5     -0.99      0.00
   13    9    5      2.69      0.00
   15    9    5      2.09      0.00
   17    9    5      3.88      0.00
   19    9    5     11.03      0.00
   21    9    5     14.27      0.00
   23    9    5     10.08      0.00
   25    9    5      5.01      0.00
  -28   10    5     11.02      0.00
  -26   10    5      7.97      0.00
  -24   10    5      2.64      0.00
  -22   10    5      2.28      0.00
  -20   10    5      2.18      0.00
  -18   10    5      2.68      0.00
  -16   10    5      9.46      0.00
  -14   10    5     13.35      0.00
  -12   10    5      4.11      0.00
  -10   10    5     -2.57      0.00
   -8   10    5      9.02      0.00
   -6   10    5     14.69      0.00
   -4   10    5     -2.03      0.00
   -2   10    5     -9.88      0.00
    0   10    5     -0.77      0.00
    2   10    5     -3.95      0.00
    4   10    5    -14.84      0.00
    6   10    5    -10.10      0.00
    8   10    5      1.50      0.00
   10   10    5      1.27      0.00
   12   10    5     -3.37      0.00
   14   10    5      2.17      0.00
   16   10    5      6.90      0.00
   18   10    5     -0.61      0.00
   20   10    5     -9.12      0.00
   22   10    5    -11.91      0.00
   24   10    5    -10.65      0.00
  -27   11    5    -20.51      0.00
  -25   11    5     -9.09      0.00
  -23   11    5      1.66      0.00
  -21   11    5      4.48      0.00
  -19   11    5      4.68      0.00
  -17   11    5      3.59      0.00
  -15   11    5     -1.42      0.00
  -13   11    5     -6.76      0.00
  -11   11    5     -8.65      0.00
   -9   11    5     -9.86      0.00
   -7   11    5    -10.10      0.00
   -5   11    5    -10.14      0.00
   -3   11    5     -8.92      0.00
   -1   11    5      0.78      0.00
    1   11    5      9.78      0.00
    3   11    5      8.39      0.00
    5   11    5      5.74      0.00
    7   11    5      3.13      0.00
    9   11    5     -0.92      0.00
   11   11    5     -1.21      0.00
   13   11    5     -1.40      0.00
   15   11    5     -2.84      0.00
   17   11    5     -1.06      0.00
   19   11    5      1.48      0.00
   21   11    5      0.79      0.00
   23   11    5     -0.88      0.00
  -26   12    5      4.53      0.00
  -24   12    5     -1.99      0.00
  -22   12    5     -5.29      0.00
  -20   12    5     -7.97      0.00
  -18   12    5    -11.25      0.00
  -16   12    5    -12.16      0.00
  -14   12    5     -7.71      0.00
  -12   12    5      2.71      0.00
  -10   12    5     10.26      0.00
   -8   12    5      4.79      0.00
   -6   12    5     -0.01      0.00
   -4   12    5      5.61      0.00
   -2   12    5      1.45      0.00
    0   12    5    -11.09      0.00
    2   12    5     -6.93      0.00
    4   12    5      6.23      0.00
    6   12    5      6.72      0.00
    8   12    5      0.43      0.00
   10   12    5      2.92      0.00
   12   12    5      8.71      0.00
   14   12    5      4.55      0.00
   16   12    5     -1.87      0.00
   18   12    5     -0.78      0.00
   20   12    5      3.09      0.00
   22   12    5      8.15      0.00
   24   12    5     10.72      0.00
  -25   13    5     18.36      0.00
  -23   13    5      9.42      0.00
  -21   13    5      8.45      0.00
  -19   13    5     14.31      0.00
  -17   13    5     14.45      0.00
  -15   13    5     11.60      0.00
  -13   13    5     10.85      0.00
  -11   13    5      5.99      0.00
   -9   13    5     -0.80      0.00
   -7   13    5     -2.92      0.00
   -5   13    5     -1.18      0.00
   -3   13    5      1.74      0.00
   -1   13    5      0.70      0.00
    1   13    5     -4.45      0.00
    3   13    5     -8.78      0.00
    5   13    5     -8.87      0.00
    7   13    5     -1.25      0.00
    9   13    5      4.61      0.00
   11   13    5     -1.56      0.00
   13   13    5     -7.09      0.00
   15   13    5     -3.08      0.00
   17   13    5      0.71      0.00
   19   13    5     -0.14      0.00
   21   13    5     -0.77      0.00
   23   13    5     -0.20      0.00
  -26   14    5    -12.89      0.00
  -24   14    5     -4.74      0.00
  -22   14    5     -0.65      0.00
  -20   14    5     -7.09      0.00
  -18   14    5     -9.12      0.00
  -16   14    5     -2.97      0.00
  -14   14    5     -2.60      0.00
  -12   14    5     -7.91      0.00
  -10   14    5     -4.47      0.00
   -8   14    5      6.99      0.00
   -6   14    5      8.54      0.00
   -4   14    5      0.06      0.00
   -2   14    5      1.58      0.00
    0   14    5     10.56      0.00
    2   14    5      8.89      0.00
    4   14    5      0.91      0.00
    6   14    5     -0.41      0.00
    8   14    5      1.81      0.00
   10   14    5      0.04      0.00
   12   14    5     -0.20      0.00
   14   14    5      4.89      0.00
   16   14    5      4.56      0.00
   18   14    5     -0.86      0.00
   20   14    5     -3.46      0.00
   22   14    5     -8.51      0.00
  -25   15    5    -15.34      0.00
  -23   15    5     -6.97      0.00
  -21   15    5      1.64      0.00
  -19   15    5      2.38      0.00
  -17   15    5     -0.51      0.00
  -15   15    5     -1.62      0.00
  -13   15    5     -1.13      0.00
  -11   15    5     -2.10      0.00
   -9   15    5     -5.94      0.00
   -7   15    5     -5.97      0.00
   -5   15    5     -1.32      0.00
   -3   15    5     -2.41      0.00
   -1   15    5     -6.73      0.00
    1   15    5     -3.82      0.00
    3   15    5      4.57      0.00
    5   15    5      7.07      0.00
    7   15    5     -2.10      0.00
    9   15    5     -8.59      0.00
   11   15    5     -3.10      0.00
   13   15    5      0.06      0.00
   15   15    5     -2.10      0.00
   17   15    5     -0.42      0.00
   19   15    5      2.60      0.00
   21   15    5      6.25      0.00
  -24   16    5     15.39      0.00
  -22   16    5      2.39      0.00
  -20   16    5      4.24      0.00
  -18   16    5     10.76      0.00
  -16   16    5      7.49      0.00
  -14   16    5      5.64      0.00
  -12   16    5     10.30      0.00
  -10   16    5      8.53      0.00
   -8   16    5     -2.26      0.00
   -6   16    5     -8.47      0.00
   -4   16    5     -3.90      0.00
   -2   16    5      1.60      0.00
    0   16    5     -0.60      0.00
    2   16    5     -7.53      0.00
    4   16    5    -11.30      0.00
    6   16    5     -8.97      0.00
    8   16    5     -2.52      0.00
   10   16    5      5.84      0.00
   12   16    5      6.90      0.00
   14   16    5     -2.81      0.00
   16   16    5     -6.21      0.00
   18   16    5      0.24      0.00
   20   16    5      0.41      0.00
  -21   17    5     -6.33      0.00
  -19   17    5     -9.45      0.00
  -17   17    5     -8.68      0.00
  -15   17    5     -3.66      0.00
  -13   17    5     -4.58      0.00
  -11   17    5     -4.14      0.00
   -9   17    5      5.77      0.00
   -7   17    5     12.07      0.00
   -5   17    5      8.18      0.00
   -3   17    5      3.13      0.00
   -1   17    5      0.84      0.00
    1   17    5      3.21      0.00
    3   17    5      8.89      0.00
    5   17    5     13.26      0.00
    7   17    5     14.89      0.00
    9   17    5      4.04      0.00
   11   17    5    -12.98      0.00
   13   17    5     -9.72      0.00
   15   17    5      1.29      0.00
   17   17    5     -5.83      0.00
   19   17    5    -13.70      0.00
  -20   18    5      3.86      0.00
  -18   18    5      0.93      0.00
  -16   18    5      3.17      0.00
  -14   18    5      3.62      0.00
  -12   18    5     -0.56      0.00
  -10   18    5     -6.40      0.00
   -8   18    5     -8.26      0.00
   -6   18    5     -4.07      0.00
   -4   18    5      1.96      0.00
   -2   18    5      6.71      0.00
    0   18    5     10.12      0.00
    2   18    5      9.91      0.00
    4   18    5      1.82      0.00
    6   18    5     -7.22      0.00
    8   18    5     -2.63      0.00
   10   18    5      8.17      0.00
   12   18    5      8.23      0.00
   14   18    5      5.53      0.00
   16   18    5      9.81      0.00
   18   18    5     11.73      0.00
  -19   19    5     14.92      0.00
  -17   19    5     10.44      0.00
  -15   19    5      0.00      0.00
  -13   19    5      0.04      0.00
  -11   19    5      5.66      0.00
   -9   19    5      8.06      0.00
   -7   19    5      9.05      0.00
   -5   19    5      3.93      0.00
   -3   19    5     -7.42      0.00
   -1   19    5    -14.84      0.00
    1   19    5    -18.60      0.00
    3   19    5    -15.76      0.00
    5   19    5     -4.77      0.00
    7   19    5     -3.08      0.00
    9   19    5     -5.44      0.00
   11   19    5      3.96      0.00
   13   19    5      4.67      0.00
   15   19    5     -8.69      0.00
  -18   20    5    -11.01      0.00
  -16   20    5     -2.92      0.00
  -14   20    5      4.96      0.00
  -12   20    5      6.81      0.00
  -10   20    5      4.08      0.00
   -8   20    5     -3.10      0.00
   -6   20    5     -7.16      0.00
   -4   20    5     -0.81      0.00
   -2   20    5      7.43      0.00
    0   20    5      9.36      0.00
    2   20    5      5.61      0.00
    4   20    5      0.86      0.00
    6   20    5      0.76      0.00
    8   20    5     -0.91      0.00
   10   20    5     -8.63      0.00
   12   20    5     -7.87      0.00
   14   20    5      4.09      0.00
  -15   21    5      0.25      0.00
  -13   21    5     -4.95      0.00
  -11   21    5     -8.42      0.00
   -9   21    5     -4.89      0.00
   -7   21    5     -1.80      0.00
   -5   21    5     -2.35      0.00
   -3   21    5     -3.27      0.00
   -1   21    5     -3.27      0.00
    1   21    5      1.39      0.00
    3   21    5      5.30      0.00
    5   21    5      1.36      0.00
    7   21    5      2.92      0.00
    9   21    5      9.84      0.00
   11   21    5      3.60      0.00
   13   21    5     -6.95      0.00
  -14   22    5    -13.05      0.00
  -12   22    5     -9.42      0.00
  -10   22    5     -5.85      0.00
   -8   22    5     -1.70      0.00
   -6   22    5      1.44      0.00
   -4   22    5     -1.36      0.00
   -2   22    5     -5.08      0.00
    0   22    5     -5.22      0.00
    2   22    5     -2.55      0.00
    4   22    5      0.78      0.00
    6   22    5     -1.17      0.00
    8   22    5     -5.16      0.00
   10   22    5     -1.07      0.00
  -11   23    5      6.11      0.00
   -9   23    5     -1.25      0.00
   -7   23    5     -5.16      0.00
   -5   23    5      0.99      0.00
   -3   23    5      9.94      0.00
   -1   23    5      9.65      0.00
    1   23    5     -0.49      0.00
    3   23    5     -7.48      0.00
    5   23    5     -4.06      0.00
    7   23    5     -2.90      0.00
   -6   24    5      1.37      0.00
   -4   24    5     -8.07      0.00
   -2   24    5    -10.33      0.00
    0   24    5     -0.33      0.00
    2   24    5      7.48      0.00
  -30    0    6     -1.29      0.00
  -28    0    6      2.92      0.00
  -26    0    6      2.22      0.00
  -24    0    6     -2.03      0.00
  -22    0    6     -4.56      0.00
  -20    0    6     -6.25      0.00
  -18    0    6     -6.84      0.00
  -16    0    6      3.00      0.00
  -14    0    6     18.23      0.00
  -12    0    6     12.68      0.00
  -10    0    6    -13.84      0.00
   -8    0    6     -5.40      0.00
   -6    0    6     36.27      0.00
   -4    0    6     12.91      0.00
   -2    0    6    -55.55      0.00
    0    0    6    -56.60      0.00
    2    0    6    -32.88      0.00
    4    0    6    -52.64      0.00
    6    0    6    -52.39      0.00
    8    0    6     -8.68      0.00
   10    0    6     19.08      0.00
   12    0    6      9.79      0.00
   14    0    6     -6.89      0.00
   16    0    6     -4.99      0.00
   18    0    6      2.04      0.00
   20    0    6     -3.29      0.00
   22    0    6     -7.63      0.00
   24    0    6     -6.49      0.00
   26    0    6     -8.47      0.00
  -31    1    6      3.68      0.00
  -29    1    6     -1.10      0.00
  -27    1    6     -3.69      0.00
  -25    1    6     -0.44      0.00
  -23    1    6      4.37      0.00
  -21    1    6      5.77      0.00
  -19    1    6      2.98      0.00
  -17    1    6     -1.40      0.00
  -15    1    6     -5.11      0.00
  -13    1    6     -5.56      0.00
  -11    1    6      0.64      0.00
   -9    1    6      5.18      0.00
   -7    1    6     -3.91      0.00
   -5    1    6    -13.86      0.00
   -3    1    6     -8.45      0.00
   -1    1    6     -0.47      0.00
    1    1    6      0.17      0.00
    3    1    6      5.68      0.00
    5    1    6     14.74      0.00
    7    1    6      8.41      0.00
    9    1    6    -10.39      0.00
   11    1    6    -15.11      0.00
   13    1    6     -1.44      0.00
   15    1    6      5.96      0.00
   17    1    6      1.33      0.00
   19    1    6      0.58      0.00
   21    1    6      3.00      0.00
   23    1    6      1.22      0.00
   25    1    6      0.56      0.00
   27    1    6      1.67      0.00
  -30    2    6     -3.30      0.00
  -28    2    6      0.52      0.00
  -26    2    6      1.15      0.00
  -24    2    6     -0.57      0.00
  -22    2    6     -1.53      0.00
  -20    2    6      2.44      0.00
  -18    2    6      9.25      0.00
  -16    2    6      5.19      0.00
  -14    2    6     -9.54      0.00
  -12    2    6    -13.77      0.00
  -10    2    6     -2.57      0.00
   -8    2    6    -11.89      0.00
   -6    2    6    -37.50      0.00
   -4    2    6     -8.93      0.00
   -2    2    6     46.31      0.00
    0    2    6     37.75      0.00
    2    2    6      8.47      0.00
    4    2    6     14.48      0.00
    6    2    6     12.85      0.00
    8    2    6     -0.08      0.00
   10    2    6      1.82      0.00
   12    2    6      1.69      0.00
   14    2    6     -5.30      0.00
   16    2    6     -7.21      0.00
   18    2    6     -5.25      0.00
   20    2    6     -2.51      0.00
   22    2    6      1.30      0.00
   24    2    6      6.80      0.00
   26    2    6     11.04      0.00
  -31    3    6      0.81      0.00
  -29    3    6      2.05      0.00
  -27    3    6      2.30      0.00
  -25    3    6      0.68      0.00
  -23    3    6     -2.64      0.00
  -21    3    6     -4.17      0.00
  -19    3    6     -1.73      0.00
  -17    3    6      1.70      0.00
  -15    3    6      5.88      0.00
  -13    3    6     12.38      0.00
  -11    3    6     13.28      0.00
   -9    3    6      9.57      0.00
   -7    3    6     13.02      0.00
   -5    3    6      9.33      0.00
   -3    3    6    -12.79      0.00
   -1    3    6    -25.20      0.00
    1    3    6    -15.22      0.00
    3    3    6     -2.17      0.00
    5    3    6      6.10      0.00
    7    3    6      8.98      0.00
    9    3    6      4.70      0.00
   11    3    6      0.31      0.00
   13    3    6      1.63      0.00
   15    3    6      6.00      0.00
   17    3    6      5.96      0.00
   19    3    6      0.75      0.00
   21    3    6     -2.07      0.00
   23    3    6     -5.78      0.00
   25    3    6    -15.41      0.00
   27    3    6    -19.17      0.00
  -30    4    6      2.42      0.00
  -28    4    6     -1.30      0.00
  -26    4    6     -0.75      0.00
  -24    4    6      1.63      0.00
  -22    4    6      3.52      0.00
  -20    4    6     -0.85      0.00
  -18    4    6    -10.68      0.00
  -16    4    6     -9.00      0.00
  -14    4    6      2.32      0.00
  -12    4    6      1.80      0.00
  -10    4    6     -7.99      0.00
   -8    4    6      3.92      0.00
   -6    4    6     28.92      0.00
   -4    4    6     13.88      0.00
   -2    4    6    -14.03      0.00
    0    4    6      6.08      0.00
    2    4    6     19.91      0.00
    4    4    6    -11.93      0.00
    6    4    6    -24.54      0.00
    8    4    6     -4.98      0.00
   10    4    6      5.71      0.00
   12    4    6      6.70      0.00
   14    4    6      4.49      0.00
   16    4    6     -1.65      0.00
   18    4    6     -2.40      0.00
   20    4    6      1.35      0.00
   22    4    6      1.36      0.00
   24    4    6      2.44      0.00
   26    4    6      8.13      0.00
  -29    5    6     -2.02      0.00
  -27    5    6     -2.90      0.00
  -25    5    6     -3.24      0.00
  -23    5    6      1.05      0.00
  -21    5    6      5.05      0.00
  -19    5    6      6.75      0.00
  -17    5    6      7.53      0.00
  -15    5    6      4.78      0.00
  -13    5    6     -1.11      0.00
  -11    5    6     -2.67      0.00
   -9    5    6     -2.47      0.00
   -7    5    6     -4.55      0.00
   -5    5    6      7.63      0.00
   -3    5    6     26.90      0.00
   -1    5    6     18.17      0.00
    1    5    6     -1.79      0.00
    3    5    6      2.41      0.00
    5    5    6      9.76      0.00
    7    5    6      1.87      0.00
    9    5    6     -3.69      0.00
   11    5    6     -4.61      0.00
   13    5    6     -7.73      0.00
   15    5    6     -4.51      0.00
   17    5    6      4.37      0.00
   19    5    6      4.22      0.00
   21    5    6     -1.44      0.00
   23    5    6      2.57      0.00
   25    5    6      9.08      0.00
  -30    6    6     -4.01      0.00
  -28    6    6     -1.51      0.00
  -26    6    6      2.07      0.00
  -24    6    6      1.82      0.00
  -22    6    6     -3.09      0.00
  -20    6    6     -1.99      0.00
  -18    6    6      5.83      0.00
  -16    6    6      1.87      0.00
  -14    6    6     -9.20      0.00
  -12    6    6     -3.10      0.00
  -10    6    6     13.11      0.00
   -8    6    6      2.22      0.00
   -6    6    6    -31.46      0.00
   -4    6    6    -29.01      0.00
   -2    6    6      3.03      0.00
    0    6    6     -0.57      0.00
    2    6    6    -17.46      0.00
    4    6    6     -0.81      0.00
    6    6    6     13.71      0.00
    8    6    6      1.79      0.00
   10    6    6     -7.51      0.00
   12    6    6     -2.12      0.00
   14    6    6      1.89      0.00
   16    6    6     -3.51      0.00
   18    6    6     -6.32      0.00
   20    6    6     -0.27      0.00
   22    6    6      2.71      0.00
   24    6    6     -3.30      0.00
   26    6    6     -9.26      0.00
  -29    7    6      6.52      0.00
  -27    7    6      6.00      0.00
  -25    7    6      2.91      0.00
  -23    7    6     -1.59      0.00
  -21    7    6     -5.24      0.00
  -19    7    6    -10.97      0.00
  -17    7    6    -12.35      0.00
  -15    7    6     -3.02      0.00
  -13    7    6      2.31      0.00
  -11    7    6     -8.07      0.00
   -9    7    6    -11.51      0.00
   -7    7    6      7.54      0.00
   -5    7    6     12.27      0.00
   -3    7    6    -11.32      0.00
   -1    7    6    -13.88      0.00
    1    7    6     10.18      0.00
    3    7    6     12.92      0.00
    5    7    6     -2.00      0.00
    7    7    6     -1.32      0.00
    9    7    6      5.92      0.00
   11    7    6      1.05      0.00
   13    7    6     -4.95      0.00
   15    7    6     -1.94      0.00
   17    7    6      0.57      0.00
   19    7    6     -0.41      0.00
   21    7    6     -1.22      0.00
   23    7    6     -5.15      0.00
   25    7    6     -7.14      0.00
  -28    8    6     -1.52      0.00
  -26    8    6     -5.45      0.00
  -24    8    6     -5.15      0.00
  -22    8    6      1.75      0.00
  -20    8    6      6.23      0.00
  -18    8    6      2.35      0.00
  -16    8    6     -1.12      0.00
  -14    8    6      0.45      0.00
  -12    8    6      0.74      0.00
  -10    8    6     -3.18      0.00
   -8    8    6     -0.27      0.00
   -6    8    6     14.91      0.00
   -4    8    6     17.83      0.00
   -2    8    6      2.62      0.00
    0    8    6     -1.27      0.00
    2    8    6      3.34      0.00
    4    8    6     -2.50      0.00
    6    8    6     -7.05      0.00
    8    8    6     -0.50      0.00
   10    8    6      8.93      0.00
   12    8    6     10.81      0.00
   14    8    6      5.60      0.00
   16    8    6      3.45      0.00
   18    8    6      2.17      0.00
   20    8    6     -2.67      0.00
   22    8    6     -1.46      0.00
   24    8    6      7.04      0.00
  -29    9    6      0.96      0.00
  -27    9    6     -0.06      0.00
  -25    9    6      2.92      0.00
  -23    9    6      2.33      0.00
  -21    9    6     -3.20      0.00
  -19    9    6     -2.29      0.00
  -17    9    6      3.37      0.00
  -15    9    6      2.14      0.00
  -13    9    6     -1.95      0.00
  -11    9    6      4.04      0.00
   -9    9    6     10.36      0.00
   -7    9    6     -1.01      0.00
   -5    9    6    -10.65      0.00
   -3    9    6      0.41      0.00
   -1    9    6      4.80      0.00
    1    9    6     -9.20      0.00
    3    9    6    -12.99      0.00
    5    9    6     -0.92      0.00
    7    9    6      2.58      0.00
    9    9    6     -7.48      0.00
   11    9    6    -10.32      0.00
   13    9    6     -2.38      0.00
   15    9    6     -0.82      0.00
   17    9    6     -3.75      0.00
   19    9    6     -1.20      0.00
   21    9    6      0.74      0.00
   23    9    6     -1.87      0.00
   25    9    6     -5.36      0.00
  -28   10    6     -1.68      0.00
  -26   10    6      2.97      0.00
  -24   10    6      3.04      0.00
  -22   10    6      1.79      0.00
  -20   10    6      1.68      0.00
  -18   10    6      0.35      0.00
  -16   10    6     -3.27      0.00
  -14   10    6     -3.53      0.00
  -12   10    6      0.93      0.00
  -10   10    6      1.43      0.00
   -8   10    6     -6.67      0.00
   -6   10    6    -13.76      0.00
   -4   10    6     -6.13      0.00
   -2   10    6      6.21      0.00
    0   10    6      6.53      0.00
    2   10    6      5.90      0.00
    4   10    6      8.37      0.00
    6   10    6      2.95      0.00
    8   10    6     -1.30      0.00
   10   10    6      0.21      0.00
   12   10    6     -2.48      0.00
   14   10    6     -6.44      0.00
   16   10    6     -5.49      0.00
   18   10    6     -2.68      0.00
   20   10    6     -1.71      0.00
   22   10    6     -0.73      0.00
   24   10    6      2.28      0.00
  -27   11    6      2.85      0.00
  -25   11    6     -0.52      0.00
  -23   11    6     -1.33      0.00
  -21   11    6     -0.38      0.00
  -19   11    6     -2.12      0.00
  -17   11    6     -2.57      0.00
  -15   11    6      0.43      0.00
  -13   11    6     -1.35      0.00
  -11   11    6    -10.53      0.00
   -9   11    6    -10.15      0.00
   -7   11    6      6.18      0.00
   -5   11    6      9.84      0.00
   -3   11    6     -5.41      0.00
   -1   11    6     -6.10      0.00
    1   11    6      7.12      0.00
    3   11    6      6.68      0.00
    5   11    6     -2.01      0.00
    7   11    6     -0.39      0.00
    9   11    6      8.04      0.00
   11   11    6      9.45      0.00
   13   11    6      5.84      0.00
   15   11    6      7.71      0.00
   17   11    6     10.51      0.00
   19   11    6     10.91      0.00
   21   11    6     12.58      0.00
   23   11    6     10.05      0.00
  -26   12    6    -11.40      0.00
  -24   12    6    -11.04      0.00
  -22   12    6     -7.60      0.00
  -20   12    6     -4.15      0.00
  -18   12    6     -1.58      0.00
  -16   12    6      0.16      0.00
  -14   12    6      1.52      0.00
  -12   12    6      3.63      0.00
  -10   12    6      4.59      0.00
   -8   12    6      2.56      0.00
   -6   12    6      3.38      0.00
   -4   12    6      6.03      0.00
   -2   12    6      3.83      0.00
    0   12    6      0.13      0.00
    2   12    6     -2.00      0.00
    4   12    6      0.41      0.00
    6   12    6      5.92      0.00
    8   12    6      0.97      0.00
   10   12    6     -9.51      0.00
   12   12    6     -7.04      0.00
   14   12    6      2.33      0.00
   16   12    6      2.85      0.00
   18   12    6     -4.57      0.00
   20   12    6    -11.00      0.00
   22   12    6    -12.89      0.00
  -25   13    6     -0.59      0.00
  -23   13    6     -0.06      0.00
  -21   13    6     -1.83      0.00
  -19   13    6     -2.44      0.00
  -17   13    6     -1.17      0.00
  -15   13    6     -1.03      0.00
  -13   13    6     -0.97      0.00
  -11   13    6      4.61      0.00
   -9   13    6      8.58      0.00
   -7   13    6      0.26      0.00
   -5   13    6     -5.46      0.00
   -3   13    6      0.61      0.00
   -1   13    6      0.57      0.00
    1   13    6     -5.46      0.00
    3   13    6     -4.09      0.00
    5   13    6     -2.58      0.00
    7   13    6     -6.15      0.00
    9   13    6     -4.12      0.00
   11   13    6      3.53      0.00
   13   13    6      0.39      0.00
   15   13    6    -10.71      0.00
   17   13    6     -6.64      0.00
   19   13    6      7.51      0.00
   21   13    6     11.99      0.00
  -26   14    6     22.18      0.00
  -24   14    6     18.54      0.00
  -22   14    6      8.22      0.00
  -20   14    6      5.80      0.00
  -18   14    6      5.28      0.00
  -16   14    6      0.39      0.00
  -14   14    6     -0.99      0.00
  -12   14    6     -0.47      0.00
  -10   14    6     -4.52      0.00
   -8   14    6     -4.69      0.00
   -6   14    6     -0.86      0.00
   -4   14    6     -2.36      0.00
   -2   14    6     -5.02      0.00
    0   14    6     -4.19      0.00
    2   14    6     -3.14      0.00
    4   14    6     -3.54      0.00
    6   14    6     -1.23      0.00
    8   14    6      5.44      0.00
   10   14    6      6.34      0.00
   12   14    6      2.39      0.00
   14   14    6      6.26      0.00
   16   14    6      8.09      0.00
   18   14    6     -3.85      0.00
   20   14    6    -15.13      0.00
  -25   15    6    -11.77      0.00
  -23   15    6     -0.68      0.00
  -21   15    6      5.50      0.00
  -19   15    6      1.79      0.00
  -17   15    6      1.37      0.00
  -15   15    6      1.74      0.00
  -13   15    6     -3.85      0.00
  -11   15    6     -6.13      0.00
   -9   15    6     -0.93      0.00
   -7   15    6      3.63      0.00
   -5   15    6      3.15      0.00
   -3   15    6      2.02      0.00
   -1   15    6      3.46      0.00
    1   15    6      3.37      0.00
    3   15    6      0.31      0.00
    5   15    6     -1.53      0.00
    7   15    6      0.32      0.00
    9   15    6      2.45      0.00
   11   15    6     -0.94      0.00
   13   15    6     -3.68      0.00
   15   15    6      2.54      0.00
   17   15    6     11.23      0.00
   19   15    6     18.40      0.00
   21   15    6     21.62      0.00
  -24   16    6    -16.47      0.00
  -22   16    6    -10.92      0.00
  -20   16    6     -6.46      0.00
  -18   16    6     -6.87      0.00
  -16   16    6     -4.02      0.00
  -14   16    6      4.75      0.00
  -12   16    6      8.92      0.00
  -10   16    6      2.80      0.00
   -8   16    6     -4.12      0.00
   -6   16    6     -2.34      0.00
   -4   16    6      2.05      0.00
   -2   16    6      3.11      0.00
    0   16    6      5.60      0.00
    2   16    6      7.90      0.00
    4   16    6      6.42      0.00
    6   16    6      0.96      0.00
    8   16    6     -7.11      0.00
   10   16    6     -4.99      0.00
   12   16    6      5.77      0.00
   14   16    6      4.22      0.00
   16   16    6     -5.25      0.00
   18   16    6     -8.27      0.00
  -21   17    6     -8.36      0.00
  -19   17    6     -1.69      0.00
  -17   17    6      3.01      0.00
  -15   17    6     -4.26      0.00
  -13   17    6     -6.49      0.00
  -11   17    6      1.19      0.00
   -9   17    6      6.33      0.00
   -7   17    6      3.43      0.00
   -5   17    6     -2.37      0.00
   -3   17    6     -7.61      0.00
   -1   17    6    -11.80      0.00
    1   17    6    -12.23      0.00
    3   17    6     -7.21      0.00
    5   17    6      1.32      0.00
    7   17    6      6.21      0.00
    9   17    6      2.53      0.00
   11   17    6     -1.64      0.00
   13   17    6     -2.39      0.00
   15   17    6     -5.65      0.00
   17   17    6     -7.47      0.00
  -20   18    6     11.80      0.00
  -18   18    6      4.58      0.00
  -16   18    6      6.54      0.00
  -14   18    6      7.02      0.00
  -12   18    6     -1.17      0.00
  -10   18    6     -4.10      0.00
   -8   18    6     -2.01      0.00
   -6   18    6     -3.72      0.00
   -4   18    6      0.63      0.00
   -2   18    6     11.15      0.00
    0   18    6     12.26      0.00
    2   18    6      6.38      0.00
    4   18    6      0.40      0.00
    6   18    6     -2.75      0.00
    8   18    6      2.41      0.00
   10   18    6      2.62      0.00
   12   18    6     -6.15      0.00
   14   18    6     -2.36      0.00
   16   18    6      7.38      0.00
  -19   19    6     -7.64      0.00
  -17   19    6     -6.51      0.00
  -15   19    6     -1.72      0.00
  -13   19    6      4.13      0.00
  -11   19    6      1.89      0.00
   -9   19    6     -2.83      0.00
   -7   19    6      3.01      0.00
   -5   19    6      8.42      0.00
   -3   19    6      0.94      0.00
   -1   19    6     -5.19      0.00
    1   19    6      0.75      0.00
    3   19    6      7.84      0.00
    5   19    6      4.73      0.00
    7   19    6     -3.28      0.00
    9   19    6     -3.50      0.00
   11   19    6     -0.85      0.00
   13   19    6     -6.31      0.00
   15   19    6    -10.33      0.00
  -18   20    6     13.75      0.00
  -16   20    6      3.52      0.00
  -14   20    6     -7.42      0.00
  -12   20    6     -3.43      0.00
  -10   20    6      3.50      0.00
   -8   20    6     -1.12      0.00
   -6   20    6     -8.45      0.00
   -4   20    6     -7.77      0.00
   -2   20    6     -1.35      0.00
    0   20    6      0.37      0.00
    2   20    6     -7.60      0.00
    4   20    6     -8.65      0.00
    6   20    6      2.29      0.00
    8   20    6      4.46      0.00
   10   20    6      4.45      0.00
   12   20    6     17.28      0.00
   14   20    6     21.20      0.00
  -15   21    6     16.66      0.00
  -13   21    6     17.50      0.00
  -11   21    6      9.69      0.00
   -9   21    6     10.62      0.00
   -7   21    6     16.93      0.00
   -5   21    6     18.29      0.00
   -3   21    6     11.77      0.00
   -1   21    6      1.31      0.00
    1   21    6     -2.42      0.00
    3   21    6     -0.03      0.00
    5   21    6      0.02      0.00
    7   21    6     -0.13      0.00
    9   21    6     -2.21      0.00
   11   21    6     -9.55      0.00
  -14   22    6     -8.69      0.00
  -12   22    6     -5.23      0.00
  -10   22    6     -3.21      0.00
   -8   22    6     -7.74      0.00
   -6   22    6    -15.72      0.00
   -4   22    6    -17.30      0.00
   -2   22    6     -7.15      0.00
    0   22    6      6.45      0.00
    2   22    6     12.49      0.00
    4   22    6      5.02      0.00
    6   22    6     -7.23      0.00
    8   22    6     -5.64      0.00
   -9   23    6      2.63      0.00
   -7   23    6      7.76      0.00
   -5   23    6     12.85      0.00
   -3   23    6      8.32      0.00
   -1   23    6     -7.87      0.00
    1   23    6    -22.35      0.00
    3   23    6    -17.47      0.00
    5   23    6      0.95      0.00
   -4   24    6     -8.33      0.00
   -2   24    6      2.45      0.00
    0   24    6     15.82      0.00
  -31    1    7     -4.98      0.00
  -29    1    7     -3.59      0.00
  -27    1    7     -4.28      0.00
  -25    1    7     -5.02      0.00
  -23    1    7     -1.84      0.00
  -21    1    7      4.20      0.00
  -19    1    7      2.77      0.00
  -17    1    7     -4.58      0.00
  -15    1    7     -1.20      0.00
  -13    1    7     10.53      0.00
  -11    1    7      2.52      0.00
   -9    1    7    -29.21      0.00
   -7    1    7    -35.21      0.00
   -5    1    7     -9.82      0.00
   -3    1    7    -15.53      0.00
   -1    1    7    -30.76      0.00
    1    1    7     -0.67      0.00
    3    1    7     20.78      0.00
    5    1    7      2.64      0.00
    7    1    7     -5.63      0.00
    9    1    7      0.43      0.00
   11    1    7     -0.45      0.00
   13    1    7     -4.09      0.00
   15    1    7     -7.52      0.00
   17    1    7     -8.86      0.00
   19    1    7     -7.18      0.00
   21    1    7     -5.58      0.00
   23    1    7     -4.81      0.00
   25    1    7     -5.98      0.00
  -30    2    7      4.06      0.00
  -28    2    7     -1.88      0.00
  -26    2    7     -3.49      0.00
  -24    2    7     -2.36      0.00
  -22    2    7     -3.14      0.00
  -20    2    7     -3.00      0.00
  -18    2    7     -0.50      0.00
  -16    2    7      0.38      0.00
  -14    2    7     -2.17      0.00
  -12    2    7     -3.73      0.00
  -10    2    7      1.85      0.00
   -8    2    7      9.90      0.00
   -6    2    7     11.20      0.00
   -4    2    7      7.36      0.00
   -2    2    7     -1.72      0.00
    0    2    7    -16.99      0.00
    2    2    7    -25.70      0.00
    4    2    7    -22.55      0.00
    6    2    7    -15.75      0.00
    8    2    7     -7.82      0.00
   10    2    7     -1.60      0.00
   12    2    7     -0.89      0.00
   14    2    7     -1.65      0.00
   16    2    7     -0.16      0.00
   18    2    7      3.18      0.00
   20    2    7      4.53      0.00
   22    2    7      2.31      0.00
   24    2    7      3.76      0.00
   26    2    7      8.08      0.00
  -31    3    7     -3.49      0.00
  -29    3    7      5.09      0.00
  -27    3    7     11.98      0.00
  -25    3    7      9.01      0.00
  -23    3    7      5.14      0.00
  -21    3    7      2.49      0.00
  -19    3    7      2.81      0.00
  -17    3    7      8.33      0.00
  -15    3    7      7.88      0.00
  -13    3    7     -2.20      0.00
  -11    3    7     -2.32      0.00
   -9    3    7     12.88      0.00
   -7    3    7      6.12      0.00
   -5    3    7    -19.03      0.00
   -3    3    7     -1.90      0.00
   -1    3    7     28.67      0.00
    1    3    7      9.13      0.00
    3    3    7     -8.12      0.00
    5    3    7     12.25      0.00
    7    3    7     17.04      0.00
    9    3    7      1.87      0.00
   11    3    7     -0.24      0.00
   13    3    7      6.06      0.00
   15    3    7      8.14      0.00
   17    3    7      5.70      0.00
   19    3    7      3.15      0.00
   21    3    7      3.28      0.00
   23    3    7      1.79      0.00
   25    3    7     -2.45      0.00
  -30    4    7     -5.28      0.00
  -28    4    7     -9.83      0.00
  -26    4    7     -5.17      0.00
  -24    4    7      1.17      0.00
  -22    4    7      0.40      0.00
  -20    4    7     -1.87      0.00
  -18    4    7     -2.33      0.00
  -16    4    7     -6.17      0.00
  -14    4    7     -9.60      0.00
  -12    4    7     -5.79      0.00
  -10    4    7     -2.49      0.00
   -8    4    7     -2.38      0.00
   -6    4    7     -1.74      0.00
   -4    4    7    -10.61      0.00
   -2    4    7    -18.98      0.00
    0    4    7     -3.54      0.00
    2    4    7     13.22      0.00
    4    4    7      5.85      0.00
    6    4    7     -2.97      0.00
    8    4    7      2.20      0.00
   10    4    7      4.61      0.00
   12    4    7     -2.51      0.00
   14    4    7     -6.69      0.00
   16    4    7     -4.28      0.00
   18    4    7     -5.63      0.00
   20    4    7     -9.00      0.00
   22    4    7     -5.07      0.00
   24    4    7     -1.51      0.00
   26    4    7     -4.92      0.00
  -29    5    7      3.97      0.00
  -27    5    7     -0.44      0.00
  -25    5    7     -4.22      0.00
  -23    5    7     -3.43      0.00
  -21    5    7      2.91      0.00
  -19    5    7      3.51      0.00
  -17    5    7     -1.59      0.00
  -15    5    7      5.26      0.00
  -13    5    7     17.56      0.00
  -11    5    7      8.73      0.00
   -9    5    7    -15.25      0.00
   -7    5    7     -9.12      0.00
   -5    5    7     24.82      0.00
   -3    5    7     19.80      0.00
   -1    5    7    -16.39      0.00
    1    5    7    -17.10      0.00
    3    5    7     -2.06      0.00
    5    5    7    -10.35      0.00
    7    5    7    -18.41      0.00
    9    5    7    -12.89      0.00
   11    5    7     -4.03      0.00
   13    5    7      2.51      0.00
   15    5    7      0.87      0.00
   17    5    7     -2.29      0.00
   19    5    7      1.53      0.00
   21    5    7      2.64      0.00
   23    5    7     -2.53      0.00
   25    5    7     -1.37      0.00
  -30    6    7      0.81      0.00
  -28    6    7      5.54      0.00
  -26    6    7      2.23      0.00
  -24    6    7     -2.49      0.00
  -22    6    7     -1.98      0.00
  -20    6    7      0.70      0.00
  -18    6    7      4.61      0.00
  -16    6    7      7.32      0.00
  -14    6    7      3.88      0.00
  -12    6    7      1.33      0.00
  -10    6    7     11.18      0.00
   -8    6    7     17.10      0.00
   -6    6    7      1.60      0.00
   -4    6    7     -6.04      0.00
   -2    6    7     10.97      0.00
    0    6    7     18.73      0.00
    2    6    7      9.23      0.00
    4    6    7      6.66      0.00
    6    6    7      9.98      0.00
    8    6    7      8.71      0.00
   10    6    7      5.41      0.00
   12    6    7      2.97      0.00
   14    6    7      3.29      0.00
   16    6    7      7.32      0.00
   18    6    7      8.60      0.00
   20    6    7      2.68      0.00
   22    6    7     -0.28      0.00
   24    6    7      5.38      0.00
  -29    7    7    -10.12      0.00
  -27    7    7     -7.39      0.00
  -25    7    7      6.34      0.00
  -23    7    7     14.73      0.00
  -21    7    7      9.23      0.00
  -19    7    7      4.24      0.00
  -17    7    7      4.50      0.00
  -15    7    7     -2.72      0.00
  -13    7    7    -12.09      0.00
  -11    7    7     -8.24      0.00
   -9    7    7      2.23      0.00
   -7    7    7     -3.52      0.00
   -5    7    7    -19.70      0.00
   -3    7    7    -11.53      0.00
   -1    7    7      7.71      0.00
    1    7    7      0.09      0.00
    3    7    7    -10.19      0.00
    5    7    7      2.31      0.00
    7    7    7     11.57      0.00
    9    7    7      5.16      0.00
   11    7    7     -2.25      0.00
   13    7    7     -4.74      0.00
   15    7    7     -7.06      0.00
   17    7    7     -9.32      0.00
   19    7    7     -5.20      0.00
   21    7    7      0.90      0.00
   23    7    7     -1.80      0.00
   25    7    7     -9.11      0.00
  -28    8    7      8.26      0.00
  -26    8    7      2.75      0.00
  -24    8    7    -11.37      0.00
  -22    8    7    -17.98      0.00
  -20    8    7    -14.64      0.00
  -18    8    7    -11.84      0.00
  -16    8    7     -6.15      0.00
  -14    8    7      4.94      0.00
  -12    8    7      7.56      0.00
  -10    8    7     -3.55      0.00
   -8    8    7     -6.19      0.00
   -6    8    7      8.87      0.00
   -4    8    7      8.94      0.00
   -2    8    7    -12.99      0.00
    0    8    7    -17.52      0.00
    2    8    7     -2.65      0.00
    4    8    7     -1.46      0.00
    6    8    7    -12.22      0.00
    8    8    7    -12.69      0.00
   10    8    7     -3.68      0.00
   12    8    7      0.57      0.00
   14    8    7     -1.01      0.00
   16    8    7     -2.93      0.00
   18    8    7     -5.49      0.00
   20    8    7     -4.62      0.00
   22    8    7      1.70      0.00
   24    8    7      5.90      0.00
  -29    9    7     -3.12      0.00
  -27    9    7     -3.66      0.00
  -25    9    7      0.39      0.00
  -23    9    7      7.83      0.00
  -21    9    7     13.40      0.00
  -19    9    7     12.14      0.00
  -17    9    7      3.40      0.00
  -15    9    7     -3.56      0.00
  -13    9    7     -2.44      0.00
  -11    9    7     -0.77      0.00
   -9    9    7     -5.34      0.00
   -7    9    7     -4.39      0.00
   -5    9    7      7.86      0.00
   -3    9    7     10.47      0.00
   -1    9    7      2.09      0.00
    1    9    7      3.13      0.00
    3    9    7      6.31      0.00
    5    9    7      2.20      0.00
    7    9    7      0.85      0.00
    9    9    7      1.74      0.00
   11    9    7     -1.16      0.00
   13    9    7     -3.21      0.00
   15    9    7      2.53      0.00
   17    9    7     10.05      0.00
   19    9    7      5.53      0.00
   21    9    7     -6.16      0.00
   23    9    7    -10.52      0.00
  -28   10    7      1.78      0.00
  -26   10    7     -1.65      0.00
  -24   10    7     -1.34      0.00
  -22   10    7     -2.95      0.00
  -20   10    7     -6.37      0.00
  -18   10    7     -3.09      0.00
  -16   10    7      2.87      0.00
  -14   10    7      0.03      0.00
  -12   10    7     -5.74      0.00
  -10   10    7      1.25      0.00
   -8   10    7      8.22      0.00
   -6   10    7     -3.13      0.00
   -4   10    7     -8.29      0.00
   -2   10    7      6.79      0.00
    0   10    7     11.02      0.00
    2   10    7     -1.67      0.00
    4   10    7     -4.26      0.00
    6   10    7      4.89      0.00
    8   10    7      6.11      0.00
   10   10    7      0.64      0.00
   12   10    7      4.00      0.00
   14   10    7      7.18      0.00
   16   10    7     -1.13      0.00
   18   10    7     -2.82      0.00
   20   10    7      6.35      0.00
   22   10    7      8.03      0.00
   24   10    7      3.17      0.00
  -27   11    7      9.08      0.00
  -25   11    7     10.65      0.00
  -23   11    7      4.62      0.00
  -21   11    7      0.10      0.00
  -19   11    7     -0.53      0.00
  -17   11    7     -0.75      0.00
  -15   11    7     -0.39      0.00
  -13   11    7      2.35      0.00
  -11   11    7      3.56      0.00
   -9   11    7      0.94      0.00
   -7   11    7     -2.09      0.00
   -5   11    7     -4.40      0.00
   -3   11    7     -4.87      0.00
   -1   11    7     -5.17      0.00
    1   11    7     -6.00      0.00
    3   11    7     -3.17      0.00
    5   11    7     -3.61      0.00
    7   11    7     -8.84      0.00
    9   11    7     -5.78      0.00
   11   11    7     -0.20      0.00
   13   11    7     -3.72      0.00
   15   11    7     -8.39      0.00
   17   11    7     -9.16      0.00
   19   11    7    -10.38      0.00
   21   11    7     -9.86      0.00
   23   11    7     -3.60      0.00
  -26   12    7    -14.40      0.00
  -24   12    7     -6.68      0.00
  -22   12    7      2.02      0.00
  -20   12    7      5.17      0.00
  -18   12    7      2.77      0.00
  -16   12    7     -1.36      0.00
  -14   12    7     -2.71      0.00
  -12   12    7     -0.83      0.00
  -10   12    7     -2.67      0.00
   -8   12    7     -3.73      0.00
   -6   12    7      3.07      0.00
   -4   12    7      2.65      0.00
   -2   12    7     -5.78      0.00
    0   12    7     -1.93      0.00
    2   12    7      7.72      0.00
    4   12    7      7.27      0.00
    6   12    7      2.70      0.00
    8   12    7      1.05      0.00
   10   12    7     -2.42      0.00
   12   12    7     -9.51      0.00
   14   12    7     -8.28      0.00
   16   12    7      2.81      0.00
   18   12    7      6.45      0.00
   20   12    7      2.73      0.00
   22   12    7      1.46      0.00
  -25   13    7      1.01      0.00
  -23   13    7    -10.57      0.00
  -21   13    7    -10.45      0.00
  -19   13    7     -6.92      0.00
  -17   13    7     -2.89      0.00
  -15   13    7      2.01      0.00
  -13   13    7      1.41      0.00
  -11   13    7     -2.34      0.00
   -9   13    7     -2.14      0.00
   -7   13    7     -1.22      0.00
   -5   13    7      0.44      0.00
   -3   13    7      4.61      0.00
   -1   13    7      6.67      0.00
    1   13    7      4.52      0.00
    3   13    7      0.61      0.00
    5   13    7      1.46      0.00
    7   13    7      5.86      0.00
    9   13    7      6.02      0.00
   11   13    7      8.34      0.00
   13   13    7     14.03      0.00
   15   13    7      9.95      0.00
   17   13    7      1.26      0.00
   19   13    7      1.58      0.00
   21   13    7      5.60      0.00
  -26   14    7     -7.06      0.00
  -24   14    7      5.62      0.00
  -22   14    7      8.63      0.00
  -20   14    7      2.67      0.00
  -18   14    7     -3.55      0.00
  -16   14    7     -8.37      0.00
  -14   14    7     -8.45      0.00
  -12   14    7     -3.58      0.00
  -10   14    7      1.09      0.00
   -8   14    7      1.62      0.00
   -6   14    7     -0.39      0.00
   -4   14    7      1.34      0.00
   -2   14    7      2.18      0.00
    0   14    7     -4.38      0.00
    2   14    7     -7.66      0.00
    4   14    7     -2.43      0.00
    6   14    7      1.10      0.00
    8   14    7     -2.16      0.00
   10   14    7     -6.88      0.00
   12   14    7     -7.25      0.00
   14   14    7     -5.97      0.00
   16   14    7     -4.09      0.00
   18   14    7      0.61      0.00
   20   14    7      0.55      0.00
  -25   15    7     14.54      0.00
  -23   15    7      6.94      0.00
  -21   15    7     -2.96      0.00
  -19   15    7      0.11      0.00
  -17   15    7      9.40      0.00
  -15   15    7     10.72      0.00
  -13   15    7      6.18      0.00
  -11   15    7      3.93      0.00
   -9   15    7      4.42      0.00
   -7   15    7      3.73      0.00
   -5   15    7     -1.87      0.00
   -3   15    7     -6.02      0.00
   -1   15    7     -2.55      0.00
    1   15    7      0.72      0.00
    3   15    7     -1.69      0.00
    5   15    7     -6.99      0.00
    7   15    7     -7.77      0.00
    9   15    7      0.16      0.00
   11   15    7      5.38      0.00
   13   15    7      3.06      0.00
   15   15    7      1.62      0.00
   17   15    7     -1.04      0.00
   19   15    7     -5.05      0.00
  -24   16    7    -19.10      0.00
  -22   16    7     -3.39      0.00
  -20   16    7      8.70      0.00
  -18   16    7      2.81      0.00
  -16   16    7     -2.58      0.00
  -14   16    7     -1.99      0.00
  -12   16    7     -4.84      0.00
  -10   16    7     -9.19      0.00
   -8   16    7     -8.45      0.00
   -6   16    7     -2.80      0.00
   -4   16    7      1.79      0.00
   -2   16    7      2.07      0.00
    0   16    7      0.91      0.00
    2   16    7      1.19      0.00
    4   16    7      2.96      0.00
    6   16    7      4.15      0.00
    8   16    7      4.86      0.00
   10   16    7      3.94      0.00
   12   16    7     -1.48      0.00
   14   16    7     -2.51      0.00
   16   16    7      6.11      0.00
   18   16    7     11.60      0.00
  -21   17    7     -3.58      0.00
  -19   17    7     -8.71      0.00
  -17   17    7    -10.46      0.00
  -15   17    7    -10.33      0.00
  -13   17    7     -3.45      0.00
  -11   17    7      5.23      0.00
   -9   17    7      6.03      0.00
   -7   17    7      3.29      0.00
   -5   17    7      2.57      0.00
   -3   17    7     -0.61      0.00
   -1   17    7     -2.16      0.00
    1   17    7      2.06      0.00
    3   17    7      2.01      0.00
    5   17    7     -1.36      0.00
    7   17    7     -2.47      0.00
    9   17    7     -4.32      0.00
   11   17    7      0.15      0.00
   13   17    7      7.03      0.00
   15   17    7      0.63      0.00
   17   17    7     -7.43      0.00
  -20   18    7     -7.22      0.00
  -18   18    7      3.89      0.00
  -16   18    7      8.89      0.00
  -14   18    7      4.10      0.00
  -12   18    7     -0.47      0.00
  -10   18    7     -0.87      0.00
   -8   18    7     -1.71      0.00
   -6   18    7     -3.14      0.00
   -4   18    7      0.94      0.00
   -2   18    7      5.25      0.00
    0   18    7      0.72      0.00
    2   18    7     -4.91      0.00
    4   18    7     -3.20      0.00
    6   18    7     -0.69      0.00
    8   18    7     -5.81      0.00
   10   18    7    -12.39      0.00
   12   18    7     -6.32      0.00
   14   18    7      6.61      0.00
   16   18    7      8.71      0.00
  -19   19    7     -3.20      0.00
  -17   19    7    -10.90      0.00
  -15   19    7     -4.79      0.00
  -13   19    7     -2.85      0.00
  -11   19    7     -8.06      0.00
   -9   19    7     -3.10      0.00
   -7   19    7      4.64      0.00
   -5   19    7     -0.95      0.00
   -3   19    7     -8.49      0.00
   -1   19    7     -7.10      0.00
    1   19    7     -2.72      0.00
    3   19    7      1.18      0.00
    5   19    7      2.96      0.00
    7   19    7      9.46      0.00
    9   19    7     21.72      0.00
   11   19    7     14.01      0.00
   13   19    7    -10.97      0.00
   15   19    7    -15.71      0.00
  -18   20    7      7.30      0.00
  -16   20    7      2.56      0.00
  -14   20    7     -2.59      0.00
  -12   20    7      3.12      0.00
  -10   20    7      4.02      0.00
   -8   20    7     -4.37      0.00
   -6   20    7     -3.04      0.00
   -4   20    7      6.62      0.00
   -2   20    7     10.29      0.00
    0   20    7      9.75      0.00
    2   20    7      9.79      0.00
    4   20    7      7.76      0.00
    6   20    7     -1.82      0.00
    8   20    7    -13.30      0.00
   10   20    7     -8.90      0.00
   12   20    7      6.31      0.00
  -15   21    7      1.40      0.00
  -13   21    7      0.63      0.00
  -11   21    7     -0.01      0.00
   -9   21    7     -2.13      0.00
   -7   21    7     -7.24      0.00
   -5   21    7    -11.34      0.00
   -3   21    7    -11.59      0.00
   -1   21    7     -9.22      0.00
    1   21    7     -9.28      0.00
    3   21    7    -12.20      0.00
    5   21    7     -4.38      0.00
    7   21    7      9.56      0.00
    9   21    7      5.28      0.00
   11   21    7     -6.61      0.00
  -12   22    7      4.08      0.00
  -10   22    7     -0.07      0.00
   -8   22    7      9.47      0.00
   -6   22    7     17.37      0.00
   -4   22    7     14.21      0.00
   -2   22    7      7.90      0.00
    0   22    7      7.91      0.00
    2   22    7     12.62      0.00
    4   22    7      7.95      0.00
    6   22    7     -5.84      0.00
    8   22    7    -10.16      0.00
   -9   23    7     17.48      0.00
   -7   23    7      6.34      0.00
   -5   23    7     -0.19      0.00
   -3   23    7      0.63      0.00
   -1   23    7     -2.98      0.00
    1   23    7    -11.45      0.00
    3   23    7    -10.72      0.00
    5   23    7     -2.06      0.00
  -30    0    8      1.77      0.00
  -28    0    8      1.79      0.00
  -26    0    8      5.96      0.00
  -24    0    8      9.93      0.00
  -22    0    8      8.65      0.00
  -20    0    8     -1.61      0.00
  -18    0    8    -10.64      0.00
  -16    0    8     -6.59      0.00
  -14    0    8      0.55      0.00
  -12    0    8     -6.45      0.00
  -10    0    8    -16.06      0.00
   -8    0    8     -9.48      0.00
   -6    0    8     -5.95      0.00
   -4    0    8     -3.71      0.00
   -2    0    8     26.79      0.00
    0    0    8     42.32      0.00
    2    0    8      8.22      0.00
    4    0    8    -14.26      0.00
    6    0    8     -3.39      0.00
    8    0    8      0.15      0.00
   10    0    8     -3.67      0.00
   12    0    8      1.71      0.00
   14    0    8      8.78      0.00
   16    0    8      6.47      0.00
   18    0    8     -2.27      0.00
   20    0    8     -3.89      0.00
   22    0    8      1.22      0.00
   24    0    8      2.63      0.00
   26    0    8      2.08      0.00
  -31    1    8     -3.97      0.00
  -29    1    8     -3.93      0.00
  -27    1    8     -2.86      0.00
  -25    1    8     -3.07      0.00
  -23    1    8     -4.59      0.00
  -21    1    8     -5.08      0.00
  -19    1    8     -1.02      0.00
  -17    1    8      3.96      0.00
  -15    1    8     -0.08      0.00
  -13    1    8     -9.50      0.00
  -11    1    8     -7.22      0.00
   -9    1    8      9.11      0.00
   -7    1    8     21.13      0.00
   -5    1    8     14.45      0.00
   -3    1    8     -2.31      0.00
   -1    1    8     -6.93      0.00
    1    1    8      4.78      0.00
    3    1    8     14.27      0.00
    5    1    8     11.91      0.00
    7    1    8      5.84      0.00
    9    1    8      2.61      0.00
   11    1    8     -0.78      0.00
   13    1    8     -6.94      0.00
   15    1    8     -8.24      0.00
   17    1    8     -0.94      0.00
   19    1    8      3.11      0.00
   21    1    8     -0.59      0.00
   23    1    8     -2.40      0.00
   25    1    8     -1.35      0.00
  -30    2    8      6.12      0.00
  -28    2    8      1.96      0.00
  -26    2    8     -4.94      0.00
  -24    2    8     -7.22      0.00
  -22    2    8     -2.70      0.00
  -20    2    8      5.70      0.00
  -18    2    8      4.99      0.00
  -16    2    8     -3.03      0.00
  -14    2    8      3.96      0.00
  -12    2    8     23.89      0.00
  -10    2    8     19.15      0.00
   -8    2    8    -14.34      0.00
   -6    2    8    -18.74      0.00
   -4    2    8      8.57      0.00
   -2    2    8      0.81      0.00
    0    2    8    -23.68      0.00
    2    2    8    -11.22      0.00
    4    2    8      3.86      0.00
    6    2    8     -2.20      0.00
    8    2    8     -3.71      0.00
   10    2    8     -0.28      0.00
   12    2    8      2.23      0.00
   14    2    8      6.55      0.00
   16    2    8      6.68      0.00
   18    2    8      4.17      0.00
   20    2    8      4.36      0.00
   22    2    8      4.13      0.00
   24    2    8      1.64      0.00
   26    2    8     -0.22      0.00
  -31    3    8     -1.40      0.00
  -29    3    8      0.97      0.00
  -27    3    8      6.15      0.00
  -25    3    8      7.82      0.00
  -23    3    8      4.33      0.00
  -21    3    8     -0.64      0.00
  -19    3    8     -3.46      0.00
  -17    3    8     -1.30      0.00
  -15    3    8      3.15      0.00
  -13    3    8      0.76      0.00
  -11    3    8     -5.66      0.00
   -9    3    8     -2.62      0.00
   -7    3    8      2.30      0.00
   -5    3    8     -3.61      0.00
   -3    3    8     -7.31      0.00
   -1    3    8     -3.04      0.00
    1    3    8     -3.61      0.00
    3    3    8     -8.27      0.00
    5    3    8     -9.19      0.00
    7    3    8     -5.06      0.00
    9    3    8      2.45      0.00
   11    3    8      7.14      0.00
   13    3    8      5.48      0.00
   15    3    8     -0.65      0.00
   17    3    8     -6.25      0.00
   19    3    8     -4.28      0.00
   21    3    8      0.94      0.00
   23    3    8      1.92      0.00
   25    3    8      4.11      0.00
  -30    4    8     -3.56      0.00
  -28    4    8     -2.35      0.00
  -26    4    8     -1.77      0.00
  -24    4    8      0.17      0.00
  -22    4    8      1.95      0.00
  -20    4    8     -2.85      0.00
  -18    4    8     -6.01      0.00
  -16    4    8     -3.73      0.00
  -14    4    8     -8.11      0.00
  -12    4    8    -17.38      0.00
  -10    4    8    -11.74      0.00
   -8    4    8      7.96      0.00
   -6    4    8      6.54      0.00
   -4    4    8    -11.84      0.00
   -2    4    8     -1.61      0.00
    0    4    8     14.05      0.00
    2    4    8     -2.19      0.00
    4    4    8     -9.60      0.00
    6    4    8      5.94      0.00
    8    4    8      8.27      0.00
   10    4    8      0.05      0.00
   12    4    8     -3.53      0.00
   14    4    8     -5.00      0.00
   16    4    8     -2.22      0.00
   18    4    8      0.30      0.00
   20    4    8     -4.05      0.00
   22    4    8     -6.61      0.00
   24    4    8     -4.41      0.00
  -29    5    8      0.96      0.00
  -27    5    8     -1.81      0.00
  -25    5    8     -0.34      0.00
  -23    5    8     -2.01      0.00
  -21    5    8     -3.88      0.00
  -19    5    8     -0.25      0.00
  -17    5    8      2.16      0.00
  -15    5    8     -1.20      0.00
  -13    5    8     -3.15      0.00
  -11    5    8     -3.16      0.00
   -9    5    8     -8.98      0.00
   -7    5    8    -10.70      0.00
   -5    5    8     -0.51      0.00
   -3    5    8      4.18      0.00
   -1    5    8      4.55      0.00
    1    5    8     15.37      0.00
    3    5    8     19.32      0.00
    5    5    8      5.33      0.00
    7    5    8     -7.02      0.00
    9    5    8     -9.75      0.00
   11    5    8     -8.86      0.00
   13    5    8     -4.11      0.00
   15    5    8      2.65      0.00
   17    5    8      4.84      0.00
   19    5    8      3.96      0.00
   21    5    8      6.57      0.00
   23    5    8      7.91      0.00
   25    5    8      2.50      0.00
  -30    6    8     -2.31      0.00
  -28    6    8     -2.96      0.00
  -26    6    8     -4.13      0.00
  -24    6    8     -3.22      0.00
  -22    6    8      1.84      0.00
  -20    6    8      7.63      0.00
  -18    6    8      5.55      0.00
  -16    6    8      1.97      0.00
  -14    6    8      9.83      0.00
  -12    6    8     20.45      0.00
  -10    6    8     14.96      0.00
   -8    6    8     -3.02      0.00
   -6    6    8     -3.64      0.00
   -4    6    8     10.09      0.00
   -2    6    8     -3.65      0.00
    0    6    8    -28.63      0.00
    2    6    8    -19.36      0.00
    4    6    8      1.17      0.00
    6    6    8      3.52      0.00
    8    6    8      2.42      0.00
   10    6    8      4.17      0.00
   12    6    8      2.58      0.00
   14    6    8     -0.36      0.00
   16    6    8     -0.88      0.00
   18    6    8      1.52      0.00
   20    6    8      2.49      0.00
   22    6    8      0.69      0.00
   24    6    8      2.37      0.00
  -29    7    8      5.75      0.00
  -27    7    8      8.60      0.00
  -25    7    8      3.94      0.00
  -23    7    8      0.34      0.00
  -21    7    8     -0.64      0.00
  -19    7    8      0.36      0.00
  -17    7    8      3.40      0.00
  -15    7    8      3.42      0.00
  -13    7    8     -1.12      0.00
  -11    7    8     -1.14      0.00
   -9    7    8      9.76      0.00
   -7    7    8     14.83      0.00
   -5    7    8      3.42      0.00
   -3    7    8      0.72      0.00
   -1    7    8     12.84      0.00
    1    7    8     11.59      0.00
    3    7    8     -2.70      0.00
    5    7    8     -8.01      0.00
    7    7    8     -2.71      0.00
    9    7    8      5.26      0.00
   11    7    8     11.40      0.00
   13    7    8     11.30      0.00
   15    7    8      4.77      0.00
   17    7    8     -0.68      0.00
   19    7    8     -1.82      0.00
   21    7    8     -4.83      0.00
   23    7    8     -9.19      0.00
  -28    8    8     -2.45      0.00
  -26    8    8     -0.74      0.00
  -24    8    8      3.48      0.00
  -22    8    8      2.71      0.00
  -20    8    8     -2.03      0.00
  -18    8    8     -1.91      0.00
  -16    8    8      2.61      0.00
  -14    8    8      1.16      0.00
  -12    8    8     -5.01      0.00
  -10    8    8     -4.05      0.00
   -8    8    8      3.14      0.00
   -6    8    8     -1.40      0.00
   -4    8    8    -13.80      0.00
   -2    8    8     -6.76      0.00
    0    8    8      8.39      0.00
    2    8    8      5.14      0.00
    4    8    8      0.53      0.00
    6    8    8      6.56      0.00
    8    8    8      4.10      0.00
   10    8    8     -8.11      0.00
   12    8    8    -10.80      0.00
   14    8    8     -1.03      0.00
   16    8    8      4.20      0.00
   18    8    8      0.39      0.00
   20    8    8      0.67      0.00
   22    8    8      5.23      0.00
   24    8    8      4.89      0.00
  -29    9    8     -9.06      0.00
  -27    9    8     -6.51      0.00
  -25    9    8     -0.57      0.00
  -23    9    8      3.57      0.00
  -21    9    8      7.04      0.00
  -19    9    8      6.28      0.00
  -17    9    8     -0.77      0.00
  -15    9    8     -5.84      0.00
  -13    9    8     -3.88      0.00
  -11    9    8     -3.16      0.00
   -9    9    8    -10.03      0.00
   -7    9    8     -7.57      0.00
   -5    9    8      9.70      0.00
   -3    9    8      9.68      0.00
   -1    9    8    -10.62      0.00
    1    9    8    -14.01      0.00
    3    9    8     -0.32      0.00
    5    9    8      1.66      0.00
    7    9    8     -5.66      0.00
    9    9    8     -2.36      0.00
   11    9    8      4.90      0.00
   13    9    8     -1.12      0.00
   15    9    8     -8.78      0.00
   17    9    8     -5.22      0.00
   19    9    8     -2.62      0.00
   21    9    8     -3.16      0.00
   23    9    8      1.50      0.00
  -28   10    8      7.58      0.00
  -26   10    8      1.83      0.00
  -24   10    8     -6.89      0.00
  -22   10    8    -11.01      0.00
  -20   10    8     -8.87      0.00
  -18   10    8     -3.82      0.00
  -16   10    8     -0.02      0.00
  -14   10    8      4.58      0.00
  -12   10    8     10.90      0.00
  -10   10    8     11.49      0.00
   -8   10    8      1.36      0.00
   -6   10    8     -7.68      0.00
   -4   10    8     -4.24      0.00
   -2   10    8      2.54      0.00
    0   10    8      4.81      0.00
    2   10    8      3.28      0.00
    4   10    8     -2.09      0.00
    6   10    8     -3.17      0.00
    8   10    8      1.34      0.00
   10   10    8      1.12      0.00
   12   10    8     -1.98      0.00
   14   10    8     -1.53      0.00
   16   10    8      1.50      0.00
   18   10    8      4.50      0.00
   20   10    8      4.18      0.00
   22   10    8     -0.13      0.00
  -27   11    8     -5.21      0.00
  -25   11    8     -3.98      0.00
  -23   11    8      0.38      0.00
  -21   11    8      4.41      0.00
  -19   11    8      6.25      0.00
  -17   11    8      7.37      0.00
  -15   11    8      7.56      0.00
  -13   11    8      2.06      0.00
  -11   11    8     -5.28      0.00
   -9   11    8     -0.58      0.00
   -7   11    8      7.27      0.00
   -5   11    8      2.87      0.00
   -3   11    8      0.07      0.00
   -1   11    8      3.96      0.00
    1   11    8      1.11      0.00
    3   11    8     -2.84      0.00
    5   11    8      0.68      0.00
    7   11    8      3.69      0.00
    9   11    8     -0.17      0.00
   11   11    8     -2.27      0.00
   13   11    8      5.00      0.00
   15   11    8      7.26      0.00
   17   11    8     -1.82      0.00
   19   11    8     -4.98      0.00
   21   11    8     -1.39      0.00
  -26   12    8      8.15      0.00
  -24   12    8     14.33      0.00
  -22   12    8     12.05      0.00
  -20   12    8      3.06      0.00
  -18   12    8     -2.66      0.00
  -16   12    8     -4.28      0.00
  -14   12    8     -6.20      0.00
  -12   12    8     -6.27      0.00
  -10   12    8     -4.04      0.00
   -8   12    8     -2.15      0.00
   -6   12    8     -1.92      0.00
   -4   12    8     -4.01      0.00
   -2   12    8     -3.72      0.00
    0   12    8     -0.35      0.00
    2   12    8      1.07      0.00
    4   12    8      0.74      0.00
    6   12    8     -1.59      0.00
    8   12    8     -2.34      0.00
   10   12    8      2.20      0.00
   12   12    8      2.01      0.00
   14   12    8     -4.08      0.00
   16   12    8     -4.51      0.00
   18   12    8     -1.82      0.00
   20   12    8     -3.27      0.00
   22   12    8     -4.71      0.00
  -25   13    8     -1.90      0.00
  -23   13    8     -7.75      0.00
  -21   13    8     -9.00      0.00
  -19   13    8     -6.23      0.00
  -17   13    8     -3.44      0.00
  -15   13    8     -1.53      0.00
  -13   13    8      1.50      0.00
  -11   13    8      5.42      0.00
   -9   13    8      3.28      0.00
   -7   13    8     -0.53      0.00
   -5   13    8      1.66      0.00
   -3   13    8     -0.13      0.00
   -1   13    8     -5.62      0.00
    1   13    8     -2.61      0.00
    3   13    8      3.61      0.00
    5   13    8      3.65      0.00
    7   13    8     -0.70      0.00
    9   13    8     -3.32      0.00
   11   13    8     -3.44      0.00
   13   13    8     -4.89      0.00
   15   13    8     -3.27      0.00
   17   13    8      1.53      0.00
   19   13    8      1.23      0.00
   21   13    8      0.04      0.00
  -24   14    8    -17.05      0.00
  -22   14    8     -6.79      0.00
  -20   14    8     10.34      0.00
  -18   14    8     12.10      0.00
  -16   14    8      3.02      0.00
  -14   14    8     -0.99      0.00
  -12   14    8     -1.83      0.00
  -10   14    8     -3.40      0.00
   -8   14    8     -2.67      0.00
   -6   14    8      0.46      0.00
   -4   14    8      5.28      0.00
   -2   14    8      7.69      0.00
    0   14    8      5.38      0.00
    2   14    8      1.60      0.00
    4   14    8     -2.13      0.00
    6   14    8     -1.37      0.00
    8   14    8      1.88      0.00
   10   14    8     -1.07      0.00
   12   14    8     -4.38      0.00
   14   14    8     -3.20      0.00
   16   14    8     -3.65      0.00
   18   14    8     -3.58      0.00
   20   14    8     -0.56      0.00
  -23   15    8     23.15      0.00
  -21   15    8      0.39      0.00
  -19   15    8    -16.36      0.00
  -17   15    8     -8.53      0.00
  -15   15    8      2.97      0.00
  -13   15    8      4.17      0.00
  -11   15    8      1.20      0.00
   -9   15    8      0.57      0.00
   -7   15    8     -1.09      0.00
   -5   15    8     -6.24      0.00
   -3   15    8     -6.97      0.00
   -1   15    8     -3.36      0.00
    1   15    8     -3.40      0.00
    3   15    8     -3.90      0.00
    5   15    8     -0.33      0.00
    7   15    8      2.06      0.00
    9   15    8     -0.71      0.00
   11   15    8     -0.79      0.00
   13   15    8      5.77      0.00
   15   15    8      5.60      0.00
   17   15    8     -2.80      0.00
   19   15    8     -5.35      0.00
  -22   16    8     -0.43      0.00
  -20   16    8     12.05      0.00
  -18   16    8     13.40      0.00
  -16   16    8      4.61      0.00
  -14   16    8     -1.44      0.00
  -12   16    8     -0.74      0.00
  -10   16    8      1.16      0.00
   -8   16    8      1.74      0.00
   -6   16    8      1.97      0.00
   -4   16    8      1.14      0.00
   -2   16    8      1.10      0.00
    0   16    8      1.65      0.00
    2   16    8      0.98      0.00
    4   16    8      0.53      0.00
    6   16    8     -0.72      0.00
    8   16    8      1.74      0.00
   10   16    8      7.97      0.00
   12   16    8      3.81      0.00
   14   16    8     -3.35      0.00
   16   16    8      2.96      0.00
   18   16    8      9.18      0.00
  -21   17    8     -3.54      0.00
  -19   17    8     -4.89      0.00
  -17   17    8     -6.15      0.00
  -15   17    8     -2.42      0.00
  -13   17    8     -0.83      0.00
  -11   17    8     -3.06      0.00
   -9   17    8     -2.34      0.00
   -7   17    8      1.97      0.00
   -5   17    8      5.21      0.00
   -3   17    8      3.58      0.00
   -1   17    8     -0.08      0.00
    1   17    8     -0.62      0.00
    3   17    8      0.98      0.00
    5   17    8      0.26      0.00
    7   17    8     -4.42      0.00
    9   17    8     -6.41      0.00
   11   17    8     -2.50      0.00
   13   17    8     -1.61      0.00
   15   17    8     -4.43      0.00
   17   17    8     -3.58      0.00
  -20   18    8     -5.42      0.00
  -18   18    8      0.43      0.00
  -16   18    8      2.46      0.00
  -14   18    8     -0.53      0.00
  -12   18    8      2.58      0.00
  -10   18    8      6.49      0.00
   -8   18    8      1.66      0.00
   -6   18    8     -3.55      0.00
   -4   18    8     -3.43      0.00
   -2   18    8     -3.34      0.00
    0   18    8     -0.95      0.00
    2   18    8      1.63      0.00
    4   18    8     -2.37      0.00
    6   18    8     -2.76      0.00
    8   18    8      1.33      0.00
   10   18    8      0.37      0.00
   12   18    8      4.54      0.00
   14   18    8     11.23      0.00
  -19   19    8      1.05      0.00
  -17   19    8     -4.23      0.00
  -15   19    8     -3.23      0.00
  -13   19    8      0.74      0.00
  -11   19    8      0.43      0.00
   -9   19    8     -1.97      0.00
   -7   19    8     -3.76      0.00
   -5   19    8     -4.38      0.00
   -3   19    8     -1.52      0.00
   -1   19    8     -1.53      0.00
    1   19    8     -6.53      0.00
    3   19    8     -5.06      0.00
    5   19    8      3.37      0.00
    7   19    8      7.26      0.00
    9   19    8     -0.24      0.00
   11   19    8    -14.45      0.00
   13   19    8    -17.57      0.00
  -16   20    8     -2.46      0.00
  -14   20    8     -5.75      0.00
  -12   20    8    -17.98      0.00
  -10   20    8    -21.13      0.00
   -8   20    8     -6.15      0.00
   -6   20    8      5.77      0.00
   -4   20    8      2.21      0.00
   -2   20    8     -0.82      0.00
    0   20    8      3.51      0.00
    2   20    8      6.49      0.00
    4   20    8      3.15      0.00
    6   20    8     -7.72      0.00
    8   20    8     -9.76      0.00
   10   20    8      9.80      0.00
   12   20    8     22.59      0.00
  -15   21    8     -1.50      0.00
  -13   21    8      8.73      0.00
  -11   21    8     21.76      0.00
   -9   21    8     12.81      0.00
   -7   21    8     -5.35      0.00
   -5   21    8     -3.78      0.00
   -3   21    8      8.35      0.00
   -1   21    8      9.95      0.00
    1   21    8      0.91      0.00
    3   21    8     -7.29      0.00
    5   21    8     -2.54      0.00
    7   21    8      8.87      0.00
    9   21    8      8.46      0.00
  -12   22    8    -14.52      0.00
  -10   22    8     -9.12      0.00
   -8   22    8      3.30      0.00
   -6   22    8      2.49      0.00
   -4   22    8    -11.86      0.00
   -2   22    8    -20.49      0.00
    0   22    8    -10.72      0.00
    2   22    8      7.38      0.00
    4   22    8     13.33      0.00
    6   22    8      6.26      0.00
   -7   23    8     -9.75      0.00
   -5   23    8      2.72      0.00
   -3   23    8     10.82      0.00
   -1   23    8      4.68      0.00
    1   23    8     -8.55      0.00
    3   23    8    -15.76      0.00
  -31    1    9      4.97      0.00
  -29    1    9     -3.57      0.00
  -27    1    9     -5.56      0.00
  -25    1    9     -1.38      0.00
  -23    1    9      2.52      0.00
  -21    1    9      3.35      0.00
  -19    1    9      0.81      0.00
  -17    1    9      3.73      0.00
  -15    1    9     13.04      0.00
  -13    1    9     12.12      0.00
  -11    1    9     -2.05      0.00
   -9    1    9     -3.42      0.00
   -7    1    9     10.37      0.00
   -5    1    9      0.52      0.00
   -3    1    9    -19.96      0.00
   -1    1    9     -2.72      0.00
    1    1    9     21.22      0.00
    3    1    9     14.46      0.00
    5    1    9      8.99      0.00
    7    1    9     13.60      0.00
    9    1    9      7.57      0.00
   11    1    9     -0.43      0.00
   13    1    9      0.19      0.00
   15    1    9      2.30      0.00
   17    1    9     -1.36      0.00
   19    1    9     -7.74      0.00
   21    1    9     -7.67      0.00
   23    1    9     -2.80      0.00
   25    1    9     -1.24      0.00
  -30    2    9     -0.11      0.00
  -28    2    9      1.64      0.00
  -26    2    9     -3.23      0.00
  -24    2    9     -5.54      0.00
  -22    2    9     -2.91      0.00
  -20    2    9     -0.65      0.00
  -18    2    9      0.68      0.00
  -16    2    9      1.69      0.00
  -14    2    9      1.17      0.00
  -12    2    9      1.00      0.00
  -10    2    9      0.00      0.00
   -8    2    9     -3.36      0.00
   -6    2    9     -1.08      0.00
   -4    2    9      5.57      0.00
   -2    2    9      3.25      0.00
    0    2    9     -4.30      0.00
    2    2    9     -5.15      0.00
    4    2    9     -2.27      0.00
    6    2    9     -1.06      0.00
    8    2    9      0.24      0.00
   10    2    9      2.69      0.00
   12    2    9      0.60      0.00
   14    2    9     -7.03      0.00
   16    2    9     -4.74      0.00
   18    2    9     10.30      0.00
   20    2    9     15.95      0.00
   22    2    9      8.31      0.00
   24    2    9      4.21      0.00
  -31    3    9      0.14      0.00
  -29    3    9      0.54      0.00
  -27    3    9      3.01      0.00
  -25    3    9      5.40      0.00
  -23    3    9      1.96      0.00
  -21    3    9     -2.35      0.00
  -19    3    9     -1.08      0.00
  -17    3    9     -5.14      0.00
  -15    3    9    -15.33      0.00
  -13    3    9    -12.70      0.00
  -11    3    9      5.08      0.00
   -9    3    9     11.68      0.00
   -7    3    9      0.04      0.00
   -5    3    9      4.74      0.00
   -3    3    9     22.94      0.00
   -1    3    9     13.39      0.00
    1    3    9     -5.01      0.00
    3    3    9     -2.34      0.00
    5    3    9     -1.30      0.00
    7    3    9     -6.33      0.00
    9    3    9     -4.15      0.00
   11    3    9     -0.81      0.00
   13    3    9      6.33      0.00
   15    3    9     13.55      0.00
   17    3    9      3.84      0.00
   19    3    9    -10.90      0.00
   21    3    9    -10.02      0.00
   23    3    9     -3.40      0.00
   25    3    9     -3.17      0.00
  -30    4    9      2.92      0.00
  -28    4    9      5.40      0.00
  -26    4    9      5.02      0.00
  -24    4    9      1.20      0.00
  -22    4    9     -1.24      0.00
  -20    4    9     -2.92      0.00
  -18    4    9     -4.64      0.00
  -16    4    9     -2.67      0.00
  -14    4    9      0.58      0.00
  -12    4    9     -2.66      0.00
  -10    4    9     -7.11      0.00
   -8    4    9     -2.67      0.00
   -6    4    9      0.99      0.00
   -4    4    9     -3.40      0.00
   -2    4    9     -4.74      0.00
    0    4    9     -1.96      0.00
    2    4    9      0.48      0.00
    4    4    9      3.68      0.00
    6    4    9      0.71      0.00
    8    4    9     -6.52      0.00
   10    4    9     -5.45      0.00
   12    4    9     -1.61      0.00
   14    4    9     -5.26      0.00
   16    4    9     -8.21      0.00
   18    4    9     -1.23      0.00
   20    4    9      6.29      0.00
   22    4    9      2.11      0.00
   24    4    9     -5.02      0.00
  -29    5    9     -9.30      0.00
  -27    5    9     -8.43      0.00
  -25    5    9     -6.63      0.00
  -23    5    9     -2.49      0.00
  -21    5    9      1.06      0.00
  -19    5    9      0.64      0.00
  -17    5    9      3.53      0.00
  -15    5    9      8.98      0.00
  -13    5    9      5.65      0.00
  -11    5    9     -5.25      0.00
   -9    5    9     -6.82      0.00
   -7    5    9      2.27      0.00
   -5    5    9     -4.55      0.00
   -3    5    9    -19.05      0.00
   -1    5    9     -4.72      0.00
    1    5    9     11.29      0.00
    3    5    9     -3.00      0.00
    5    5    9     -9.69      0.00
    7    5    9      5.64      0.00
    9    5    9     10.58      0.00
   11    5    9      2.41      0.00
   13    5    9     -1.30      0.00
   15    5    9      1.09      0.00
   17    5    9      2.10      0.00
   19    5    9     -1.65      0.00
   21    5    9     -2.55      0.00
   23    5    9      4.54      0.00
  -30    6    9      7.98      0.00
  -28    6    9     -0.65      0.00
  -26    6    9     -4.44      0.00
  -24    6    9     -0.32      0.00
  -22    6    9      1.40      0.00
  -20    6    9      0.27      0.00
  -18    6    9     -1.37      0.00
  -16    6    9     -5.07      0.00
  -14    6    9     -7.56      0.00
  -12    6    9     -3.44      0.00
  -10    6    9      0.63      0.00
   -8    6    9     -4.13      0.00
   -6    6    9     -4.42      0.00
   -4    6    9      4.59      0.00
   -2    6    9      0.80      0.00
    0    6    9    -10.84      0.00
    2    6    9     -5.53      0.00
    4    6    9      5.92      0.00
    6    6    9      4.67      0.00
    8    6    9     -1.20      0.00
   10    6    9     -1.79      0.00
   12    6    9     -1.21      0.00
   14    6    9     -2.86      0.00
   16    6    9     -2.46      0.00
   18    6    9      1.01      0.00
   20    6    9      4.03      0.00
   22    6    9      5.47      0.00
   24    6    9      4.17      0.00
  -29    7    9      4.10      0.00
  -27    7    9      8.72      0.00
  -25    7    9      6.08      0.00
  -23    7    9     -1.15      0.00
  -21    7    9     -5.15      0.00
  -19    7    9     -3.96      0.00
  -17    7    9     -3.68      0.00
  -15    7    9     -4.34      0.00
  -13    7    9     -0.11      0.00
  -11    7    9      6.85      0.00
   -9    7    9      5.85      0.00
   -7    7    9     -4.28      0.00
   -5    7    9     -3.37      0.00
   -3    7    9     10.24      0.00
   -1    7    9     10.51      0.00
    1    7    9      2.77      0.00
    3    7    9      5.56      0.00
    5    7    9      5.63      0.00
    7    7    9     -1.58      0.00
    9    7    9     -1.93      0.00
   11    7    9      3.30      0.00
   13    7    9      5.50      0.00
   15    7    9      4.09      0.00
   17    7    9      1.61      0.00
   19    7    9     -2.46      0.00
   21    7    9     -8.09      0.00
   23    7    9     -9.60      0.00
  -28    8    9      2.35      0.00
  -26    8    9      1.51      0.00
  -24    8    9     -2.63      0.00
  -22    8    9     -1.67      0.00
  -20    8    9      1.71      0.00
  -18    8    9      3.71      0.00
  -16    8    9      4.16      0.00
  -14    8    9      3.31      0.00
  -12    8    9      0.13      0.00
  -10    8    9     -1.89      0.00
   -8    8    9      4.26      0.00
   -6    8    9      7.71      0.00
   -4    8    9     -0.48      0.00
   -2    8    9     -3.07      0.00
    0    8    9      1.85      0.00
    2    8    9     -2.19      0.00
    4    8    9     -8.40      0.00
    6    8    9     -4.84      0.00
    8    8    9     -0.06      0.00
   10    8    9     -2.18      0.00
   12    8    9     -3.77      0.00
   14    8    9     -0.33      0.00
   16    8    9      1.04      0.00
   18    8    9      3.13      0.00
   20    8    9     11.25      0.00
   22    8    9     13.01      0.00
  -29    9    9      0.67      0.00
  -27    9    9     -0.74      0.00
  -25    9    9      5.93      0.00
  -23    9    9     11.08      0.00
  -21    9    9      6.96      0.00
  -19    9    9     -0.26      0.00
  -17    9    9     -0.37      0.00
  -15    9    9      3.92      0.00
  -13    9    9      1.45      0.00
  -11    9    9     -5.33      0.00
   -9    9    9     -3.62      0.00
   -7    9    9      5.29      0.00
   -5    9    9      4.74      0.00
   -3    9    9     -4.14      0.00
   -1    9    9     -2.84      0.00
    1    9    9      4.25      0.00
    3    9    9      3.37      0.00
    5    9    9      0.27      0.00
    7    9    9      0.63      0.00
    9    9    9      1.69      0.00
   11    9    9      1.09      0.00
   13    9    9      0.28      0.00
   15    9    9      3.53      0.00
   17    9    9      5.86      0.00
   19    9    9      0.98      0.00
   21    9    9     -3.16      0.00
   23    9    9      0.76      0.00
  -28   10    9    -10.14      0.00
  -26   10    9    -15.87      0.00
  -24   10    9    -16.10      0.00
  -22   10    9     -9.91      0.00
  -20   10    9     -0.49      0.00
  -18   10    9      3.57      0.00
  -16   10    9      1.04      0.00
  -14   10    9     -0.98      0.00
  -12   10    9      2.80      0.00
  -10   10    9      5.59      0.00
   -8   10    9     -1.51      0.00
   -6   10    9     -4.75      0.00
   -4   10    9      3.29      0.00
   -2   10    9      2.60      0.00
    0   10    9     -7.06      0.00
    2   10    9     -6.38      0.00
    4   10    9      3.01      0.00
    6   10    9      7.47      0.00
    8   10    9      3.88      0.00
   10   10    9      1.87      0.00
   12   10    9      4.38      0.00
   14   10    9      1.97      0.00
   16   10    9     -3.15      0.00
   18   10    9     -4.62      0.00
   20   10    9     -5.23      0.00
   22   10    9     -3.91      0.00
  -27   11    9      9.38      0.00
  -25   11    9     14.00      0.00
  -23   11    9      8.63      0.00
  -21   11    9      1.75      0.00
  -19   11    9     -0.23      0.00
  -17   11    9     -0.78      0.00
  -15   11    9     -3.16      0.00
  -13   11    9     -2.14      0.00
  -11   11    9      2.91      0.00
   -9   11    9      3.46      0.00
   -7   11    9     -2.98      0.00
   -5   11    9     -4.92      0.00
   -3   11    9      2.08      0.00
   -1   11    9      6.27      0.00
    1   11    9      4.73      0.00
    3   11    9      1.09      0.00
    5   11    9     -5.38      0.00
    7   11    9     -6.32      0.00
    9   11    9      1.43      0.00
   11   11    9      5.34      0.00
   13   11    9      1.39      0.00
   15   11    9     -0.99      0.00
   17   11    9      4.35      0.00
   19   11    9     10.33      0.00
   21   11    9      7.78      0.00
  -26   12    9     -0.25      0.00
  -24   12    9     -6.01      0.00
  -22   12    9     -2.27      0.00
  -20   12    9      1.62      0.00
  -18   12    9      1.44      0.00
  -16   12    9      2.80      0.00
  -14   12    9      7.58      0.00
  -12   12    9      5.79      0.00
  -10   12    9     -0.52      0.00
   -8   12    9      4.01      0.00
   -6   12    9      8.20      0.00
   -4   12    9     -0.70      0.00
   -2   12    9     -4.51      0.00
    0   12    9      0.90      0.00
    2   12    9      1.23      0.00
    4   12    9     -0.93      0.00
    6   12    9      0.62      0.00
    8   12    9      0.34      0.00
   10   12    9     -5.80      0.00
   12   12    9     -7.06      0.00
   14   12    9      0.84      0.00
   16   12    9     -0.95      0.00
   18   12    9    -11.95      0.00
   20   12    9    -10.28      0.00
  -25   13    9     -0.47      0.00
  -23   13    9      7.71      0.00
  -21   13    9      1.32      0.00
  -19   13    9     -6.43      0.00
  -17   13    9     -3.40      0.00
  -15   13    9      0.79      0.00
  -13   13    9     -0.86      0.00
  -11   13    9     -1.49      0.00
   -9   13    9     -1.09      0.00
   -7   13    9     -1.39      0.00
   -5   13    9     -0.09      0.00
   -3   13    9     -0.15      0.00
   -1   13    9     -1.38      0.00
    1   13    9     -1.12      0.00
    3   13    9      0.59      0.00
    5   13    9      2.99      0.00
    7   13    9      1.87      0.00
    9   13    9     -0.35      0.00
   11   13    9      0.82      0.00
   13   13    9      0.37      0.00
   15   13    9      0.73      0.00
   17   13    9      5.94      0.00
   19   13    9      6.73      0.00
  -24   14    9     -3.00      0.00
  -22   14    9     -5.05      0.00
  -20   14    9      4.31      0.00
  -18   14    9      8.06      0.00
  -16   14    9      1.44      0.00
  -14   14    9     -6.62      0.00
  -12   14    9     -9.08      0.00
  -10   14    9     -5.60      0.00
   -8   14    9     -4.40      0.00
   -6   14    9     -4.08      0.00
   -4   14    9      1.21      0.00
   -2   14    9      2.89      0.00
    0   14    9     -1.13      0.00
    2   14    9     -1.98      0.00
    4   14    9      0.04      0.00
    6   14    9      0.01      0.00
    8   14    9     -0.03      0.00
   10   14    9      4.52      0.00
   12   14    9      6.05      0.00
   14   14    9     -1.17      0.00
   16   14    9     -2.62      0.00
   18   14    9      4.10      0.00
  -23   15    9     -9.38      0.00
  -21   15    9     -7.91      0.00
  -19   15    9     -6.40      0.00
  -17   15    9     -7.61      0.00
  -15   15    9     -3.44      0.00
  -13   15    9      6.70      0.00
  -11   15    9      9.50      0.00
   -9   15    9      4.53      0.00
   -7   15    9      1.00      0.00
   -5   15    9     -1.89      0.00
   -3   15    9     -5.93      0.00
   -1   15    9     -6.87      0.00
    1   15    9     -1.39      0.00
    3   15    9      4.26      0.00
    5   15    9      4.40      0.00
    7   15    9      4.47      0.00
    9   15    9      2.32      0.00
   11   15    9     -3.09      0.00
   13   15    9     -0.65      0.00
   15   15    9      0.73      0.00
   17   15    9    -10.20      0.00
  -22   16    9     19.00      0.00
  -20   16    9     10.39      0.00
  -18   16    9     11.03      0.00
  -16   16    9     15.59      0.00
  -14   16    9      7.18      0.00
  -12   16    9     -1.86      0.00
  -10   16    9      0.01      0.00
   -8   16    9      4.45      0.00
   -6   16    9      5.33      0.00
   -4   16    9      7.95      0.00
   -2   16    9     13.96      0.00
    0   16    9     12.89      0.00
    2   16    9      2.26      0.00
    4   16    9     -6.49      0.00
    6   16    9     -6.88      0.00
    8   16    9     -3.57      0.00
   10   16    9     -5.87      0.00
   12   16    9    -11.91      0.00
   14   16    9     -8.67      0.00
   16   16    9      2.71      0.00
  -21   17    9     -1.55      0.00
  -19   17    9     -1.90      0.00
  -17   17    9     -9.46      0.00
  -15   17    9     -6.04      0.00
  -13   17    9      3.51      0.00
  -11   17    9      1.39      0.00
   -9   17    9     -5.04      0.00
   -7   17    9     -3.97      0.00
   -5   17    9     -4.12      0.00
   -3   17    9     -9.12      0.00
   -1   17    9     -8.61      0.00
    1   17    9     -3.92      0.00
    3   17    9     -0.21      0.00
    5   17    9      1.97      0.00
    7   17    9     -2.29      0.00
    9   17    9     -3.81      0.00
   11   17    9      5.34      0.00
   13   17    9      6.98      0.00
   15   17    9     -2.71      0.00
  -20   18    9     -7.13      0.00
  -18   18    9     -0.53      0.00
  -16   18    9     -0.05      0.00
  -14   18    9     -3.36      0.00
  -12   18    9     -0.89      0.00
  -10   18    9      5.53      0.00
   -8   18    9      5.52      0.00
   -6   18    9      2.66      0.00
   -4   18    9      4.25      0.00
   -2   18    9      4.61      0.00
    0   18    9      3.00      0.00
    2   18    9      3.85      0.00
    4   18    9      4.95      0.00
    6   18    9      5.63      0.00
    8   18    9      6.70      0.00
   10   18    9      7.70      0.00
   12   18    9      7.67      0.00
   14   18    9      4.65      0.00
  -19   19    9     12.15      0.00
  -17   19    9     13.18      0.00
  -15   19    9      8.11      0.00
  -13   19    9     -5.26      0.00
  -11   19    9    -11.30      0.00
   -9   19    9     -7.27      0.00
   -7   19    9     -3.12      0.00
   -5   19    9     -0.33      0.00
   -3   19    9      0.00      0.00
   -1   19    9     -4.82      0.00
    1   19    9     -6.65      0.00
    3   19    9     -4.43      0.00
    5   19    9     -5.26      0.00
    7   19    9     -4.70      0.00
    9   19    9     -5.02      0.00
   11   19    9     -9.59      0.00
   13   19    9     -5.23      0.00
  -16   20    9    -14.04      0.00
  -14   20    9      3.57      0.00
  -12   20    9     19.76      0.00
  -10   20    9     17.82      0.00
   -8   20    9      9.83      0.00
   -6   20    9      4.24      0.00
   -4   20    9     -0.14      0.00
   -2   20    9      1.66      0.00
    0   20    9      4.41      0.00
    2   20    9      1.06      0.00
    4   20    9     -0.68      0.00
    6   20    9      3.09      0.00
    8   20    9      6.83      0.00
   10   20    9      4.49      0.00
  -15   21    9      7.85      0.00
  -13   21    9     -1.66      0.00
  -11   21    9     -8.39      0.00
   -9   21    9     -8.07      0.00
   -7   21    9     -4.68      0.00
   -5   21    9     -3.38      0.00
   -3   21    9     -5.26      0.00
   -1   21    9     -6.36      0.00
    1   21    9     -4.31      0.00
    3   21    9      0.82      0.00
    5   21    9      2.96      0.00
    7   21    9     -5.16      0.00
  -12   22    9    -21.04      0.00
  -10   22    9    -17.38      0.00
   -8   22    9    -13.00      0.00
   -6   22    9     -9.29      0.00
   -4   22    9     -2.17      0.00
   -2   22    9      6.51      0.00
    0   22    9     11.66      0.00
    2   22    9      6.05      0.00
    4   22    9     -5.99      0.00
   -5   23    9      9.91      0.00
   -3   23    9      1.50      0.00
   -1   23    9     -9.95      0.00
  -30    0   10      1.78      0.00
  -28    0   10      3.99      0.00
  -26    0   10      2.81      0.00
  -24    0   10      1.83      0.00
  -22    0   10     -0.82      0.00
  -20    0   10     -2.72      0.00
  -18    0   10     -0.06      0.00
  -16    0   10     -3.84      0.00
  -14    0   10    -14.04      0.00
  -12    0   10    -12.21      0.00
  -10    0   10     -2.54      0.00
   -8    0   10    -10.09      0.00
   -6    0   10    -22.49      0.00
   -4    0   10     -6.78      0.00
   -2    0   10     10.37      0.00
    0    0   10     -4.51      0.00
    2    0   10    -15.74      0.00
    4    0   10     -4.12      0.00
    6    0   10      1.66      0.00
    8    0   10     -0.58      0.00
   10    0   10     -1.58      0.00
   12    0   10     -5.55      0.00
   14    0   10     -5.72      0.00
   16    0   10     -2.23      0.00
   18    0   10     -8.50      0.00
   20    0   10    -16.79      0.00
   22    0   10     -7.61      0.00
   24    0   10     10.75      0.00
  -31    1   10     -4.63      0.00
  -29    1   10     -4.72      0.00
  -27    1   10     -1.04      0.00
  -25    1   10      1.29      0.00
  -23    1   10      0.60      0.00
  -21    1   10     -0.19      0.00
  -19    1   10     -0.39      0.00
  -17    1   10      0.18      0.00
  -15    1   10      2.08      0.00
  -13    1   10      2.01      0.00
  -11    1   10     -0.27      0.00
   -9    1   10      0.92      0.00
   -7    1   10      2.14      0.00
   -5    1   10     -4.23      0.00
   -3    1   10     -9.17      0.00
   -1    1   10     -3.67      0.00
    1    1   10      3.26      0.00
    3    1   10      5.30      0.00
    5    1   10      4.80      0.00
    7    1   10      1.19      0.00
    9    1   10     -2.19      0.00
   11    1   10     -0.23      0.00
   13    1   10      2.09      0.00
   15    1   10     -0.14      0.00
   17    1   10     -0.32      0.00
   19    1   10      5.90      0.00
   21    1   10      6.35      0.00
   23    1   10     -6.99      0.00
  -30    2   10      5.89      0.00
  -28    2   10     -0.58      0.00
  -26    2   10     -3.57      0.00
  -24    2   10     -2.31      0.00
  -22    2   10      2.33      0.00
  -20    2   10      5.68      0.00
  -18    2   10      3.61      0.00
  -16    2   10      5.31      0.00
  -14    2   10     13.13      0.00
  -12    2   10     11.81      0.00
  -10    2   10     -0.27      0.00
   -8    2   10      1.82      0.00
   -6    2   10     18.60      0.00
   -4    2   10     14.46      0.00
   -2    2   10     -2.13      0.00
    0    2   10      2.85      0.00
    2    2   10      6.53      0.00
    4    2   10     -7.87      0.00
    6    2   10    -10.59      0.00
    8    2   10     -0.48      0.00
   10    2   10      2.10      0.00
   12    2   10      0.75      0.00
   14    2   10      1.56      0.00
   16    2   10      1.13      0.00
   18    2   10     -1.42      0.00
   20    2   10     -1.15      0.00
   22    2   10      7.02      0.00
   24    2   10     15.45      0.00
  -31    3   10     -3.58      0.00
  -29    3   10      0.02      0.00
  -27    3   10     -0.22      0.00
  -25    3   10     -1.41      0.00
  -23    3   10      0.82      0.00
  -21    3   10      2.10      0.00
  -19    3   10      1.25      0.00
  -17    3   10      0.60      0.00
  -15    3   10     -1.57      0.00
  -13    3   10     -2.21      0.00
  -11    3   10      3.91      0.00
   -9    3   10      7.72      0.00
   -7    3   10      3.05      0.00
   -5    3   10      1.16      0.00
   -3    3   10      1.33      0.00
   -1    3   10     -4.90      0.00
    1    3   10     -6.37      0.00
    3    3   10      2.23      0.00
    5    3   10      8.28      0.00
    7    3   10      8.14      0.00
    9    3   10      6.91      0.00
   11    3   10      5.31      0.00
   13    3   10      1.38      0.00
   15    3   10     -1.74      0.00
   17    3   10      1.71      0.00
   19    3   10      3.27      0.00
   21    3   10     -6.81      0.00
   23    3   10    -15.37      0.00
  -30    4   10      5.11      0.00
  -28    4   10      7.85      0.00
  -26    4   10      6.82      0.00
  -24    4   10      1.61      0.00
  -22    4   10     -5.20      0.00
  -20    4   10     -6.21      0.00
  -18    4   10     -0.82      0.00
  -16    4   10      0.37      0.00
  -14    4   10     -4.02      0.00
  -12    4   10     -4.35      0.00
  -10    4   10      1.16      0.00
   -8    4   10     -2.66      0.00
   -6    4   10    -16.48      0.00
   -4    4   10     -9.76      0.00
   -2    4   10     11.81      0.00
    0    4   10      8.83      0.00
    2    4   10     -4.85      0.00
    4    4   10     -2.61      0.00
    6    4   10     -1.94      0.00
    8    4   10     -9.01      0.00
   10    4   10    -10.07      0.00
   12    4   10     -5.37      0.00
   14    4   10     -0.09      0.00
   16    4   10      0.84      0.00
   18    4   10     -2.00      0.00
   20    4   10      1.51      0.00
   22    4   10      7.71      0.00
   24    4   10      4.38      0.00
  -29    5   10    -12.51      0.00
  -27    5   10     -5.65      0.00
  -25    5   10      4.95      0.00
  -23    5   10      9.38      0.00
  -21    5   10      8.32      0.00
  -19    5   10      4.44      0.00
  -17    5   10     -0.05      0.00
  -15    5   10     -2.10      0.00
  -13    5   10     -2.36      0.00
  -11    5   10     -5.20      0.00
   -9    5   10     -5.14      0.00
   -7    5   10      4.14      0.00
   -5    5   10      7.49      0.00
   -3    5   10     -1.86      0.00
   -1    5   10     -5.36      0.00
    1    5   10      0.08      0.00
    3    5   10      1.53      0.00
    5    5   10     -0.51      0.00
    7    5   10     -0.19      0.00
    9    5   10      0.77      0.00
   11    5   10     -1.38      0.00
   13    5   10     -3.33      0.00
   15    5   10     -0.94      0.00
   17    5   10      0.30      0.00
   19    5   10     -1.40      0.00
   21    5   10      0.42      0.00
   23    5   10      4.48      0.00
  -30    6   10      2.26      0.00
  -28    6   10      0.58      0.00
  -26    6   10     -7.72      0.00
  -24    6   10    -13.84      0.00
  -22    6   10    -11.72      0.00
  -20    6   10     -9.22      0.00
  -18    6   10     -9.55      0.00
  -16    6   10     -3.87      0.00
  -14    6   10      5.00      0.00
  -12    6   10      5.18      0.00
  -10    6   10     -2.40      0.00
   -8    6   10     -3.26      0.00
   -6    6   10      5.60      0.00
   -4    6   10      4.92      0.00
   -2    6   10     -4.08      0.00
    0    6   10     -0.62      0.00
    2    6   10      4.37      0.00
    4    6   10     -1.31      0.00
    6    6   10     -2.28      0.00
    8    6   10      3.59      0.00
   10    6   10      7.82      0.00
   12    6   10      9.14      0.00
   14    6   10      3.37      0.00
   16    6   10     -4.43      0.00
   18    6   10     -3.99      0.00
   20    6   10     -3.02      0.00
   22    6   10     -8.55      0.00
  -29    7   10      1.55      0.00
  -27    7   10     -3.45      0.00
  -25    7   10     -1.95      0.00
  -23    7   10      1.48      0.00
  -21    7   10      3.77      0.00
  -19    7   10      8.20      0.00
  -17    7   10      8.17      0.00
  -15    7   10     -0.28      0.00
  -13    7   10     -7.51      0.00
  -11    7   10     -4.67      0.00
   -9    7   10     -0.31      0.00
   -7    7   10     -6.04      0.00
   -5    7   10    -10.02      0.00
   -3    7   10     -3.68      0.00
   -1    7   10     -1.11      0.00
    1    7   10     -3.71      0.00
    3    7   10     -1.97      0.00
    5    7   10      1.22      0.00
    7    7   10      1.53      0.00
    9    7   10     -1.96      0.00
   11    7   10     -7.67      0.00
   13    7   10     -7.88      0.00
   15    7   10     -0.10      0.00
   17    7   10      5.16      0.00
   19    7   10      0.95      0.00
   21    7   10     -1.89      0.00
   23    7   10      2.96      0.00
  -28    8   10      8.00      0.00
  -26    8   10      7.94      0.00
  -24    8   10      6.38      0.00
  -22    8   10      3.95      0.00
  -20    8   10     -1.56      0.00
  -18    8   10     -6.73      0.00
  -16    8   10     -7.25      0.00
  -14    8   10     -3.94      0.00
  -12    8   10      1.19      0.00
  -10    8   10      5.78      0.00
   -8    8   10      4.69      0.00
   -6    8   10     -0.99      0.00
   -4    8   10      0.64      0.00
   -2    8   10      6.74      0.00
    0    8   10      3.91      0.00
    2    8   10      0.66      0.00
    4    8   10      3.71      0.00
    6    8   10      0.58      0.00
    8    8   10     -6.66      0.00
   10    8   10     -4.79      0.00
   12    8   10      2.22      0.00
   14    8   10      1.88      0.00
   16    8   10     -3.76      0.00
   18    8   10     -2.94      0.00
   20    8   10      1.48      0.00
   22    8   10     -0.44      0.00
  -29    9   10     -7.26      0.00
  -27    9   10      4.82      0.00
  -25    9   10      6.35      0.00
  -23    9   10     -2.20      0.00
  -21    9   10     -6.73      0.00
  -19    9   10     -3.97      0.00
  -17    9   10     -0.88      0.00
  -15    9   10     -1.57      0.00
  -13    9   10     -2.17      0.00
  -11    9   10     -2.77      0.00
   -9    9   10     -3.01      0.00
   -7    9   10      1.44      0.00
   -5    9   10      1.50      0.00
   -3    9   10     -5.35      0.00
   -1    9   10     -5.10      0.00
    1    9   10     -0.88      0.00
    3    9   10     -2.42      0.00
    5    9   10     -3.35      0.00
    7    9   10      1.25      0.00
    9    9   10      5.66      0.00
   11    9   10      3.58      0.00
   13    9   10     -1.32      0.00
   15    9   10     -3.16      0.00
   17    9   10     -3.68      0.00
   19    9   10      0.18      0.00
   21    9   10      8.75      0.00
  -28   10   10     -4.32      0.00
  -26   10   10    -10.60      0.00
  -24   10   10     -3.53      0.00
  -22   10   10      4.34      0.00
  -20   10   10      2.81      0.00
  -18   10   10     -1.95      0.00
  -16   10   10     -0.14      0.00
  -14   10   10      4.98      0.00
  -12   10   10      1.78      0.00
  -10   10   10     -7.65      0.00
   -8   10   10     -8.47      0.00
   -6   10   10      0.99      0.00
   -4   10   10      4.32      0.00
   -2   10   10     -1.53      0.00
    0   10   10     -2.90      0.00
    2   10   10     -0.68      0.00
    4   10   10     -1.46      0.00
    6   10   10     -0.91      0.00
    8   10   10     -0.17      0.00
   10   10   10     -4.27      0.00
   12   10   10     -6.95      0.00
   14   10   10      1.20      0.00
   16   10   10     11.77      0.00
   18   10   10      6.05      0.00
   20   10   10     -9.66      0.00
  -27   11   10      1.54      0.00
  -25   11   10     -3.87      0.00
  -23   11   10     -4.99      0.00
  -21   11   10     -1.76      0.00
  -19   11   10      2.13      0.00
  -17   11   10      3.77      0.00
  -15   11   10      2.39      0.00
  -13   11   10     -0.82      0.00
  -11   11   10      3.20      0.00
   -9   11   10      9.78      0.00
   -7   11   10      3.21      0.00
   -5   11   10     -3.48      0.00
   -3   11   10      2.83      0.00
   -1   11   10      5.77      0.00
    1   11   10      0.22      0.00
    3   11   10     -2.41      0.00
    5   11   10     -0.76      0.00
    7   11   10      0.14      0.00
    9   11   10      2.46      0.00
   11   11   10     10.29      0.00
   13   11   10     10.47      0.00
   15   11   10     -1.56      0.00
   17   11   10      0.42      0.00
   19   11   10     18.10      0.00
  -26   12   10      5.40      0.00
  -24   12   10      4.38      0.00
  -22   12   10     -3.07      0.00
  -20   12   10     -1.84      0.00
  -18   12   10      2.50      0.00
  -16   12   10     -1.52      0.00
  -14   12   10     -6.38      0.00
  -12   12   10     -3.58      0.00
  -10   12   10     -0.15      0.00
   -8   12   10      0.28      0.00
   -6   12   10      1.23      0.00
   -4   12   10      3.09      0.00
   -2   12   10      3.20      0.00
    0   12   10      1.62      0.00
    2   12   10      3.37      0.00
    4   12   10      5.29      0.00
    6   12   10      0.61      0.00
    8   12   10     -4.99      0.00
   10   12   10     -7.06      0.00
   12   12   10     -5.57      0.00
   14   12   10     -0.12      0.00
   16   12   10     -0.56      0.00
   18   12   10    -10.87      0.00
   20   12   10    -16.03      0.00
  -25   13   10      0.94      0.00
  -23   13   10      7.20      0.00
  -21   13   10      9.23      0.00
  -19   13   10      2.55      0.00
  -17   13   10     -0.11      0.00
  -15   13   10      3.72      0.00
  -13   13   10      7.32      0.00
  -11   13   10      4.69      0.00
   -9   13   10     -0.15      0.00
   -7   13   10      0.54      0.00
   -5   13   10     -1.45      0.00
   -3   13   10     -7.01      0.00
   -1   13   10     -3.11      0.00
    1   13   10      3.66      0.00
    3   13   10      2.37      0.00
    5   13   10      0.55      0.00
    7   13   10      5.41      0.00
    9   13   10      9.70      0.00
   11   13   10      3.27      0.00
   13   13   10     -4.82      0.00
   15   13   10     -2.90      0.00
   17   13   10     -0.27      0.00
   19   13   10     -0.83      0.00
  -24   14   10     -7.43      0.00
  -22   14   10     -5.91      0.00
  -20   14   10     -6.70      0.00
  -18   14   10     -7.52      0.00
  -16   14   10     -3.40      0.00
  -14   14   10     -0.73      0.00
  -12   14   10     -3.56      0.00
  -10   14   10     -3.99      0.00
   -8   14   10     -0.06      0.00
   -6   14   10      4.03      0.00
   -4   14   10      4.83      0.00
   -2   14   10      1.24      0.00
    0   14   10     -2.15      0.00
    2   14   10     -4.07      0.00
    4   14   10     -5.38      0.00
    6   14   10     -5.90      0.00
    8   14   10     -7.30      0.00
   10   14   10     -3.08      0.00
   12   14   10      7.54      0.00
   14   14   10     12.08      0.00
   16   14   10     12.45      0.00
   18   14   10     14.60      0.00
  -23   15   10      3.33      0.00
  -21   15   10     -2.04      0.00
  -19   15   10      1.82      0.00
  -17   15   10      1.32      0.00
  -15   15   10     -2.49      0.00
  -13   15   10     -0.30      0.00
  -11   15   10      4.24      0.00
   -9   15   10      2.66      0.00
   -7   15   10     -5.60      0.00
   -5   15   10     -8.32      0.00
   -3   15   10     -2.80      0.00
   -1   15   10     -2.20      0.00
    1   15   10     -5.53      0.00
    3   15   10     -1.70      0.00
    5   15   10      6.94      0.00
    7   15   10      9.69      0.00
    9   15   10      4.52      0.00
   11   15   10     -0.25      0.00
   13   15   10     -3.80      0.00
   15   15   10     -8.90      0.00
   17   15   10     -8.88      0.00
  -22   16   10     -5.22      0.00
  -20   16   10     -0.05      0.00
  -18   16   10      3.66      0.00
  -16   16   10      3.78      0.00
  -14   16   10     -1.93      0.00
  -12   16   10     -8.13      0.00
  -10   16   10     -8.57      0.00
   -8   16   10     -3.43      0.00
   -6   16   10      1.14      0.00
   -4   16   10      1.37      0.00
   -2   16   10     -0.92      0.00
    0   16   10     -2.72      0.00
    2   16   10     -1.86      0.00
    4   16   10     -3.55      0.00
    6   16   10     -8.28      0.00
    8   16   10     -5.91      0.00
   10   16   10     -0.87      0.00
   12   16   10      0.17      0.00
   14   16   10      2.79      0.00
   16   16   10      1.01      0.00
  -21   17   10      4.03      0.00
  -19   17   10     -5.00      0.00
  -17   17   10     -5.24      0.00
  -15   17   10      2.70      0.00
  -13   17   10      8.30      0.00
  -11   17   10      9.71      0.00
   -9   17   10      8.83      0.00
   -7   17   10      7.76      0.00
   -5   17   10      5.58      0.00
   -3   17   10      4.93      0.00
   -1   17   10     10.80      0.00
    1   17   10     15.38      0.00
    3   17   10     11.23      0.00
    5   17   10      5.69      0.00
    7   17   10      6.38      0.00
    9   17   10      8.17      0.00
   11   17   10      0.92      0.00
   13   17   10     -8.76      0.00
   15   17   10     -5.37      0.00
  -20   18   10      6.25      0.00
  -18   18   10      9.04      0.00
  -16   18   10      0.74      0.00
  -14   18   10     -2.66      0.00
  -12   18   10      1.24      0.00
  -10   18   10      1.57      0.00
   -8   18   10     -0.44      0.00
   -6   18   10      0.18      0.00
   -4   18   10     -0.78      0.00
   -2   18   10     -4.76      0.00
    0   18   10     -8.07      0.00
    2   18   10     -9.31      0.00
    4   18   10     -4.54      0.00
    6   18   10     -0.34      0.00
    8   18   10     -8.09      0.00
   10   18   10    -10.68      0.00
   12   18   10      2.13      0.00
  -17   19   10     -2.92      0.00
  -15   19   10      2.04      0.00
  -13   19   10     -0.32      0.00
  -11   19   10     -5.15      0.00
   -9   19   10     -7.08      0.00
   -7   19   10     -8.80      0.00
   -5   19   10     -7.17      0.00
   -3   19   10     -1.27      0.00
   -1   19   10      3.31      0.00
    1   19   10      7.14      0.00
    3   19   10      6.86      0.00
    5   19   10     -0.54      0.00
    7   19   10     -4.65      0.00
    9   19   10     -2.33      0.00
   11   19   10     -0.87      0.00
  -16   20   10      4.11      0.00
  -14   20   10     -1.82      0.00
  -12   20   10     -8.60      0.00
  -10   20   10     -5.03      0.00
   -8   20   10      4.26      0.00
   -6   20   10      8.24      0.00
   -4   20   10      7.94      0.00
   -2   20   10      5.60      0.00
    0   20   10     -0.53      0.00
    2   20   10     -3.75      0.00
    4   20   10     -0.33      0.00
    6   20   10      6.34      0.00
    8   20   10     14.19      0.00
  -13   21   10     14.85      0.00
  -11   21   10     23.85      0.00
   -9   21   10     14.71      0.00
   -7   21   10      3.44      0.00
   -5   21   10     -1.32      0.00
   -3   21   10     -5.39      0.00
   -1   21   10     -8.61      0.00
    1   21   10     -8.37      0.00
    3   21   10     -2.64      0.00
    5   21   10      3.40      0.00
    7   21   10     -0.07      0.00
  -10   22   10     -7.07      0.00
   -8   22   10     -0.17      0.00
   -6   22   10      3.52      0.00
   -4   22   10      2.20      0.00
   -2   22   10      5.41      0.00
    0   22   10     12.37      0.00
    2   22   10      7.20      0.00
  -31    1   11     -5.52      0.00
  -29    1   11     -0.78      0.00
  -27    1   11      3.06      0.00
  -25    1   11     -0.26      0.00
  -23    1   11     -2.95      0.00
  -21    1   11     -3.82      0.00
  -19    1   11     -3.45      0.00
  -17    1   11      0.79      0.00
  -15    1   11      1.82      0.00
  -13    1   11     -2.36      0.00
  -11    1   11      0.14      0.00
   -9    1   11      7.25      0.00
   -7    1   11      0.66      0.00
   -5    1   11    -11.21      0.00
   -3    1   11     -4.07      0.00
   -1    1   11      4.90      0.00
    1    1   11     -4.97      0.00
    3    1   11     -9.29      0.00
    5    1   11      1.90      0.00
    7    1   11      7.80      0.00
    9    1   11      6.27      0.00
   11    1   11      4.42      0.00
   13    1   11      2.13      0.00
   15    1   11      3.34      0.00
   17    1   11      6.88      0.00
   19    1   11      5.76      0.00
   21    1   11      3.03      0.00
   23    1   11      3.97      0.00
  -30    2   11     -3.50      0.00
  -28    2   11     -9.88      0.00
  -26    2   11     -4.50      0.00
  -24    2   11      4.84      0.00
  -22    2   11      5.33      0.00
  -20    2   11      1.91      0.00
  -18    2   11      1.59      0.00
  -16    2   11      1.64      0.00
  -14    2   11      1.38      0.00
  -12    2   11      2.13      0.00
  -10    2   11      2.14      0.00
   -8    2   11      1.53      0.00
   -6    2   11     -1.32      0.00
   -4    2   11     -7.01      0.00
   -2    2   11     -7.19      0.00
    0    2   11     -1.26      0.00
    2    2   11      0.90      0.00
    4    2   11     -0.65      0.00
    6    2   11     -1.87      0.00
    8    2   11     -2.53      0.00
   10    2   11      0.02      0.00
   12    2   11      4.48      0.00
   14    2   11      5.78      0.00
   16    2   11      3.24      0.00
   18    2   11     -0.73      0.00
   20    2   11     -2.14      0.00
   22    2   11     -2.00      0.00
  -29    3   11      5.82      0.00
  -27    3   11      3.21      0.00
  -25    3   11     -3.42      0.00
  -23    3   11     -6.23      0.00
  -21    3   11     -0.13      0.00
  -19    3   11      3.29      0.00
  -17    3   11     -1.30      0.00
  -15    3   11     -0.85      0.00
  -13    3   11      3.55      0.00
  -11    3   11     -4.15      0.00
   -9    3   11    -16.65      0.00
   -7    3   11     -6.72      0.00
   -5    3   11     16.08      0.00
   -3    3   11     13.21      0.00
   -1    3   11     -2.88      0.00
    1    3   11      2.07      0.00
    3    3   11      9.28      0.00
    5    3   11      1.57      0.00
    7    3   11     -2.30      0.00
    9    3   11     -0.88      0.00
   11    3   11     -3.40      0.00
   13    3   11     -5.38      0.00
   15    3   11     -7.35      0.00
   17    3   11    -11.22      0.00
   19    3   11    -11.70      0.00
   21    3   11     -8.40      0.00
   23    3   11     -3.28      0.00
  -30    4   11      9.25      0.00
  -28    4   11     13.91      0.00
  -26    4   11      9.63      0.00
  -24    4   11      4.37      0.00
  -22    4   11      1.76      0.00
  -20    4   11     -0.04      0.00
  -18    4   11      1.04      0.00
  -16    4   11      1.91      0.00
  -14    4   11     -1.91      0.00
  -12    4   11     -0.21      0.00
  -10    4   11     12.62      0.00
   -8    4   11     15.32      0.00
   -6    4   11     -0.52      0.00
   -4    4   11     -8.58      0.00
   -2    4   11     -0.37      0.00
    0    4   11      4.80      0.00
    2    4   11      2.81      0.00
    4    4   11      1.60      0.00
    6    4   11      1.84      0.00
    8    4   11      0.89      0.00
   10    4   11     -2.54      0.00
   12    4   11     -6.38      0.00
   14    4   11     -6.75      0.00
   16    4   11      0.37      0.00
   18    4   11     11.67      0.00
   20    4   11     12.74      0.00
   22    4   11      2.21      0.00
  -29    5   11    -15.33      0.00
  -27    5   11    -12.49      0.00
  -25    5   11     -3.96      0.00
  -23    5   11      1.74      0.00
  -21    5   11      0.65      0.00
  -19    5   11     -0.57      0.00
  -17    5   11      2.48      0.00
  -15    5   11      5.64      0.00
  -13    5   11      4.82      0.00
  -11    5   11      0.46      0.00
   -9    5   11     -1.23      0.00
   -7    5   11     -0.30      0.00
   -5    5   11     -1.08      0.00
   -3    5   11      1.95      0.00
   -1    5   11      2.67      0.00
    1    5   11     -7.47      0.00
    3    5   11    -10.08      0.00
    5    5   11     -0.62      0.00
    7    5   11      1.65      0.00
    9    5   11      0.02      0.00
   11    5   11      5.03      0.00
   13    5   11      9.08      0.00
   15    5   11      5.86      0.00
   17    5   11     -1.84      0.00
   19    5   11     -4.41      0.00
   21    5   11      5.12      0.00
  -30    6   11     -0.80      0.00
  -28    6   11     -1.83      0.00
  -26    6   11      2.02      0.00
  -24    6   11      2.94      0.00
  -22    6   11      2.62      0.00
  -20    6   11      4.69      0.00
  -18    6   11      4.76      0.00
  -16    6   11      0.65      0.00
  -14    6   11     -2.41      0.00
  -12    6   11      0.50      0.00
  -10    6   11      4.35      0.00
   -8    6   11      5.11      0.00
   -6    6   11      4.91      0.00
   -4    6   11      1.42      0.00
   -2    6   11     -1.25      0.00
    0    6   11      2.51      0.00
    2    6   11      2.34      0.00
    4    6   11     -4.25      0.00
    6    6   11     -4.31      0.00
    8    6   11      2.28      0.00
   10    6   11      4.46      0.00
   12    6   11      2.35      0.00
   14    6   11      4.63      0.00
   16    6   11      8.13      0.00
   18    6   11      2.65      0.00
   20    6   11     -7.87      0.00
   22    6   11    -12.96      0.00
  -29    7   11      3.45      0.00
  -27    7   11      3.53      0.00
  -25    7   11      2.08      0.00
  -23    7   11      2.49      0.00
  -21    7   11      1.40      0.00
  -19    7   11     -3.23      0.00
  -17    7   11     -4.65      0.00
  -15    7   11      2.04      0.00
  -13    7   11      7.03      0.00
  -11    7   11      0.44      0.00
   -9    7   11     -9.59      0.00
   -7    7   11     -6.81      0.00
   -5    7   11      5.29      0.00
   -3    7   11      5.66      0.00
   -1    7   11     -1.84      0.00
    1    7   11      3.06      0.00
    3    7   11     11.02      0.00
    5    7   11      5.73      0.00
    7    7   11     -3.88      0.00
    9    7   11     -6.03      0.00
   11    7   11     -3.64      0.00
   13    7   11     -6.35      0.00
   15    7   11    -13.50      0.00
   17    7   11    -12.50      0.00
   19    7   11     -3.04      0.00
   21    7   11      1.83      0.00
  -28    8   11      4.72      0.00
  -26    8   11     -7.96      0.00
  -24    8   11    -13.50      0.00
  -22    8   11     -9.64      0.00
  -20    8   11     -0.70      0.00
  -18    8   11      5.78      0.00
  -16    8   11      2.82      0.00
  -14    8   11     -4.85      0.00
  -12    8   11     -7.44      0.00
  -10    8   11     -1.83      0.00
   -8    8   11      0.72      0.00
   -6    8   11     -7.56      0.00
   -4    8   11    -11.00      0.00
   -2    8   11     -3.98      0.00
    0    8   11     -2.17      0.00
    2    8   11     -5.89      0.00
    4    8   11     -3.57      0.00
    6    8   11      4.15      0.00
    8    8   11      6.53      0.00
   10    8   11     -0.95      0.00
   12    8   11     -7.14      0.00
   14    8   11     -3.42      0.00
   16    8   11      3.40      0.00
   18    8   11      4.73      0.00
   20    8   11      0.48      0.00
  -27    9   11      1.28      0.00
  -25    9   11     11.12      0.00
  -23    9   11      8.12      0.00
  -21    9   11     -0.61      0.00
  -19    9   11     -5.22      0.00
  -17    9   11     -2.76      0.00
  -15    9   11      0.42      0.00
  -13    9   11     -0.38      0.00
  -11    9   11     -0.27      0.00
   -9    9   11      2.58      0.00
   -7    9   11      1.36      0.00
   -5    9   11     -3.86      0.00
   -3    9   11     -3.01      0.00
   -1    9   11      2.49      0.00
    1    9   11      2.56      0.00
    3    9   11     -0.62      0.00
    5    9   11     -2.65      0.00
    7    9   11     -4.26      0.00
    9    9   11     -1.60      0.00
   11    9   11      6.59      0.00
   13    9   11     11.71      0.00
   15    9   11      6.39      0.00
   17    9   11     -2.20      0.00
   19    9   11     -1.98      0.00
   21    9   11      2.89      0.00
  -28   10   11     -6.95      0.00
  -26   10   11     -7.20      0.00
  -24   10   11     -4.09      0.00
  -22   10   11      0.87      0.00
  -20   10   11      2.48      0.00
  -18   10   11     -1.10      0.00
  -16   10   11     -5.90      0.00
  -14   10   11     -6.32      0.00
  -12   10   11     -2.12      0.00
  -10   10   11     -1.86      0.00
   -8   10   11     -0.94      0.00
   -6   10   11      8.44      0.00
   -4   10   11      9.62      0.00
   -2   10   11     -2.44      0.00
    0   10   11     -7.29      0.00
    2   10   11      0.66      0.00
    4   10   11      9.53      0.00
    6   10   11     10.01      0.00
    8   10   11      4.06      0.00
   10   10   11     -0.85      0.00
   12   10   11     -4.06      0.00
   14   10   11     -3.50      0.00
   16   10   11     -0.26      0.00
   18   10   11     -4.06      0.00
   20   10   11    -10.32      0.00
  -27   11   11     13.16      0.00
  -25   11   11      5.24      0.00
  -23   11   11     -0.31      0.00
  -21   11   11     -3.26      0.00
  -19   11   11     -4.92      0.00
  -17   11   11     -3.85      0.00
  -15   11   11      0.31      0.00
  -13   11   11      3.69      0.00
  -11   11   11      2.76      0.00
   -9   11   11     -1.66      0.00
   -7   11   11     -5.94      0.00
   -5   11   11     -4.78      0.00
   -3   11   11      1.42      0.00
   -1   11   11      5.62      0.00
    1   11   11      0.65      0.00
    3   11   11    -13.92      0.00
    5   11   11    -22.94      0.00
    7   11   11    -14.29      0.00
    9   11   11     -1.32      0.00
   11   11   11     -0.91      0.00
   13   11   11     -9.45      0.00
   15   11   11    -11.73      0.00
   17   11   11     -3.21      0.00
   19   11   11      4.75      0.00
  -26   12   11     -6.89      0.00
  -24   12   11      2.82      0.00
  -22   12   11      9.77      0.00
  -20   12   11     10.53      0.00
  -18   12   11      7.08      0.00
  -16   12   11      5.19      0.00
  -14   12   11      4.67      0.00
  -12   12   11     -0.50      0.00
  -10   12   11     -2.33      0.00
   -8   12   11      1.45      0.00
   -6   12   11     -0.43      0.00
   -4   12   11     -3.58      0.00
   -2   12   11     -2.21      0.00
    0   12   11     -0.16      0.00
    2   12   11      5.32      0.00
    4   12   11     12.17      0.00
    6   12   11     10.59      0.00
    8   12   11     -0.99      0.00
   10   12   11     -9.35      0.00
   12   12   11     -2.12      0.00
   14   12   11      7.32      0.00
   16   12   11      6.03      0.00
   18   12   11      5.14      0.00
  -25   13   11      3.11      0.00
  -23   13   11     -9.33      0.00
  -21   13   11    -15.21      0.00
  -19   13   11     -5.43      0.00
  -17   13   11      2.84      0.00
  -15   13   11     -2.81      0.00
  -13   13   11     -6.80      0.00
  -11   13   11     -0.09      0.00
   -9   13   11      4.10      0.00
   -7   13   11      1.39      0.00
   -5   13   11      0.21      0.00
   -3   13   11      3.27      0.00
   -1   13   11      3.73      0.00
    1   13   11     -0.98      0.00
    3   13   11     -1.89      0.00
    5   13   11      0.96      0.00
    7   13   11      0.51      0.00
    9   13   11      1.29      0.00
   11   13   11      5.17      0.00
   13   13   11      6.72      0.00
   15   13   11      2.97      0.00
   17   13   11     -5.65      0.00
  -24   14   11     -8.74      0.00
  -22   14   11     -0.47      0.00
  -20   14   11     -1.01      0.00
  -18   14   11     -8.11      0.00
  -16   14   11     -5.95      0.00
  -14   14   11     -0.66      0.00
  -12   14   11     -2.11      0.00
  -10   14   11     -6.68      0.00
   -8   14   11     -3.87      0.00
   -6   14   11      5.00      0.00
   -4   14   11      3.27      0.00
   -2   14   11     -5.17      0.00
    0   14   11     -2.89      0.00
    2   14   11      1.43      0.00
    4   14   11     -3.51      0.00
    6   14   11     -4.69      0.00
    8   14   11      7.04      0.00
   10   14   11     13.48      0.00
   12   14   11      1.19      0.00
   14   14   11     -6.38      0.00
   16   14   11      5.31      0.00
  -23   15   11     17.01      0.00
  -21   15   11     14.83      0.00
  -19   15   11      8.84      0.00
  -17   15   11      3.12      0.00
  -15   15   11      3.88      0.00
  -13   15   11      8.77      0.00
  -11   15   11      9.57      0.00
   -9   15   11      3.66      0.00
   -7   15   11     -5.14      0.00
   -5   15   11     -8.23      0.00
   -3   15   11     -4.84      0.00
   -1   15   11     -1.85      0.00
    1   15   11      1.15      0.00
    3   15   11      6.41      0.00
    5   15   11      8.90      0.00
    7   15   11     -1.14      0.00
    9   15   11    -17.42      0.00
   11   15   11    -15.22      0.00
   13   15   11     -0.05      0.00
   15   15   11      0.49      0.00
  -22   16   11    -11.18      0.00
  -20   16   11     -6.54      0.00
  -18   16   11      2.75      0.00
  -16   16   11     -0.92      0.00
  -14   16   11    -10.27      0.00
  -12   16   11    -11.45      0.00
  -10   16   11     -4.05      0.00
   -8   16   11      3.14      0.00
   -6   16   11      3.13      0.00
   -4   16   11      2.30      0.00
   -2   16   11      3.57      0.00
    0   16   11     -1.58      0.00
    2   16   11    -11.49      0.00
    4   16   11    -14.23      0.00
    6   16   11     -4.39      0.00
    8   16   11      8.63      0.00
   10   16   11     11.77      0.00
   12   16   11      7.54      0.00
   14   16   11      3.89      0.00
  -21   17   11      4.04      0.00
  -19   17   11     -4.01      0.00
  -17   17   11     -4.03      0.00
  -15   17   11      5.25      0.00
  -13   17   11      7.50      0.00
  -11   17   11      0.49      0.00
   -9   17   11     -5.12      0.00
   -7   17   11     -4.85      0.00
   -5   17   11     -2.72      0.00
   -3   17   11     -1.75      0.00
   -1   17   11     -1.86      0.00
    1   17   11     -0.47      0.00
    3   17   11      3.03      0.00
    5   17   11      0.78      0.00
    7   17   11     -3.86      0.00
    9   17   11      0.39      0.00
   11   17   11      3.53      0.00
   13   17   11      0.73      0.00
  -20   18   11    -14.88      0.00
  -18   18   11     -7.04      0.00
  -16   18   11     -1.71      0.00
  -14   18   11     -0.24      0.00
  -12   18   11      2.42      0.00
  -10   18   11      5.69      0.00
   -8   18   11      6.22      0.00
   -6   18   11      6.58      0.00
   -4   18   11      5.58      0.00
   -2   18   11      3.14      0.00
    0   18   11      2.80      0.00
    2   18   11      2.67      0.00
    4   18   11      1.82      0.00
    6   18   11     -0.86      0.00
    8   18   11     -6.14      0.00
   10   18   11     -6.77      0.00
   12   18   11     -2.68      0.00
  -17   19   11     -0.41      0.00
  -15   19   11    -13.86      0.00
  -13   19   11    -12.36      0.00
  -11   19   11     -3.53      0.00
   -9   19   11      0.30      0.00
   -7   19   11     -0.13      0.00
   -5   19   11     -2.73      0.00
   -3   19   11     -6.57      0.00
   -1   19   11     -4.07      0.00
    1   19   11      3.46      0.00
    3   19   11      4.06      0.00
    5   19   11      3.43      0.00
    7   19   11      8.31      0.00
    9   19   11      6.47      0.00
  -16   20   11     11.07      0.00
  -14   20   11     14.43      0.00
  -12   20   11      1.63      0.00
  -10   20   11    -10.16      0.00
   -8   20   11    -11.55      0.00
   -6   20   11     -7.88      0.00
   -4   20   11      0.40      0.00
   -2   20   11      5.90      0.00
    0   20   11      1.45      0.00
    2   20   11     -0.88      0.00
    4   20   11      2.57      0.00
    6   20   11      0.92      0.00
    8   20   11     -4.28      0.00
  -13   21   11      0.36      0.00
  -11   21   11      4.92      0.00
   -9   21   11      6.14      0.00
   -7   21   11      3.04      0.00
   -5   21   11     -2.20      0.00
   -3   21   11     -4.62      0.00
   -1   21   11     -3.41      0.00
    1   21   11     -3.36      0.00
    3   21   11     -4.24      0.00
    5   21   11     -4.49      0.00
   -8   22   11      7.81      0.00
   -6   22   11      9.47      0.00
   -4   22   11      9.21      0.00
   -2   22   11      5.51      0.00
    0   22   11      1.00      0.00
  -30    0   12      3.27      0.00
  -28    0   12      1.47      0.00
  -26    0   12      1.31      0.00
  -24    0   12      4.57      0.00
  -22    0   12      3.65      0.00
  -20    0   12      1.70      0.00
  -18    0   12     -0.28      0.00
  -16    0   12     -4.18      0.00
  -14    0   12     -0.10      0.00
  -12    0   12      9.08      0.00
  -10    0   12      4.88      0.00
   -8    0   12     -5.19      0.00
   -6    0   12      1.47      0.00
   -4    0   12     10.95      0.00
   -2    0   12     -0.36      0.00
    0    0   12    -11.78      0.00
    2    0   12     -2.65      0.00
    4    0   12      7.09      0.00
    6    0   12      5.83      0.00
    8    0   12      3.39      0.00
   10    0   12     -1.99      0.00
   12    0   12    -10.51      0.00
   14    0   12    -10.03      0.00
   16    0   12     -0.01      0.00
   18    0   12      9.43      0.00
   20    0   12     13.72      0.00
   22    0   12     11.83      0.00
  -29    1   12      0.11      0.00
  -27    1   12      1.85      0.00
  -25    1   12     -3.66      0.00
  -23    1   12     -9.72      0.00
  -21    1   12     -8.69      0.00
  -19    1   12     -4.06      0.00
  -17    1   12     -0.72      0.00
  -15    1   12     -0.39      0.00
  -13    1   12     -2.96      0.00
  -11    1   12     -3.21      0.00
   -9    1   12      0.60      0.00
   -7    1   12      1.09      0.00
   -5    1   12     -2.01      0.00
   -3    1   12     -0.80      0.00
   -1    1   12      3.30      0.00
    1    1   12      3.97      0.00
    3    1   12      1.37      0.00
    5    1   12     -1.34      0.00
    7    1   12     -1.68      0.00
    9    1   12      0.94      0.00
   11    1   12      4.76      0.00
   13    1   12      5.44      0.00
   15    1   12     -1.56      0.00
   17    1   12    -11.17      0.00
   19    1   12    -12.88      0.00
   21    1   12     -7.89      0.00
  -30    2   12     -3.21      0.00
  -28    2   12     -7.32      0.00
  -26    2   12     -4.22      0.00
  -24    2   12      5.45      0.00
  -22    2   12     12.99      0.00
  -20    2   12      9.02      0.00
  -18    2   12      2.05      0.00
  -16    2   12      2.00      0.00
  -14    2   12      0.05      0.00
  -12    2   12     -6.91      0.00
  -10    2   12     -6.36      0.00
   -8    2   12      0.77      0.00
   -6    2   12     -1.42      0.00
   -4    2   12     -8.03      0.00
   -2    2   12     -2.56      0.00
    0    2   12      2.52      0.00
    2    2   12     -5.83      0.00
    4    2   12    -10.74      0.00
    6    2   12     -6.55      0.00
    8    2   12     -5.24      0.00
   10    2   12     -4.34      0.00
   12    2   12      0.35      0.00
   14    2   12      5.63      0.00
   16    2   12     11.92      0.00
   18    2   12     13.29      0.00
   20    2   12      4.12      0.00
   22    2   12     -2.98      0.00
  -29    3   12      6.43      0.00
  -27    3   12      7.56      0.00
  -25    3   12      6.84      0.00
  -23    3   12      1.19      0.00
  -21    3   12     -3.88      0.00
  -19    3   12     -1.97      0.00
  -17    3   12     -0.29      0.00
  -15    3   12     -2.92      0.00
  -13    3   12     -1.71      0.00
  -11    3   12      2.40      0.00
   -9    3   12      1.52      0.00
   -7    3   12      0.14      0.00
   -5    3   12      1.46      0.00
   -3    3   12      1.06      0.00
   -1    3   12      2.05      0.00
    1    3   12      5.21      0.00
    3    3   12      5.26      0.00
    5    3   12      4.24      0.00
    7    3   12      4.20      0.00
    9    3   12      2.95      0.00
   11    3   12      0.61      0.00
   13    3   12     -1.70      0.00
   15    3   12     -2.30      0.00
   17    3   12     -0.66      0.00
   19    3   12      3.23      0.00
   21    3   12      9.00      0.00
  -30    4   12     -2.29      0.00
  -28    4   12     -6.50      0.00
  -26    4   12    -10.33      0.00
  -24    4   12    -11.15      0.00
  -22    4   12     -8.63      0.00
  -20    4   12     -5.40      0.00
  -18    4   12     -5.68      0.00
  -16    4   12     -4.82      0.00
  -14    4   12      2.86      0.00
  -12    4   12      8.58      0.00
  -10    4   12      2.19      0.00
   -8    4   12     -8.32      0.00
   -6    4   12     -5.53      0.00
   -4    4   12      4.50      0.00
   -2    4   12     -0.22      0.00
    0    4   12     -9.06      0.00
    2    4   12     -1.73      0.00
    4    4   12      6.32      0.00
    6    4   12      3.08      0.00
    8    4   12      0.46      0.00
   10    4   12      1.05      0.00
   12    4   12      2.11      0.00
   14    4   12      4.49      0.00
   16    4   12      2.97      0.00
   18    4   12     -2.77      0.00
   20    4   12     -6.63      0.00
   22    4   12     -7.97      0.00
  -29    5   12     10.02      0.00
  -27    5   12     13.22      0.00
  -25    5   12      5.81      0.00
  -23    5   12     -1.04      0.00
  -21    5   12     -1.92      0.00
  -19    5   12      1.10      0.00
  -17    5   12      4.80      0.00
  -15    5   12      3.51      0.00
  -13    5   12     -3.72      0.00
  -11    5   12     -5.71      0.00
   -9    5   12      4.15      0.00
   -7    5   12      9.65      0.00
   -5    5   12      0.28      0.00
   -3    5   12     -8.09      0.00
   -1    5   12     -6.63      0.00
    1    5   12     -3.67      0.00
    3    5   12     -2.77      0.00
    5    5   12     -1.95      0.00
    7    5   12      0.67      0.00
    9    5   12      3.71      0.00
   11    5   12      1.63      0.00
   13    5   12     -6.81      0.00
   15    5   12    -13.37      0.00
   17    5   12     -7.92      0.00
   19    5   12      3.81      0.00
   21    5   12      5.64      0.00
  -28    6   12     -8.04      0.00
  -26    6   12      0.55      0.00
  -24    6   12     11.11      0.00
  -22    6   12     13.00      0.00
  -20    6   12      6.77      0.00
  -18    6   12      1.12      0.00
  -16    6   12     -0.69      0.00
  -14    6   12     -0.96      0.00
  -12    6   12     -0.20      0.00
  -10    6   12      0.78      0.00
   -8    6   12      0.86      0.00
   -6    6   12      0.20      0.00
   -4    6   12      3.43      0.00
   -2    6   12     12.93      0.00
    0    6   12     13.98      0.00
    2    6   12      0.29      0.00
    4    6   12     -7.09      0.00
    6    6   12     -2.76      0.00
    8    6   12     -3.61      0.00
   10    6   12     -7.60      0.00
   12    6   12     -1.32      0.00
   14    6   12     10.41      0.00
   16    6   12     11.82      0.00
   18    6   12      1.40      0.00
   20    6   12     -3.02      0.00
  -29    7   12     -1.78      0.00
  -27    7   12     -9.12      0.00
  -25    7   12     -9.68      0.00
  -23    7   12     -6.47      0.00
  -21    7   12     -0.53      0.00
  -19    7   12      3.30      0.00
  -17    7   12      1.98      0.00
  -15    7   12     -0.31      0.00
  -13    7   12      0.42      0.00
  -11    7   12      2.69      0.00
   -9    7   12      2.08      0.00
   -7    7   12      3.03      0.00
   -5    7   12      7.53      0.00
   -3    7   12      5.37      0.00
   -1    7   12      0.99      0.00
    1    7   12      5.83      0.00
    3    7   12     10.04      0.00
    5    7   12      4.57      0.00
    7    7   12     -0.41      0.00
    9    7   12      2.74      0.00
   11    7   12      5.31      0.00
   13    7   12      1.20      0.00
   15    7   12     -0.05      0.00
   17    7   12      3.88      0.00
   19    7   12      1.76      0.00
   21    7   12     -6.30      0.00
  -28    8   12      5.01      0.00
  -26    8   12      7.23      0.00
  -24    8   12      4.15      0.00
  -22    8   12      0.29      0.00
  -20    8   12     -1.57      0.00
  -18    8   12      0.86      0.00
  -16    8   12      6.18      0.00
  -14    8   12     10.55      0.00
  -12    8   12     10.22      0.00
  -10    8   12      4.80      0.00
   -8    8   12     -1.24      0.00
   -6    8   12     -3.29      0.00
   -4    8   12     -2.85      0.00
   -2    8   12     -5.16      0.00
    0    8   12     -7.46      0.00
    2    8   12     -3.95      0.00
    4    8   12      0.94      0.00
    6    8   12      1.41      0.00
    8    8   12      0.02      0.00
   10    8   12      1.54      0.00
   12    8   12      3.82      0.00
   14    8   12     -0.37      0.00
   16    8   12     -6.77      0.00
   18    8   12     -3.03      0.00
   20    8   12      6.83      0.00
  -27    9   12     10.23      0.00
  -25    9   12      0.05      0.00
  -23    9   12     -1.75      0.00
  -21    9   12      2.63      0.00
  -19    9   12      4.74      0.00
  -17    9   12      0.95      0.00
  -15    9   12     -3.31      0.00
  -13    9   12     -3.69      0.00
  -11    9   12     -2.66      0.00
   -9    9   12     -0.18      0.00
   -7    9   12     -0.38      0.00
   -5    9   12     -4.83      0.00
   -3    9   12     -3.41      0.00
   -1    9   12      1.57      0.00
    1    9   12      0.21      0.00
    3    9   12     -3.21      0.00
    5    9   12     -1.44      0.00
    7    9   12      4.74      0.00
    9    9   12      5.65      0.00
   11    9   12     -2.76      0.00
   13    9   12     -7.30      0.00
   15    9   12     -2.04      0.00
   17    9   12      2.48      0.00
   19    9   12     -0.05      0.00
  -28   10   12    -25.39      0.00
  -26   10   12    -11.91      0.00
  -24   10   12      0.59      0.00
  -22   10   12     -1.74      0.00
  -20   10   12     -6.96      0.00
  -18   10   12     -4.43      0.00
  -16   10   12      0.46      0.00
  -14   10   12     -2.03      0.00
  -12   10   12     -7.86      0.00
  -10   10   12     -6.24      0.00
   -8   10   12      0.69      0.00
   -6   10   12      2.85      0.00
   -4   10   12     -0.38      0.00
   -2   10   12     -1.35      0.00
    0   10   12      0.65      0.00
    2   10   12      2.03      0.00
    4   10   12      3.99      0.00
    6   10   12      3.50      0.00
    8   10   12     -3.04      0.00
   10   10   12     -6.91      0.00
   12   10   12     -0.53      0.00
   14   10   12      6.36      0.00
   16   10   12      1.23      0.00
   18   10   12     -8.04      0.00
  -27   11   12      9.24      0.00
  -25   11   12      1.44      0.00
  -23   11   12     -4.54      0.00
  -21   11   12     -4.09      0.00
  -19   11   12     -3.62      0.00
  -17   11   12     -3.36      0.00
  -15   11   12     -0.59      0.00
  -13   11   12      5.00      0.00
  -11   11   12      8.39      0.00
   -9   11   12      2.37      0.00
   -7   11   12     -1.13      0.00
   -5   11   12      6.04      0.00
   -3   11   12      6.54      0.00
   -1   11   12     -1.40      0.00
    1   11   12     -3.40      0.00
    3   11   12     -2.54      0.00
    5   11   12     -6.14      0.00
    7   11   12     -8.00      0.00
    9   11   12      0.43      0.00
   11   11   12      8.95      0.00
   13   11   12      3.81      0.00
   15   11   12     -1.00      0.00
   17   11   12      4.68      0.00
   19   11   12      5.65      0.00
  -26   12   12      0.40      0.00
  -24   12   12      1.75      0.00
  -22   12   12     10.73      0.00
  -20   12   12     14.95      0.00
  -18   12   12      9.43      0.00
  -16   12   12      1.94      0.00
  -14   12   12     -1.02      0.00
  -12   12   12     -1.44      0.00
  -10   12   12     -1.34      0.00
   -8   12   12     -2.63      0.00
   -6   12   12     -6.55      0.00
   -4   12   12     -6.34      0.00
   -2   12   12     -0.52      0.00
    0   12   12      2.71      0.00
    2   12   12      1.77      0.00
    4   12   12      3.40      0.00
    6   12   12     10.55      0.00
    8   12   12     13.24      0.00
   10   12   12      3.43      0.00
   12   12   12     -8.08      0.00
   14   12   12    -11.38      0.00
   16   12   12     -9.44      0.00
   18   12   12     -5.95      0.00
  -25   13   12      0.01      0.00
  -23   13   12      1.40      0.00
  -21   13   12     -3.97      0.00
  -19   13   12     -4.33      0.00
  -17   13   12     -2.92      0.00
  -15   13   12     -3.02      0.00
  -13   13   12     -2.84      0.00
  -11   13   12     -3.45      0.00
   -9   13   12      0.43      0.00
   -7   13   12      4.86      0.00
   -5   13   12      0.30      0.00
   -3   13   12     -3.22      0.00
   -1   13   12      2.17      0.00
    1   13   12      8.26      0.00
    3   13   12      7.36      0.00
    5   13   12     -1.08      0.00
    7   13   12     -9.58      0.00
    9   13   12    -11.08      0.00
   11   13   12     -3.21      0.00
   13   13   12      8.27      0.00
   15   13   12      7.62      0.00
   17   13   12     -1.65      0.00
  -24   14   12     -3.34      0.00
  -22   14   12     -9.80      0.00
  -20   14   12    -11.12      0.00
  -18   14   12     -4.35      0.00
  -16   14   12      3.19      0.00
  -14   14   12      3.31      0.00
  -12   14   12      1.33      0.00
  -10   14   12      0.17      0.00
   -8   14   12     -1.51      0.00
   -6   14   12      2.33      0.00
   -4   14   12      9.88      0.00
   -2   14   12      9.07      0.00
    0   14   12     -3.08      0.00
    2   14   12    -13.96      0.00
    4   14   12    -12.23      0.00
    6   14   12     -5.67      0.00
    8   14   12     -3.38      0.00
   10   14   12     -4.43      0.00
   12   14   12     -8.36      0.00
   14   14   12     -6.82      0.00
   16   14   12      2.46      0.00
  -23   15   12     -1.40      0.00
  -21   15   12      1.72      0.00
  -19   15   12     -3.43      0.00
  -17   15   12     -9.11      0.00
  -15   15   12     -6.63      0.00
  -13   15   12     -3.89      0.00
  -11   15   12     -2.39      0.00
   -9   15   12     -0.35      0.00
   -7   15   12     -0.69      0.00
   -5   15   12     -5.01      0.00
   -3   15   12    -10.86      0.00
   -1   15   12     -8.16      0.00
    1   15   12      3.65      0.00
    3   15   12     10.26      0.00
    5   15   12      8.02      0.00
    7   15   12      5.26      0.00
    9   15   12      6.99      0.00
   11   15   12      8.58      0.00
   13   15   12      2.84      0.00
   15   15   12     -3.65      0.00
  -22   16   12     17.78      0.00
  -20   16   12     24.83      0.00
  -18   16   12     26.47      0.00
  -16   16   12     17.78      0.00
  -14   16   12     10.89      0.00
  -12   16   12      9.73      0.00
  -10   16   12      5.03      0.00
   -8   16   12     -0.95      0.00
   -6   16   12      1.05      0.00
   -4   16   12      6.80      0.00
   -2   16   12      4.71      0.00
    0   16   12     -0.42      0.00
    2   16   12      1.26      0.00
    4   16   12      3.78      0.00
    6   16   12      2.11      0.00
    8   16   12     -2.40      0.00
   10   16   12     -6.27      0.00
   12   16   12     -1.97      0.00
   14   16   12      3.08      0.00
  -21   17   12    -12.77      0.00
  -19   17   12    -15.95      0.00
  -17   17   12    -10.16      0.00
  -15   17   12     -7.46      0.00
  -13   17   12     -9.55      0.00
  -11   17   12     -7.68      0.00
   -9   17   12      0.23      0.00
   -7   17   12      1.96      0.00
   -5   17   12     -5.47      0.00
   -3   17   12     -5.17      0.00
   -1   17   12      1.08      0.00
    1   17   12     -4.43      0.00
    3   17   12    -14.94      0.00
    5   17   12    -12.23      0.00
    7   17   12      1.75      0.00
    9   17   12      9.13      0.00
   11   17   12      3.44      0.00
  -18   18   12    -12.25      0.00
  -16   18   12    -10.72      0.00
  -14   18   12      0.48      0.00
  -12   18   12      6.27      0.00
  -10   18   12      2.34      0.00
   -8   18   12     -1.59      0.00
   -6   18   12     -1.63      0.00
   -4   18   12     -2.21      0.00
   -2   18   12     -2.39      0.00
    0   18   12      1.50      0.00
    2   18   12      8.31      0.00
    4   18   12     11.35      0.00
    6   18   12      2.49      0.00
    8   18   12     -7.36      0.00
   10   18   12     -2.58      0.00
  -17   19   12     11.24      0.00
  -15   19   12      6.23      0.00
  -13   19   12     -3.12      0.00
  -11   19   12     -6.34      0.00
   -9   19   12     -6.54      0.00
   -7   19   12     -4.29      0.00
   -5   19   12      3.60      0.00
   -3   19   12      6.26      0.00
   -1   19   12      0.27      0.00
    1   19   12     -3.72      0.00
    3   19   12     -3.88      0.00
    5   19   12     -3.64      0.00
    7   19   12     -4.21      0.00
    9   19   12     -5.45      0.00
  -14   20   12     -7.49      0.00
  -12   20   12     -2.45      0.00
  -10   20   12      7.69      0.00
   -8   20   12     12.87      0.00
   -6   20   12      6.91      0.00
   -4   20   12     -2.87      0.00
   -2   20   12     -5.39      0.00
    0   20   12     -1.39      0.00
    2   20   12     -1.03      0.00
    4   20   12     -5.02      0.00
    6   20   12     -0.32      0.00
  -11   21   12     -2.14      0.00
   -9   21   12    -15.62      0.00
   -7   21   12    -14.26      0.00
   -5   21   12     -3.23      0.00
   -3   21   12      3.73      0.00
   -1   21   12      0.68      0.00
    1   21   12     -1.63      0.00
    3   21   12      6.81      0.00
  -29    1   13     -2.60      0.00
  -27    1   13     -1.59      0.00
  -25    1   13     -0.27      0.00
  -23    1   13     -1.28      0.00
  -21    1   13     -3.36      0.00
  -19    1   13      1.05      0.00
  -17    1   13      3.92      0.00
  -15    1   13     -1.88      0.00
  -13    1   13     -1.33      0.00
  -11    1   13      7.43      0.00
   -9    1   13      6.26      0.00
   -7    1   13     -0.87      0.00
   -5    1   13      3.66      0.00
   -3    1   13     10.31      0.00
   -1    1   13      2.23      0.00
    1    1   13     -7.96      0.00
    3    1   13     -5.51      0.00
    5    1   13      0.00      0.00
    7    1   13      2.55      0.00
    9    1   13      6.53      0.00
   11    1   13      7.96      0.00
   13    1   13      5.85      0.00
   15    1   13      4.73      0.00
   17    1   13      1.64      0.00
   19    1   13      0.84      0.00
   21    1   13      8.50      0.00
  -30    2   13      5.89      0.00
  -28    2   13      8.87      0.00
  -26    2   13      8.34      0.00
  -24    2   13      4.00      0.00
  -22    2   13      2.55      0.00
  -20    2   13      2.15      0.00
  -18    2   13     -1.29      0.00
  -16    2   13     -1.92      0.00
  -14    2   13     -0.40      0.00
  -12    2   13     -4.78      0.00
  -10    2   13     -8.33      0.00
   -8    2   13     -2.77      0.00
   -6    2   13      2.71      0.00
   -4    2   13      2.16      0.00
   -2    2   13      1.38      0.00
    0    2   13      2.76      0.00
    2    2   13      4.87      0.00
    4    2   13      4.66      0.00
    6    2   13      0.38      0.00
    8    2   13     -2.40      0.00
   10    2   13     -0.61      0.00
   12    2   13      0.29      0.00
   14    2   13     -2.85      0.00
   16    2   13     -5.41      0.00
   18    2   13     -4.56      0.00
   20    2   13     -7.27      0.00
  -29    3   13    -12.42      0.00
  -27    3   13    -15.25      0.00
  -25    3   13    -11.68      0.00
  -23    3   13     -4.92      0.00
  -21    3   13     -0.45      0.00
  -19    3   13     -0.79      0.00
  -17    3   13     -0.08      0.00
  -15    3   13      3.87      0.00
  -13    3   13      4.03      0.00
  -11    3   13      0.07      0.00
   -9    3   13     -1.35      0.00
   -7    3   13     -2.32      0.00
   -5    3   13     -8.96      0.00
   -3    3   13    -12.25      0.00
   -1    3   13     -2.29      0.00
    1    3   13      5.30      0.00
    3    3   13     -0.91      0.00
    5    3   13     -4.08      0.00
    7    3   13     -0.04      0.00
    9    3   13     -3.25      0.00
   11    3   13     -8.33      0.00
   13    3   13     -4.06      0.00
   15    3   13      1.50      0.00
   17    3   13      0.61      0.00
   19    3   13     -1.95      0.00
   21    3   13      0.12      0.00
  -30    4   13      5.92      0.00
  -28    4   13      5.56      0.00
  -26    4   13      2.88      0.00
  -24    4   13      2.21      0.00
  -22    4   13      0.40      0.00
  -20    4   13     -1.18      0.00
  -18    4   13      0.38      0.00
  -16    4   13     -0.72      0.00
  -14    4   13     -5.82      0.00
  -12    4   13     -5.85      0.00
  -10    4   13     -1.67      0.00
   -8    4   13     -1.92      0.00
   -6    4   13     -2.85      0.00
   -4    4   13     -1.53      0.00
   -2    4   13     -3.94      0.00
    0    4   13     -7.01      0.00
    2    4   13     -4.70      0.00
    4    4   13     -1.33      0.00
    6    4   13     -1.87      0.00
    8    4   13     -2.23      0.00
   10    4   13      1.73      0.00
   12    4   13      3.33      0.00
   14    4   13      1.06      0.00
   16    4   13      5.50      0.00
   18    4   13     13.29      0.00
   20    4   13     12.20      0.00
  -29    5   13      1.50      0.00
  -27    5   13      3.95      0.00
  -25    5   13      4.87      0.00
  -23    5   13      1.32      0.00
  -21    5   13     -1.30      0.00
  -19    5   13     -1.62      0.00
  -17    5   13     -3.94      0.00
  -15    5   13     -4.11      0.00
  -13    5   13      2.34      0.00
  -11    5   13      6.95      0.00
   -9    5   13      3.58      0.00
   -7    5   13     -0.04      0.00
   -5    5   13      3.85      0.00
   -3    5   13      7.76      0.00
   -1    5   13      1.35      0.00
    1    5   13     -6.11      0.00
    3    5   13     -3.56      0.00
    5    5   13      1.02      0.00
    7    5   13      1.44      0.00
    9    5   13      1.41      0.00
   11    5   13      2.24      0.00
   13    5   13      3.60      0.00
   15    5   13      0.92      0.00
   17    5   13     -7.99      0.00
   19    5   13    -11.07      0.00
   21    5   13     -4.29      0.00
  -28    6   13      7.19      0.00
  -26    6   13      5.93      0.00
  -24    6   13     -0.90      0.00
  -22    6   13     -2.48      0.00
  -20    6   13     -2.88      0.00
  -18    6   13     -4.03      0.00
  -16    6   13     -2.37      0.00
  -14    6   13     -0.82      0.00
  -12    6   13     -4.26      0.00
  -10    6   13     -6.66      0.00
   -8    6   13     -1.07      0.00
   -6    6   13      2.57      0.00
   -4    6   13     -1.59      0.00
   -2    6   13     -2.15      0.00
    0    6   13      2.68      0.00
    2    6   13      3.50      0.00
    4    6   13     -0.80      0.00
    6    6   13     -3.82      0.00
    8    6   13     -1.97      0.00
   10    6   13     -0.24      0.00
   12    6   13     -3.29      0.00
   14    6   13     -6.49      0.00
   16    6   13     -3.28      0.00
   18    6   13      5.24      0.00
   20    6   13      8.66      0.00
  -29    7   13    -11.84      0.00
  -27    7   13    -17.05      0.00
  -25    7   13     -8.30      0.00
  -23    7   13     -0.27      0.00
  -21    7   13     -0.65      0.00
  -19    7   13     -1.59      0.00
  -17    7   13      0.95      0.00
  -15    7   13      1.36      0.00
  -13    7   13     -2.02      0.00
  -11    7   13     -2.69      0.00
   -9    7   13     -0.17      0.00
   -7    7   13     -0.53      0.00
   -5    7   13     -3.02      0.00
   -3    7   13     -1.73      0.00
   -1    7   13      2.42      0.00
    1    7   13      2.55      0.00
    3    7   13      0.52      0.00
    5    7   13      3.56      0.00
    7    7   13      6.13      0.00
    9    7   13      0.77      0.00
   11    7   13     -4.90      0.00
   13    7   13     -2.62      0.00
   15    7   13      1.73      0.00
   17    7   13     -2.14      0.00
   19    7   13    -11.15      0.00
  -28    8   13     10.81      0.00
  -26    8   13      4.70      0.00
  -24    8   13      0.41      0.00
  -22    8   13      0.15      0.00
  -20    8   13      3.96      0.00
  -18    8   13      4.83      0.00
  -16    8   13      1.88      0.00
  -14    8   13      0.29      0.00
  -12    8   13      1.45      0.00
  -10    8   13      1.39      0.00
   -8    8   13     -1.63      0.00
   -6    8   13     -0.10      0.00
   -4    8   13      4.35      0.00
   -2    8   13      2.02      0.00
    0    8   13     -0.63      0.00
    2    8   13      1.55      0.00
    4    8   13      0.27      0.00
    6    8   13     -4.22      0.00
    8    8   13     -3.56      0.00
   10    8   13      3.73      0.00
   12    8   13     10.58      0.00
   14    8   13     12.66      0.00
   16    8   13     14.85      0.00
   18    8   13     17.76      0.00
  -27    9   13      8.87      0.00
  -25    9   13      8.30      0.00
  -23    9   13      5.84      0.00
  -21    9   13      5.34      0.00
  -19    9   13      2.38      0.00
  -17    9   13     -0.82      0.00
  -15    9   13     -0.72      0.00
  -13    9   13      2.71      0.00
  -11    9   13      6.55      0.00
   -9    9   13      7.01      0.00
   -7    9   13      3.37      0.00
   -5    9   13     -0.96      0.00
   -3    9   13     -2.44      0.00
   -1    9   13     -2.60      0.00
    1    9   13     -2.63      0.00
    3    9   13     -0.82      0.00
    5    9   13      0.00      0.00
    7    9   13     -2.50      0.00
    9    9   13     -2.99      0.00
   11    9   13     -0.08      0.00
   13    9   13     -2.30      0.00
   15    9   13    -10.48      0.00
   17    9   13    -12.28      0.00
   19    9   13     -5.14      0.00
  -26   10   13    -13.25      0.00
  -24   10   13    -11.19      0.00
  -22   10   13     -6.84      0.00
  -20   10   13     -1.83      0.00
  -18   10   13      4.49      0.00
  -16   10   13      7.76      0.00
  -14   10   13      7.84      0.00
  -12   10   13      4.37      0.00
  -10   10   13     -0.49      0.00
   -8   10   13      1.80      0.00
   -6   10   13      5.66      0.00
   -4   10   13      3.98      0.00
   -2   10   13      3.37      0.00
    0   10   13      2.32      0.00
    2   10   13     -3.08      0.00
    4   10   13     -5.36      0.00
    6   10   13      0.36      0.00
    8   10   13      6.14      0.00
   10   10   13      0.87      0.00
   12   10   13     -6.98      0.00
   14   10   13     -3.74      0.00
   16   10   13      0.13      0.00
   18   10   13     -3.22      0.00
  -25   11   13     15.27      0.00
  -23   11   13     12.20      0.00
  -21   11   13     -1.10      0.00
  -19   11   13    -10.18      0.00
  -17   11   13    -10.47      0.00
  -15   11   13     -8.72      0.00
  -13   11   13     -9.02      0.00
  -11   11   13     -7.67      0.00
   -9   11   13     -4.74      0.00
   -7   11   13     -3.80      0.00
   -5   11   13     -3.47      0.00
   -3   11   13     -1.90      0.00
   -1   11   13      2.00      0.00
    1   11   13      8.19      0.00
    3   11   13     12.02      0.00
    5   11   13      9.24      0.00
    7   11   13      2.07      0.00
    9   11   13     -2.14      0.00
   11   11   13     -0.27      0.00
   13   11   13      4.80      0.00
   15   11   13     10.91      0.00
   17   11   13     12.90      0.00
  -26   12   13     -9.44      0.00
  -24   12   13    -12.43      0.00
  -22   12   13     -1.89      0.00
  -20   12   13      9.99      0.00
  -18   12   13     10.86      0.00
  -16   12   13      9.48      0.00
  -14   12   13      9.37      0.00
  -12   12   13      7.91      0.00
  -10   12   13      5.45      0.00
   -8   12   13      0.46      0.00
   -6   12   13     -0.30      0.00
   -4   12   13      3.90      0.00
   -2   12   13      0.38      0.00
    0   12   13     -8.51      0.00
    2   12   13    -11.02      0.00
    4   12   13     -6.17      0.00
    6   12   13     -0.49      0.00
    8   12   13      2.39      0.00
   10   12   13      5.98      0.00
   12   12   13      4.66      0.00
   14   12   13     -7.98      0.00
   16   12   13    -15.79      0.00
  -25   13   13      5.61      0.00
  -23   13   13     -0.25      0.00
  -21   13   13     -4.61      0.00
  -19   13   13     -3.40      0.00
  -17   13   13     -2.93      0.00
  -15   13   13     -4.67      0.00
  -13   13   13     -2.59      0.00
  -11   13   13      1.62      0.00
   -9   13   13      3.61      0.00
   -7   13   13      1.60      0.00
   -5   13   13     -3.43      0.00
   -3   13   13     -4.35      0.00
   -1   13   13      0.73      0.00
    1   13   13      4.27      0.00
    3   13   13      1.13      0.00
    5   13   13     -4.03      0.00
    7   13   13     -3.52      0.00
    9   13   13     -1.12      0.00
   11   13   13      0.05      0.00
   13   13   13      6.26      0.00
   15   13   13     11.21      0.00
  -24   14   13     -3.08      0.00
  -22   14   13      2.38      0.00
  -20   14   13      0.40      0.00
  -18   14   13     -1.26      0.00
  -16   14   13     -2.98      0.00
  -14   14   13     -4.95      0.00
  -12   14   13     -5.74      0.00
  -10   14   13     -6.12      0.00
   -8   14   13     -2.35      0.00
   -6   14   13      1.31      0.00
   -4   14   13     -0.48      0.00
   -2   14   13     -1.33      0.00
    0   14   13      0.73      0.00
    2   14   13      3.50      0.00
    4   14   13      6.07      0.00
    6   14   13      5.87      0.00
    8   14   13      3.95      0.00
   10   14   13      0.50      0.00
   12   14   13     -3.69      0.00
   14   14   13     -3.91      0.00
  -23   15   13     -3.64      0.00
  -21   15   13     -7.04      0.00
  -19   15   13     -7.22      0.00
  -17   15   13     -3.41      0.00
  -15   15   13      1.28      0.00
  -13   15   13      0.43      0.00
  -11   15   13     -2.30      0.00
   -9   15   13     -1.65      0.00
   -7   15   13      0.85      0.00
   -5   15   13      2.10      0.00
   -3   15   13      1.57      0.00
   -1   15   13      2.17      0.00
    1   15   13      2.00      0.00
    3   15   13     -0.45      0.00
    5   15   13     -0.35      0.00
    7   15   13      0.64      0.00
    9   15   13      0.55      0.00
   11   15   13      0.28      0.00
   13   15   13     -2.96      0.00
  -20   16   13     14.67      0.00
  -18   16   13      9.44      0.00
  -16   16   13      4.89      0.00
  -14   16   13      6.55      0.00
  -12   16   13      9.26      0.00
  -10   16   13      7.25      0.00
   -8   16   13     -1.13      0.00
   -6   16   13     -3.79      0.00
   -4   16   13      5.57      0.00
   -2   16   13     10.65      0.00
    0   16   13      5.74      0.00
    2   16   13      2.27      0.00
    4   16   13      2.13      0.00
    6   16   13     -1.47      0.00
    8   16   13     -8.95      0.00
   10   16   13    -11.34      0.00
   12   16   13     -6.09      0.00
  -19   17   13     -5.22      0.00
  -17   17   13      3.99      0.00
  -15   17   13      3.62      0.00
  -13   17   13     -2.18      0.00
  -11   17   13     -3.39      0.00
   -9   17   13      2.41      0.00
   -7   17   13      8.09      0.00
   -5   17   13      4.79      0.00
   -3   17   13     -5.00      0.00
   -1   17   13    -10.58      0.00
    1   17   13     -6.31      0.00
    3   17   13     -0.90      0.00
    5   17   13     -2.14      0.00
    7   17   13     -0.65      0.00
    9   17   13      5.04      0.00
   11   17   13      5.32      0.00
  -18   18   13     -1.38      0.00
  -16   18   13     -8.65      0.00
  -14   18   13     -7.48      0.00
  -12   18   13     -1.26      0.00
  -10   18   13      0.36      0.00
   -8   18   13     -1.69      0.00
   -6   18   13     -4.08      0.00
   -4   18   13     -3.46      0.00
   -2   18   13      4.35      0.00
    0   18   13      7.63      0.00
    2   18   13     -1.65      0.00
    4   18   13     -7.49      0.00
    6   18   13     -0.03      0.00
    8   18   13      9.06      0.00
  -15   19   13      7.86      0.00
  -13   19   13      7.70      0.00
  -11   19   13      1.61      0.00
   -9   19   13     -1.93      0.00
   -7   19   13     -0.16      0.00
   -5   19   13      1.54      0.00
   -3   19   13     -1.66      0.00
   -1   19   13     -4.62      0.00
    1   19   13      0.22      0.00
    3   19   13     10.50      0.00
    5   19   13     13.39      0.00
    7   19   13      1.41      0.00
  -12   20   13     -2.66      0.00
  -10   20   13      4.11      0.00
   -8   20   13      3.95      0.00
   -6   20   13     -2.03      0.00
   -4   20   13     -3.62      0.00
   -2   20   13     -1.76      0.00
    0   20   13     -0.47      0.00
    2   20   13     -3.24      0.00
    4   20   13     -9.50      0.00
   -9   21   13     -6.23      0.00
   -7   21   13     -0.28      0.00
   -5   21   13      7.46      0.00
   -3   21   13      7.84      0.00
   -1   21   13      1.49      0.00
  -30    0   14      3.26      0.00
  -28    0   14     -5.48      0.00
  -26    0   14     -6.47      0.00
  -24    0   14     -1.44      0.00
  -22    0   14      1.51      0.00
  -20    0   14     -0.37      0.00
  -18    0   14     -7.66      0.00
  -16    0   14     -7.64      0.00
  -14    0   14      6.03      0.00
  -12    0   14     13.08      0.00
  -10    0   14      4.77      0.00
   -8    0   14     -0.55      0.00
   -6    0   14      5.80      0.00
   -4    0   14     11.58      0.00
   -2    0   14      7.59      0.00
    0    0   14     -0.24      0.00
    2    0   14     -4.26      0.00
    4    0   14     -3.21      0.00
    6    0   14      2.60      0.00
    8    0   14      5.67      0.00
   10    0   14     -0.29      0.00
   12    0   14     -4.24      0.00
   14    0   14      0.36      0.00
   16    0   14      6.84      0.00
   18    0   14     13.70      0.00
   20    0   14     16.12      0.00
  -29    1   14      3.90      0.00
  -27    1   14      4.63      0.00
  -25    1   14      0.34      0.00
  -23    1   14     -0.92      0.00
  -21    1   14      1.20      0.00
  -19    1   14      2.51      0.00
  -17    1   14      2.28      0.00
  -15    1   14     -1.39      0.00
  -13    1   14     -7.00      0.00
  -11    1   14     -5.29      0.00
   -9    1   14      5.17      0.00
   -7    1   14     11.23      0.00
   -5    1   14      4.15      0.00
   -3    1   14     -6.25      0.00
   -1    1   14     -5.42      0.00
    1    1   14      3.47      0.00
    3    1   14      5.77      0.00
    5    1   14     -0.03      0.00
    7    1   14     -3.97      0.00
    9    1   14     -2.47      0.00
   11    1   14     -0.40      0.00
   13    1   14     -2.51      0.00
   15    1   14     -7.09      0.00
   17    1   14     -9.50      0.00
   19    1   14     -9.13      0.00
  -30    2   14     -8.01      0.00
  -28    2   14     -3.55      0.00
  -26    2   14      3.39      0.00
  -24    2   14      4.85      0.00
  -22    2   14     -1.21      0.00
  -20    2   14     -4.89      0.00
  -18    2   14      1.45      0.00
  -16    2   14      5.44      0.00
  -14    2   14      1.25      0.00
  -12    2   14      1.15      0.00
  -10    2   14      0.91      0.00
   -8    2   14    -10.70      0.00
   -6    2   14    -17.14      0.00
   -4    2   14     -2.17      0.00
   -2    2   14     14.72      0.00
    0    2   14     10.64      0.00
    2    2   14     -0.99      0.00
    4    2   14     -0.43      0.00
    6    2   14      2.50      0.00
    8    2   14     -1.46      0.00
   10    2   14     -3.08      0.00
   12    2   14     -0.47      0.00
   14    2   14      1.95      0.00
   16    2   14      1.74      0.00
   18    2   14     -4.86      0.00
   20    2   14     -9.79      0.00
  -29    3   14      2.19      0.00
  -27    3   14     -1.76      0.00
  -25    3   14     -2.59      0.00
  -23    3   14     -0.35      0.00
  -21    3   14      4.92      0.00
  -19    3   14      6.88      0.00
  -17    3   14      3.17      0.00
  -15    3   14      2.32      0.00
  -13    3   14      3.99      0.00
  -11    3   14      0.09      0.00
   -9    3   14     -2.58      0.00
   -7    3   14      2.34      0.00
   -5    3   14      2.34      0.00
   -3    3   14     -7.74      0.00
   -1    3   14    -14.15      0.00
    1    3   14     -8.93      0.00
    3    3   14     -0.22      0.00
    5    3   14      3.38      0.00
    7    3   14      5.85      0.00
    9    3   14     11.05      0.00
   11    3   14     12.19      0.00
   13    3   14      6.92      0.00
   15    3   14      2.64      0.00
   17    3   14      6.16      0.00
   19    3   14     14.91      0.00
  -28    4   14      5.10      0.00
  -26    4   14      1.10      0.00
  -24    4   14     -0.96      0.00
  -22    4   14      1.26      0.00
  -20    4   14      0.51      0.00
  -18    4   14     -4.89      0.00
  -16    4   14     -5.56      0.00
  -14    4   14     -1.61      0.00
  -12    4   14     -1.29      0.00
  -10    4   14     -0.67      0.00
   -8    4   14      4.90      0.00
   -6    4   14      7.25      0.00
   -4    4   14      2.96      0.00
   -2    4   14      2.05      0.00
    0    4   14      7.68      0.00
    2    4   14      7.36      0.00
    4    4   14     -1.69      0.00
    6    4   14     -6.52      0.00
    8    4   14     -7.05      0.00
   10    4   14     -9.80      0.00
   12    4   14     -6.32      0.00
   14    4   14      4.38      0.00
   16    4   14      7.02      0.00
   18    4   14     -2.82      0.00
   20    4   14    -13.04      0.00
  -29    5   14     -5.36      0.00
  -27    5   14     -4.27      0.00
  -25    5   14     -1.28      0.00
  -23    5   14     -2.04      0.00
  -21    5   14     -6.80      0.00
  -19    5   14     -4.34      0.00
  -17    5   14      4.20      0.00
  -15    5   14      6.00      0.00
  -13    5   14      2.47      0.00
  -11    5   14      3.69      0.00
   -9    5   14      4.10      0.00
   -7    5   14     -2.14      0.00
   -5    5   14     -3.65      0.00
   -3    5   14      0.73      0.00
   -1    5   14     -1.43      0.00
    1    5   14     -7.15      0.00
    3    5   14     -5.61      0.00
    5    5   14      0.54      0.00
    7    5   14      2.87      0.00
    9    5   14      1.31      0.00
   11    5   14     -2.75      0.00
   13    5   14    -12.32      0.00
   15    5   14    -19.12      0.00
   17    5   14    -11.37      0.00
   19    5   14      1.23      0.00
  -28    6   14     -3.62      0.00
  -26    6   14     -2.95      0.00
  -24    6   14     -3.13      0.00
  -22    6   14     -0.84      0.00
  -20    6   14      3.09      0.00
  -18    6   14      2.17      0.00
  -16    6   14     -3.00      0.00
  -14    6   14     -4.35      0.00
  -12    6   14     -1.47      0.00
  -10    6   14     -1.70      0.00
   -8    6   14     -3.84      0.00
   -6    6   14     -2.56      0.00
   -4    6   14     -0.34      0.00
   -2    6   14      0.41      0.00
    0    6   14      1.96      0.00
    2    6   14      4.78      0.00
    4    6   14      5.15      0.00
    6    6   14      0.57      0.00
    8    6   14     -3.55      0.00
   10    6   14     -0.06      0.00
   12    6   14      9.14      0.00
   14    6   14     14.22      0.00
   16    6   14      7.16      0.00
   18    6   14     -4.91      0.00
  -27    7   14      6.01      0.00
  -25    7   14      6.14      0.00
  -23    7   14      5.59      0.00
  -21    7   14      5.95      0.00
  -19    7   14      2.02      0.00
  -17    7   14     -4.37      0.00
  -15    7   14     -8.86      0.00
  -13    7   14    -10.47      0.00
  -11    7   14    -10.45      0.00
   -9    7   14     -7.69      0.00
   -7    7   14     -2.71      0.00
   -5    7   14     -1.82      0.00
   -3    7   14     -2.74      0.00
   -1    7   14      0.26      0.00
    1    7   14      1.17      0.00
    3    7   14     -2.21      0.00
    5    7   14     -2.49      0.00
    7    7   14      2.36      0.00
    9    7   14      5.20      0.00
   11    7   14     -0.19      0.00
   13    7   14     -6.53      0.00
   15    7   14     -2.97      0.00
   17    7   14      6.82      0.00
   19    7   14     12.25      0.00
  -28    8   14     -0.34      0.00
  -26    8   14     -3.36      0.00
  -24    8   14     -0.23      0.00
  -22    8   14     -3.57      0.00
  -20    8   14    -11.05      0.00
  -18    8   14     -9.46      0.00
  -16    8   14      1.96      0.00
  -14    8   14     11.37      0.00
  -12    8   14      9.81      0.00
  -10    8   14      2.23      0.00
   -8    8   14     -2.83      0.00
   -6    8   14     -4.21      0.00
   -4    8   14     -4.56      0.00
   -2    8   14     -6.78      0.00
    0    8   14     -9.71      0.00
    2    8   14     -8.95      0.00
    4    8   14     -4.79      0.00
    6    8   14     -1.20      0.00
    8    8   14     -0.33      0.00
   10    8   14     -1.69      0.00
   12    8   14     -3.41      0.00
   14    8   14     -4.76      0.00
   16    8   14     -7.01      0.00
   18    8   14    -10.65      0.00
  -27    9   14      1.02      0.00
  -25    9   14     -2.34      0.00
  -23    9   14     -3.97      0.00
  -21    9   14      1.12      0.00
  -19    9   14      7.92      0.00
  -17    9   14      5.70      0.00
  -15    9   14     -3.26      0.00
  -13    9   14     -7.63      0.00
  -11    9   14     -0.14      0.00
   -9    9   14      9.93      0.00
   -7    9   14     10.13      0.00
   -5    9   14      7.42      0.00
   -3    9   14      7.69      0.00
   -1    9   14      6.31      0.00
    1    9   14      4.93      0.00
    3    9   14      3.61      0.00
    5    9   14     -0.87      0.00
    7    9   14     -5.76      0.00
    9    9   14     -5.72      0.00
   11    9   14      0.96      0.00
   13    9   14      7.00      0.00
   15    9   14      7.57      0.00
   17    9   14      8.21      0.00
  -26   10   14      5.50      0.00
  -24   10   14     -0.14      0.00
  -22   10   14     -2.56      0.00
  -20   10   14     -1.84      0.00
  -18   10   14     -2.06      0.00
  -16   10   14     -0.48      0.00
  -14   10   14      1.74      0.00
  -12   10   14     -0.03      0.00
  -10   10   14     -4.96      0.00
   -8   10   14     -6.58      0.00
   -6   10   14     -4.22      0.00
   -4   10   14     -2.97      0.00
   -2   10   14     -1.35      0.00
    0   10   14      1.97      0.00
    2   10   14      2.85      0.00
    4   10   14      1.83      0.00
    6   10   14      1.72      0.00
    8   10   14      1.10      0.00
   10   10   14      0.17      0.00
   12   10   14      1.86      0.00
   14   10   14      4.06      0.00
   16   10   14      3.19      0.00
  -25   11   14     -4.45      0.00
  -23   11   14      4.38      0.00
  -21   11   14      6.16      0.00
  -19   11   14      3.38      0.00
  -17   11   14     -0.65      0.00
  -15   11   14     -5.38      0.00
  -13   11   14     -3.68      0.00
  -11   11   14      0.06      0.00
   -9   11   14     -1.02      0.00
   -7   11   14     -0.74      0.00
   -5   11   14      0.26      0.00
   -3   11   14     -1.63      0.00
   -1   11   14     -3.57      0.00
    1   11   14     -5.38      0.00
    3   11   14     -5.61      0.00
    5   11   14     -3.29      0.00
    7   11   14     -0.25      0.00
    9   11   14      0.95      0.00
   11   11   14     -3.01      0.00
   13   11   14     -5.87      0.00
   15   11   14     -3.08      0.00
  -24   12   14      5.86      0.00
  -22   12   14     -0.73      0.00
  -20   12   14     -7.42      0.00
  -18   12   14     -3.64      0.00
  -16   12   14      8.60      0.00
  -14   12   14     13.92      0.00
  -12   12   14      7.72      0.00
  -10   12   14      2.76      0.00
   -8   12   14      3.00      0.00
   -6   12   14      2.52      0.00
   -4   12   14      1.41      0.00
   -2   12   14      1.62      0.00
    0   12   14      3.03      0.00
    2   12   14      3.37      0.00
    4   12   14      0.31      0.00
    6   12   14     -3.17      0.00
    8   12   14     -2.53      0.00
   10   12   14      0.07      0.00
   12   12   14     -3.30      0.00
   14   12   14     -9.78      0.00
   16   12   14     -6.64      0.00
  -23   13   14     -2.47      0.00
  -21   13   14      7.08      0.00
  -19   13   14      9.92      0.00
  -17   13   14     -1.66      0.00
  -15   13   14     -9.12      0.00
  -13   13   14     -5.15      0.00
  -11   13   14      2.27      0.00
   -9   13   14      4.84      0.00
   -7   13   14      0.42      0.00
   -5   13   14     -0.97      0.00
   -3   13   14      1.98      0.00
   -1   13   14     -0.06      0.00
    1   13   14     -3.21      0.00
    3   13   14      0.69      0.00
    5   13   14      8.45      0.00
    7   13   14      8.82      0.00
    9   13   14      1.40      0.00
   11   13   14      2.57      0.00
   13   13   14     12.11      0.00
   15   13   14     12.77      0.00
  -22   14   14     -3.67      0.00
  -20   14   14     -7.73      0.00
  -18   14   14     -1.52      0.00
  -16   14   14      4.18      0.00
  -14   14   14      1.45      0.00
  -12   14   14     -2.83      0.00
  -10   14   14     -4.27      0.00
   -8   14   14     -3.60      0.00
   -6   14   14     -3.61      0.00
   -4   14   14     -4.63      0.00
   -2   14   14     -3.07      0.00
    0   14   14     -0.57      0.00
    2   14   14     -1.23      0.00
    4   14   14     -5.33      0.00
    6   14   14     -6.89      0.00
    8   14   14      0.30      0.00
   10   14   14      8.00      0.00
   12   14   14      8.69      0.00
   14   14   14      7.18      0.00
  -21   15   14     -3.07      0.00
  -19   15   14     -3.16      0.00
  -17   15   14     -3.25      0.00
  -15   15   14     -4.12      0.00
  -13   15   14     -5.02      0.00
  -11   15   14     -5.45      0.00
   -9   15   14     -3.78      0.00
   -7   15   14      3.02      0.00
   -5   15   14      5.39      0.00
   -3   15   14      0.05      0.00
   -1   15   14     -0.59      0.00
    1   15   14      3.71      0.00
    3   15   14      3.59      0.00
    5   15   14     -1.55      0.00
    7   15   14     -5.15      0.00
    9   15   14     -5.26      0.00
   11   15   14     -9.56      0.00
  -20   16   14      6.26      0.00
  -18   16   14      0.98      0.00
  -16   16   14     -1.69      0.00
  -14   16   14      2.42      0.00
  -12   16   14      5.80      0.00
  -10   16   14      3.17      0.00
   -8   16   14     -2.64      0.00
   -6   16   14     -3.86      0.00
   -4   16   14     -0.29      0.00
   -2   16   14     -1.18      0.00
    0   16   14     -7.04      0.00
    2   16   14     -8.50      0.00
    4   16   14      0.71      0.00
    6   16   14     11.26      0.00
    8   16   14      8.55      0.00
   10   16   14      2.86      0.00
  -19   17   14     -3.28      0.00
  -17   17   14      1.64      0.00
  -15   17   14      3.03      0.00
  -13   17   14     -0.50      0.00
  -11   17   14     -0.96      0.00
   -9   17   14      3.57      0.00
   -7   17   14      0.67      0.00
   -5   17   14     -6.13      0.00
   -3   17   14     -3.09      0.00
   -1   17   14      5.98      0.00
    1   17   14     10.82      0.00
    3   17   14      5.98      0.00
    5   17   14     -4.62      0.00
    7   17   14     -8.59      0.00
    9   17   14     -4.94      0.00
  -16   18   14      4.24      0.00
  -14   18   14      4.64      0.00
  -12   18   14      6.14      0.00
  -10   18   14      4.29      0.00
   -8   18   14      2.76      0.00
   -6   18   14      7.16      0.00
   -4   18   14     10.72      0.00
   -2   18   14      4.55      0.00
    0   18   14     -6.11      0.00
    2   18   14     -6.21      0.00
    4   18   14      2.81      0.00
    6   18   14      5.74      0.00
  -15   19   14     -7.48      0.00
  -13   19   14     -7.44      0.00
  -11   19   14     -6.39      0.00
   -9   19   14     -4.75      0.00
   -7   19   14     -0.95      0.00
   -5   19   14      0.39      0.00
   -3   19   14      2.16      0.00
   -1   19   14     12.26      0.00
    1   19   14     17.53      0.00
    3   19   14      6.79      0.00
    5   19   14     -4.67      0.00
  -10   20   14     -1.29      0.00
   -8   20   14     -1.66      0.00
   -6   20   14     -3.51      0.00
   -4   20   14     -5.62      0.00
   -2   20   14     -9.50      0.00
    0   20   14    -12.98      0.00
    2   20   14    -10.68      0.00
  -29    1   15      3.97      0.00
  -27    1   15     -0.85      0.00
  -25    1   15     -3.29      0.00
  -23    1   15     -0.10      0.00
  -21    1   15      3.58      0.00
  -19    1   15     -2.34      0.00
  -17    1   15    -18.68      0.00
  -15    1   15    -23.46      0.00
  -13    1   15    -10.78      0.00
  -11    1   15     -4.60      0.00
   -9    1   15     -7.63      0.00
   -7    1   15     -2.29      0.00
   -5    1   15      8.07      0.00
   -3    1   15      9.71      0.00
   -1    1   15      5.15      0.00
    1    1   15      4.30      0.00
    3    1   15      2.70      0.00
    5    1   15     -4.61      0.00
    7    1   15     -4.31      0.00
    9    1   15      4.14      0.00
   11    1   15      5.17      0.00
   13    1   15      3.18      0.00
   15    1   15      5.88      0.00
   17    1   15      8.55      0.00
   19    1   15     10.52      0.00
  -28    2   15     -2.65      0.00
  -26    2   15     -2.11      0.00
  -24    2   15     -3.70      0.00
  -22    2   15     -3.57      0.00
  -20    2   15      0.52      0.00
  -18    2   15     10.15      0.00
  -16    2   15     18.43      0.00
  -14    2   15     13.10      0.00
  -12    2   15      0.83      0.00
  -10    2   15     -1.04      0.00
   -8    2   15      3.93      0.00
   -6    2   15      3.20      0.00
   -4    2   15     -0.27      0.00
   -2    2   15     -0.60      0.00
    0    2   15     -0.87      0.00
    2    2   15     -1.44      0.00
    4    2   15      2.62      0.00
    6    2   15      7.20      0.00
    8    2   15      3.42      0.00
   10    2   15     -2.43      0.00
   12    2   15     -0.95      0.00
   14    2   15      0.78      0.00
   16    2   15     -3.42      0.00
   18    2   15     -8.26      0.00
  -29    3   15     -1.39      0.00
  -27    3   15      1.77      0.00
  -25    3   15      6.56      0.00
  -23    3   15      6.25      0.00
  -21    3   15     -0.47      0.00
  -19    3   15     -5.29      0.00
  -17    3   15     -3.14      0.00
  -15    3   15     -1.42      0.00
  -13    3   15     -0.64      0.00
  -11    3   15      5.01      0.00
   -9    3   15      6.95      0.00
   -7    3   15     -0.61      0.00
   -5    3   15     -7.23      0.00
   -3    3   15     -6.10      0.00
   -1    3   15     -0.30      0.00
    1    3   15      4.46      0.00
    3    3   15      5.47      0.00
    5    3   15      3.40      0.00
    7    3   15     -1.02      0.00
    9    3   15     -2.87      0.00
   11    3   15     -1.80      0.00
   13    3   15     -6.05      0.00
   15    3   15    -10.82      0.00
   17    3   15     -7.90      0.00
   19    3   15     -4.34      0.00
  -28    4   15      3.87      0.00
  -26    4   15      1.66      0.00
  -24    4   15     -1.16      0.00
  -22    4   15     -1.86      0.00
  -20    4   15      1.04      0.00
  -18    4   15      0.75      0.00
  -16    4   15     -3.32      0.00
  -14    4   15     -1.81      0.00
  -12    4   15      3.57      0.00
  -10    4   15      2.65      0.00
   -8    4   15     -0.57      0.00
   -6    4   15      2.28      0.00
   -4    4   15      6.87      0.00
   -2    4   15      6.84      0.00
    0    4   15      1.46      0.00
    2    4   15     -5.71      0.00
    4    4   15     -8.30      0.00
    6    4   15     -4.11      0.00
    8    4   15      1.44      0.00
   10    4   15      1.55      0.00
   12    4   15     -0.22      0.00
   14    4   15      3.94      0.00
   16    4   15      8.32      0.00
   18    4   15      7.23      0.00
  -29    5   15     -1.02      0.00
  -27    5   15     -3.02      0.00
  -25    5   15     -6.25      0.00
  -23    5   15     -2.38      0.00
  -21    5   15      4.95      0.00
  -19    5   15      6.07      0.00
  -17    5   15      3.28      0.00
  -15    5   15      4.13      0.00
  -13    5   15      3.37      0.00
  -11    5   15     -2.84      0.00
   -9    5   15     -2.19      0.00
   -7    5   15      7.30      0.00
   -5    5   15     10.13      0.00
   -3    5   15      2.44      0.00
   -1    5   15     -3.77      0.00
    1    5   15     -0.90      0.00
    3    5   15      3.86      0.00
    5    5   15      1.26      0.00
    7    5   15     -3.26      0.00
    9    5   15     -1.41      0.00
   11    5   15      3.89      0.00
   13    5   15      6.70      0.00
   15    5   15      5.38      0.00
   17    5   15      2.82      0.00
  -28    6   15      0.09      0.00
  -26    6   15      5.61      0.00
  -24    6   15     10.08      0.00
  -22    6   15      3.65      0.00
  -20    6   15     -5.77      0.00
  -18    6   15     -4.57      0.00
  -16    6   15      1.74      0.00
  -14    6   15      2.60      0.00
  -12    6   15      1.01      0.00
  -10    6   15      0.79      0.00
   -8    6   15     -5.03      0.00
   -6    6   15    -13.65      0.00
   -4    6   15    -10.65      0.00
   -2    6   15      0.14      0.00
    0    6   15      4.14      0.00
    2    6   15      2.41      0.00
    4    6   15      2.86      0.00
    6    6   15      4.69      0.00
    8    6   15      2.27      0.00
   10    6   15     -2.88      0.00
   12    6   15     -5.10      0.00
   14    6   15     -4.71      0.00
   16    6   15     -1.91      0.00
   18    6   15      2.75      0.00
  -27    7   15     -0.60      0.00
  -25    7   15     -6.27      0.00
  -23    7   15    -10.34      0.00
  -21    7   15     -4.68      0.00
  -19    7   15      2.95      0.00
  -17    7   15      2.54      0.00
  -15    7   15     -3.75      0.00
  -13    7   15     -7.23      0.00
  -11    7   15     -3.49      0.00
   -9    7   15      2.90      0.00
   -7    7   15      6.75      0.00
   -5    7   15      5.70      0.00
   -3    7   15      0.68      0.00
   -1    7   15     -1.11      0.00
    1    7   15      2.02      0.00
    3    7   15      4.00      0.00
    5    7   15      5.07      0.00
    7    7   15      6.88      0.00
    9    7   15      5.97      0.00
   11    7   15      2.40      0.00
   13    7   15     -0.66      0.00
   15    7   15     -5.22      0.00
   17    7   15    -13.06      0.00
  -26    8   15     -3.74      0.00
  -24    8   15      0.45      0.00
  -22    8   15      4.49      0.00
  -20    8   15      4.44      0.00
  -18    8   15      0.48      0.00
  -16    8   15     -1.21      0.00
  -14    8   15      2.82      0.00
  -12    8   15      8.06      0.00
  -10    8   15      5.67      0.00
   -8    8   15     -0.17      0.00
   -6    8   15      0.09      0.00
   -4    8   15      1.47      0.00
   -2    8   15     -0.81      0.00
    0    8   15     -3.12      0.00
    2    8   15     -4.10      0.00
    4    8   15     -5.10      0.00
    6    8   15     -7.20      0.00
    8    8   15     -6.98      0.00
   10    8   15     -3.10      0.00
   12    8   15     -1.72      0.00
   14    8   15     -2.26      0.00
   16    8   15      0.71      0.00
  -27    9   15      0.53      0.00
  -25    9   15      1.18      0.00
  -23    9   15      5.51      0.00
  -21    9   15      2.82      0.00
  -19    9   15     -2.85      0.00
  -17    9   15     -3.15      0.00
  -15    9   15     -0.65      0.00
  -13    9   15     -2.72      0.00
  -11    9   15     -9.56      0.00
   -9    9   15    -12.67      0.00
   -7    9   15    -10.08      0.00
   -5    9   15     -5.59      0.00
   -3    9   15      0.51      0.00
   -1    9   15      4.28      0.00
    1    9   15      2.44      0.00
    3    9   15     -0.21      0.00
    5    9   15     -0.30      0.00
    7    9   15      1.29      0.00
    9    9   15      3.09      0.00
   11    9   15      2.77      0.00
   13    9   15      0.42      0.00
   15    9   15     -0.20      0.00
  -26   10   15      3.43      0.00
  -24   10   15     -1.13      0.00
  -22   10   15     -6.39      0.00
  -20   10   15     -4.50      0.00
  -18   10   15     -0.36      0.00
  -16   10   15     -0.51      0.00
  -14   10   15     -3.58      0.00
  -12   10   15     -4.17      0.00
  -10   10   15      4.07      0.00
   -8   10   15     11.93      0.00
   -6   10   15      7.41      0.00
   -4   10   15     -0.46      0.00
   -2   10   15     -3.16      0.00
    0   10   15     -2.74      0.00
    2   10   15      0.07      0.00
    4   10   15      3.21      0.00
    6   10   15      4.13      0.00
    8   10   15      2.30      0.00
   10   10   15      1.84      0.00
   12   10   15      7.24      0.00
   14   10   15     10.91      0.00
   16   10   15      6.93      0.00
  -25   11   15      2.68      0.00
  -23   11   15     -4.37      0.00
  -21   11   15     -4.69      0.00
  -19   11   15     -1.51      0.00
  -17   11   15     -1.61      0.00
  -15   11   15     -2.32      0.00
  -13   11   15      0.47      0.00
  -11   11   15      1.40      0.00
   -9   11   15     -4.39      0.00
   -7   11   15     -7.38      0.00
   -5   11   15     -2.95      0.00
   -3   11   15     -0.52      0.00
   -1   11   15     -2.23      0.00
    1   11   15     -3.36      0.00
    3   11   15     -3.34      0.00
    5   11   15     -2.33      0.00
    7   11   15     -2.37      0.00
    9   11   15     -7.68      0.00
   11   11   15    -15.04      0.00
   13   11   15    -15.59      0.00
   15   11   15    -10.54      0.00
  -24   12   15     -0.96      0.00
  -22   12   15      8.53      0.00
  -20   12   15      5.22      0.00
  -18   12   15      2.30      0.00
  -16   12   15      5.97      0.00
  -14   12   15      7.15      0.00
  -12   12   15      4.85      0.00
  -10   12   15      1.13      0.00
   -8   12   15     -0.15      0.00
   -6   12   15      2.59      0.00
   -4   12   15      2.25      0.00
   -2   12   15      1.44      0.00
    0   12   15      5.88      0.00
    2   12   15      7.33      0.00
    4   12   15     -0.68      0.00
    6   12   15     -9.85      0.00
    8   12   15     -6.04      0.00
   10   12   15      6.01      0.00
   12   12   15      7.38      0.00
   14   12   15      1.39      0.00
  -23   13   15      1.23      0.00
  -21   13   15      0.69      0.00
  -19   13   15      1.73      0.00
  -17   13   15     -0.74      0.00
  -15   13   15     -3.66      0.00
  -13   13   15     -3.41      0.00
  -11   13   15      0.41      0.00
   -9   13   15      4.60      0.00
   -7   13   15      3.23      0.00
   -5   13   15      0.73      0.00
   -3   13   15      1.86      0.00
   -1   13   15     -2.05      0.00
    1   13   15    -10.79      0.00
    3   13   15     -9.53      0.00
    5   13   15      3.00      0.00
    7   13   15      8.44      0.00
    9   13   15      1.18      0.00
   11   13   15     -2.35      0.00
   13   13   15      0.97      0.00
  -22   14   15     -0.61      0.00
  -20   14   15      0.83      0.00
  -18   14   15     -1.59      0.00
  -16   14   15     -5.32      0.00
  -14   14   15     -3.54      0.00
  -12   14   15     -2.57      0.00
  -10   14   15     -2.67      0.00
   -8   14   15      0.79      0.00
   -6   14   15      2.39      0.00
   -4   14   15      0.23      0.00
   -2   14   15     -0.51      0.00
    0   14   15      3.82      0.00
    2   14   15      8.34      0.00
    4   14   15      5.07      0.00
    6   14   15      0.86      0.00
    8   14   15      2.31      0.00
   10   14   15      2.52      0.00
   12   14   15      1.41      0.00
  -21   15   15    -12.04      0.00
  -19   15   15    -10.82      0.00
  -17   15   15      1.39      0.00
  -15   15   15      7.99      0.00
  -13   15   15      6.28      0.00
  -11   15   15      5.34      0.00
   -9   15   15      3.12      0.00
   -7   15   15     -2.79      0.00
   -5   15   15     -5.55      0.00
   -3   15   15     -0.70      0.00
   -1   15   15      3.81      0.00
    1   15   15      0.96      0.00
    3   15   15     -2.01      0.00
    5   15   15     -2.56      0.00
    7   15   15     -4.53      0.00
    9   15   15     -3.53      0.00
   11   15   15     -0.43      0.00
  -20   16   15     23.91      0.00
  -18   16   15     15.05      0.00
  -16   16   15      1.48      0.00
  -14   16   15     -6.55      0.00
  -12   16   15     -9.09      0.00
  -10   16   15    -11.30      0.00
   -8   16   15     -9.44      0.00
   -6   16   15     -1.85      0.00
   -4   16   15     -3.17      0.00
   -2   16   15    -12.15      0.00
    0   16   15    -11.51      0.00
    2   16   15     -4.46      0.00
    4   16   15     -1.84      0.00
    6   16   15     -1.97      0.00
    8   16   15     -0.95      0.00
  -17   17   15    -12.69      0.00
  -15   17   15     -2.25      0.00
  -13   17   15      5.26      0.00
  -11   17   15      7.00      0.00
   -9   17   15      3.51      0.00
   -7   17   15     -1.18      0.00
   -5   17   15      0.33      0.00
   -3   17   15      4.99      0.00
   -1   17   15      3.50      0.00
    1   17   15     -1.11      0.00
    3   17   15     -2.89      0.00
    5   17   15     -0.38      0.00
    7   17   15      3.82      0.00
  -16   18   15      6.14      0.00
  -14   18   15      0.68      0.00
  -12   18   15     -4.93      0.00
  -10   18   15     -1.04      0.00
   -8   18   15      7.33      0.00
   -6   18   15      4.23      0.00
   -4   18   15     -1.12      0.00
   -2   18   15      2.83      0.00
    0   18   15      4.17      0.00
    2   18   15     -0.98      0.00
    4   18   15     -3.27      0.00
  -13   19   15      2.01      0.00
  -11   19   15      7.72      0.00
   -9   19   15      3.98      0.00
   -7   19   15      2.18      0.00
   -5   19   15      4.58      0.00
   -3   19   15      1.25      0.00
   -1   19   15     -2.69      0.00
    1   19   15      2.35      0.00
   -8   20   15    -12.85      0.00
   -6   20   15    -14.04      0.00
   -4   20   15    -10.24      0.00
  -28    0   16     -3.26      0.00
  -26    0   16     10.41      0.00
  -24    0   16     11.02      0.00
  -22    0   16     -3.12      0.00
  -20    0   16    -18.70      0.00
  -18    0   16    -18.39      0.00
  -16    0   16     -1.08      0.00
  -14    0   16      7.08      0.00
  -12    0   16      0.06      0.00
  -10    0   16     -0.17      0.00
   -8    0   16      4.30      0.00
   -6    0   16     -0.08      0.00
   -4    0   16     -5.32      0.00
   -2    0   16     -2.35      0.00
    0    0   16      1.42      0.00
    2    0   16     -2.66      0.00
    4    0   16     -4.70      0.00
    6    0   16      1.71      0.00
    8    0   16      1.25      0.00
   10    0   16     -3.95      0.00
   12    0   16      0.64      0.00
   14    0   16      6.24      0.00
   16    0   16      7.93      0.00
   18    0   16      8.81      0.00
  -29    1   16      2.41      0.00
  -27    1   16     -3.47      0.00
  -25    1   16     -5.12      0.00
  -23    1   16      1.04      0.00
  -21    1   16      9.68      0.00
  -19    1   16     13.65      0.00
  -17    1   16      8.55      0.00
  -15    1   16     -0.09      0.00
  -13    1   16     -1.97      0.00
  -11    1   16      1.08      0.00
   -9    1   16      0.97      0.00
   -7    1   16     -0.88      0.00
   -5    1   16     -1.09      0.00
   -3    1   16     -2.33      0.00
   -1    1   16     -4.24      0.00
    1    1   16     -2.91      0.00
    3    1   16     -0.50      0.00
    5    1   16     -1.55      0.00
    7    1   16     -2.61      0.00
    9    1   16     -0.26      0.00
   11    1   16     -0.01      0.00
   13    1   16     -3.96      0.00
   15    1   16     -6.71      0.00
   17    1   16     -5.84      0.00
  -28    2   16      1.88      0.00
  -26    2   16     -4.62      0.00
  -24    2   16     -7.38      0.00
  -22    2   16     -4.70      0.00
  -20    2   16     -0.13      0.00
  -18    2   16      0.01      0.00
  -16    2   16     -4.74      0.00
  -14    2   16     -3.02      0.00
  -12    2   16      2.01      0.00
  -10    2   16     -2.49      0.00
   -8    2   16     -7.11      0.00
   -6    2   16     -1.90      0.00
   -4    2   16      4.43      0.00
   -2    2   16      4.84      0.00
    0    2   16      2.35      0.00
    2    2   16      3.28      0.00
    4    2   16      4.23      0.00
    6    2   16      0.16      0.00
    8    2   16     -0.13      0.00
   10    2   16      3.22      0.00
   12    2   16      2.33      0.00
   14    2   16      3.02      0.00
   16    2   16      3.78      0.00
   18    2   16     -1.73      0.00
  -29    3   16     -0.24      0.00
  -27    3   16      8.85      0.00
  -25    3   16      9.73      0.00
  -23    3   16      3.28      0.00
  -21    3   16     -1.71      0.00
  -19    3   16     -3.31      0.00
  -17    3   16     -1.25      0.00
  -15    3   16      1.61      0.00
  -13    3   16     -0.53      0.00
  -11    3   16     -3.25      0.00
   -9    3   16     -0.40      0.00
   -7    3   16      1.33      0.00
   -5    3   16     -1.88      0.00
   -3    3   16     -3.50      0.00
   -1    3   16     -3.18      0.00
    1    3   16     -5.71      0.00
    3    3   16     -7.11      0.00
    5    3   16     -1.78      0.00
    7    3   16      2.39      0.00
    9    3   16     -1.46      0.00
   11    3   16     -3.44      0.00
   13    3   16      0.19      0.00
   15    3   16      1.64      0.00
   17    3   16      3.72      0.00
  -28    4   16     -7.68      0.00
  -26    4   16     -7.76      0.00
  -24    4   16     -0.71      0.00
  -22    4   16      0.53      0.00
  -20    4   16     -5.22      0.00
  -18    4   16     -6.41      0.00
  -16    4   16     -1.91      0.00
  -14    4   16     -2.66      0.00
  -12    4   16     -5.04      0.00
  -10    4   16      0.26      0.00
   -8    4   16      4.94      0.00
   -6    4   16      2.84      0.00
   -4    4   16     -0.82      0.00
   -2    4   16     -1.85      0.00
    0    4   16      2.39      0.00
    2    4   16      6.09      0.00
    4    4   16      2.54      0.00
    6    4   16     -1.31      0.00
    8    4   16      0.04      0.00
   10    4   16      3.26      0.00
   12    4   16      4.31      0.00
   14    4   16      1.51      0.00
   16    4   16     -1.88      0.00
  -27    5   16     -0.23      0.00
  -25    5   16     -4.74      0.00
  -23    5   16     -5.81      0.00
  -21    5   16      1.02      0.00
  -19    5   16      8.69      0.00
  -17    5   16      7.82      0.00
  -15    5   16      3.21      0.00
  -13    5   16      3.81      0.00
  -11    5   16      5.24      0.00
   -9    5   16      0.81      0.00
   -7    5   16     -2.85      0.00
   -5    5   16     -0.14      0.00
   -3    5   16      3.64      0.00
   -1    5   16      3.88      0.00
    1    5   16      1.15      0.00
    3    5   16     -1.51      0.00
    5    5   16     -2.47      0.00
    7    5   16     -1.95      0.00
    9    5   16     -0.12      0.00
   11    5   16      0.11      0.00
   13    5   16     -0.68      0.00
   15    5   16      1.78      0.00
   17    5   16      3.39      0.00
  -28    6   16      7.19      0.00
  -26    6   16      9.71      0.00
  -24    6   16      6.99      0.00
  -22    6   16      4.02      0.00
  -20    6   16      0.84      0.00
  -18    6   16     -3.33      0.00
  -16    6   16     -4.60      0.00
  -14    6   16      0.88      0.00
  -12    6   16      5.28      0.00
  -10    6   16      1.59      0.00
   -8    6   16     -1.00      0.00
   -6    6   16      2.11      0.00
   -4    6   16      4.16      0.00
   -2    6   16      2.72      0.00
    0    6   16     -0.43      0.00
    2    6   16     -0.02      0.00
    4    6   16      5.19      0.00
    6    6   16      5.55      0.00
    8    6   16     -1.24      0.00
   10    6   16     -5.88      0.00
   12    6   16     -5.16      0.00
   14    6   16     -3.98      0.00
   16    6   16     -3.50      0.00
  -27    7   16     -5.01      0.00
  -25    7   16     -2.82      0.00
  -23    7   16      2.59      0.00
  -21    7   16      1.68      0.00
  -19    7   16     -1.41      0.00
  -17    7   16      0.54      0.00
  -15    7   16      2.46      0.00
  -13    7   16     -1.18      0.00
  -11    7   16     -3.18      0.00
   -9    7   16      2.47      0.00
   -7    7   16      5.21      0.00
   -5    7   16     -0.38      0.00
   -3    7   16     -3.80      0.00
   -1    7   16     -2.03      0.00
    1    7   16     -2.38      0.00
    3    7   16     -7.36      0.00
    5    7   16    -10.43      0.00
    7    7   16     -5.23      0.00
    9    7   16      2.17      0.00
   11    7   16      3.69      0.00
   13    7   16      1.39      0.00
   15    7   16     -0.65      0.00
  -26    8   16      3.36      0.00
  -24    8   16      2.05      0.00
  -22    8   16     -4.92      0.00
  -20    8   16     -4.86      0.00
  -18    8   16      1.06      0.00
  -16    8   16      5.01      0.00
  -14    8   16      3.98      0.00
  -12    8   16      1.60      0.00
  -10    8   16      1.44      0.00
   -8    8   16      1.19      0.00
   -6    8   16      1.60      0.00
   -4    8   16      2.70      0.00
   -2    8   16      1.05      0.00
    0    8   16      1.54      0.00
    2    8   16      7.35      0.00
    4    8   16     12.09      0.00
    6    8   16     11.54      0.00
    8    8   16      5.00      0.00
   10    8   16     -3.06      0.00
   12    8   16     -3.05      0.00
   14    8   16      4.82      0.00
   16    8   16      8.97      0.00
  -25    9   16     -8.69      0.00
  -23    9   16     -4.79      0.00
  -21    9   16      6.49      0.00
  -19    9   16      8.79      0.00
  -17    9   16     -0.61      0.00
  -15    9   16     -9.75      0.00
  -13    9   16     -7.66      0.00
  -11    9   16      0.81      0.00
   -9    9   16      1.51      0.00
   -7    9   16     -2.14      0.00
   -5    9   16     -0.83      0.00
   -3    9   16      1.11      0.00
   -1    9   16      1.18      0.00
    1    9   16      0.60      0.00
    3    9   16     -2.49      0.00
    5    9   16     -5.96      0.00
    7    9   16     -3.05      0.00
    9    9   16      8.00      0.00
   11    9   16     14.22      0.00
   13    9   16      5.17      0.00
   15    9   16     -6.98      0.00
  -26   10   16     -0.82      0.00
  -24   10   16      2.87      0.00
  -22   10   16      3.02      0.00
  -20   10   16     -2.79      0.00
  -18   10   16     -3.41      0.00
  -16   10   16      3.80      0.00
  -14   10   16      8.32      0.00
  -12   10   16      2.28      0.00
  -10   10   16     -7.60      0.00
   -8   10   16     -9.96      0.00
   -6   10   16     -7.05      0.00
   -4   10   16     -2.95      0.00
   -2   10   16      2.51      0.00
    0   10   16      3.48      0.00
    2   10   16      1.53      0.00
    4   10   16      4.39      0.00
    6   10   16      5.06      0.00
    8   10   16     -3.29      0.00
   10   10   16     -9.64      0.00
   12   10   16     -5.83      0.00
   14   10   16     -0.13      0.00
  -25   11   16      3.88      0.00
  -23   11   16     -2.53      0.00
  -21   11   16     -8.20      0.00
  -19   11   16     -5.71      0.00
  -17   11   16     -1.99      0.00
  -15   11   16     -0.66      0.00
  -13   11   16     -1.01      0.00
  -11   11   16     -0.38      0.00
   -9   11   16      7.05      0.00
   -7   11   16     12.32      0.00
   -5   11   16      5.40      0.00
   -3   11   16     -3.52      0.00
   -1   11   16     -4.80      0.00
    1   11   16     -1.88      0.00
    3   11   16     -0.85      0.00
    5   11   16     -0.04      0.00
    7   11   16      4.22      0.00
    9   11   16      3.63      0.00
   11   11   16     -4.41      0.00
   13   11   16     -7.47      0.00
  -24   12   16      2.26      0.00
  -22   12   16      5.85      0.00
  -20   12   16      8.61      0.00
  -18   12   16      5.61      0.00
  -16   12   16     -1.51      0.00
  -14   12   16     -4.99      0.00
  -12   12   16     -0.80      0.00
  -10   12   16      0.90      0.00
   -8   12   16     -6.11      0.00
   -6   12   16     -8.12      0.00
   -4   12   16     -1.13      0.00
   -2   12   16      1.53      0.00
    0   12   16     -1.46      0.00
    2   12   16     -2.93      0.00
    4   12   16     -4.63      0.00
    6   12   16     -7.79      0.00
    8   12   16     -5.24      0.00
   10   12   16      3.77      0.00
   12   12   16      9.37      0.00
  -23   13   16     -0.80      0.00
  -21   13   16     -2.12      0.00
  -19   13   16     -5.67      0.00
  -17   13   16     -2.82      0.00
  -15   13   16      1.91      0.00
  -13   13   16      0.45      0.00
  -11   13   16     -2.20      0.00
   -9   13   16     -2.06      0.00
   -7   13   16      0.79      0.00
   -5   13   16      2.87      0.00
   -3   13   16      1.43      0.00
   -1   13   16      2.78      0.00
    1   13   16      7.81      0.00
    3   13   16     10.81      0.00
    5   13   16     10.89      0.00
    7   13   16      7.30      0.00
    9   13   16      1.98      0.00
   11   13   16     -2.41      0.00
  -22   14   16     -6.75      0.00
  -20   14   16     -1.96      0.00
  -18   14   16     -0.06      0.00
  -16   14   16     -0.26      0.00
  -14   14   16      3.05      0.00
  -12   14   16      6.75      0.00
  -10   14   16      7.10      0.00
   -8   14   16      5.77      0.00
   -6   14   16      4.36      0.00
   -4   14   16      5.08      0.00
   -2   14   16      4.87      0.00
    0   14   16     -0.54      0.00
    2   14   16     -6.17      0.00
    4   14   16     -6.99      0.00
    6   14   16     -4.71      0.00
    8   14   16     -3.83      0.00
   10   14   16     -3.23      0.00
  -19   15   16      4.54      0.00
  -17   15   16      3.64      0.00
  -15   15   16     -1.52      0.00
  -13   15   16     -6.88      0.00
  -11   15   16     -9.25      0.00
   -9   15   16     -5.02      0.00
   -7   15   16     -0.42      0.00
   -5   15   16     -2.52      0.00
   -3   15   16     -3.32      0.00
   -1   15   16     -0.21      0.00
    1   15   16     -0.12      0.00
    3   15   16     -3.29      0.00
    5   15   16     -4.58      0.00
    7   15   16     -0.85      0.00
    9   15   16      1.45      0.00
  -18   16   16     -0.53      0.00
  -16   16   16      0.28      0.00
  -14   16   16      2.88      0.00
  -12   16   16      5.83      0.00
  -10   16   16      6.73      0.00
   -8   16   16      5.26      0.00
   -6   16   16      3.94      0.00
   -4   16   16      0.91      0.00
   -2   16   16     -1.81      0.00
    0   16   16      0.40      0.00
    2   16   16      4.81      0.00
    4   16   16      6.51      0.00
    6   16   16      1.47      0.00
  -17   17   16     -1.25      0.00
  -15   17   16      0.16      0.00
  -13   17   16     -1.36      0.00
  -11   17   16     -2.94      0.00
   -9   17   16     -6.71      0.00
   -7   17   16     -9.10      0.00
   -5   17   16     -3.75      0.00
   -3   17   16     -1.15      0.00
   -1   17   16     -5.81      0.00
    1   17   16     -7.40      0.00
    3   17   16     -4.01      0.00
    5   17   16      0.71      0.00
  -14   18   16      0.34      0.00
  -12   18   16      3.42      0.00
  -10   18   16      4.79      0.00
   -8   18   16      2.73      0.00
   -6   18   16     -2.83      0.00
   -4   18   16     -3.98      0.00
   -2   18   16      2.29      0.00
    0   18   16      7.11      0.00
    2   18   16      5.36      0.00
   -9   19   16     -7.28      0.00
   -7   19   16      2.76      0.00
   -5   19   16      7.67      0.00
   -3   19   16      5.32      0.00
   -1   19   16      0.89      0.00
  -27    1   17     -1.92      0.00
  -25    1   17      6.18      0.00
  -23    1   17      8.69      0.00
  -21    1   17      5.74      0.00
  -19    1   17      1.04      0.00
  -17    1   17      0.96      0.00
  -15    1   17      5.94      0.00
  -13    1   17      3.38      0.00
  -11    1   17     -2.09      0.00
   -9    1   17      2.17      0.00
   -7    1   17      5.87      0.00
   -5    1   17      1.06      0.00
   -3    1   17     -5.54      0.00
   -1    1   17     -7.43      0.00
    1    1   17     -3.26      0.00
    3    1   17      0.08      0.00
    5    1   17      1.99      0.00
    7    1   17      4.48      0.00
    9    1   17      1.01      0.00
   11    1   17     -1.08      0.00
   13    1   17      3.12      0.00
   15    1   17      1.15      0.00
  -28    2   17     -1.02      0.00
  -26    2   17     -7.17      0.00
  -24    2   17     -5.48      0.00
  -22    2   17      0.79      0.00
  -20    2   17      3.55      0.00
  -18    2   17      3.93      0.00
  -16    2   17      4.22      0.00
  -14    2   17      4.16      0.00
  -12    2   17      4.34      0.00
  -10    2   17      2.96      0.00
   -8    2   17     -1.33      0.00
   -6    2   17     -4.99      0.00
   -4    2   17     -4.65      0.00
   -2    2   17     -0.92      0.00
    0    2   17      2.85      0.00
    2    2   17      3.38      0.00
    4    2   17      0.21      0.00
    6    2   17     -2.79      0.00
    8    2   17     -0.59      0.00
   10    2   17      2.07      0.00
   12    2   17     -2.98      0.00
   14    2   17     -8.12      0.00
   16    2   17     -5.08      0.00
  -27    3   17      7.58      0.00
  -25    3   17      4.19      0.00
  -23    3   17     -3.77      0.00
  -21    3   17     -5.67      0.00
  -19    3   17     -1.18      0.00
  -17    3   17     -2.61      0.00
  -15    3   17     -9.62      0.00
  -13    3   17     -5.90      0.00
  -11    3   17      2.38      0.00
   -9    3   17      0.00      0.00
   -7    3   17     -2.37      0.00
   -5    3   17      3.36      0.00
   -3    3   17      7.70      0.00
   -1    3   17      3.59      0.00
    1    3   17     -5.17      0.00
    3    3   17     -6.18      0.00
    5    3   17     -0.42      0.00
    7    3   17      0.07      0.00
    9    3   17     -1.22      0.00
   11    3   17      0.50      0.00
   13    3   17      2.67      0.00
   15    3   17      5.60      0.00
  -28    4   17     -4.41      0.00
  -26    4   17     -1.93      0.00
  -24    4   17      0.56      0.00
  -22    4   17      2.05      0.00
  -20    4   17      0.51      0.00
  -18    4   17     -1.57      0.00
  -16    4   17      0.35      0.00
  -14    4   17      0.43      0.00
  -12    4   17     -6.52      0.00
  -10    4   17     -9.71      0.00
   -8    4   17     -3.09      0.00
   -6    4   17      1.19      0.00
   -4    4   17     -2.52      0.00
   -2    4   17     -4.96      0.00
    0    4   17     -1.53      0.00
    2    4   17      1.61      0.00
    4    4   17      0.44      0.00
    6    4   17     -1.34      0.00
    8    4   17     -1.80      0.00
   10    4   17      0.23      0.00
   12    4   17      6.59      0.00
   14    4   17      8.31      0.00
   16    4   17      0.78      0.00
  -27    5   17     -4.47      0.00
  -25    5   17     -1.90      0.00
  -23    5   17      2.00      0.00
  -21    5   17      0.14      0.00
  -19    5   17     -3.28      0.00
  -17    5   17     -1.50      0.00
  -15    5   17      2.85      0.00
  -13    5   17      1.53      0.00
  -11    5   17     -1.42      0.00
   -9    5   17     -0.73      0.00
   -7    5   17     -2.08      0.00
   -5    5   17     -3.57      0.00
   -3    5   17     -1.54      0.00
   -1    5   17      0.51      0.00
    1    5   17      2.94      0.00
    3    5   17      3.30      0.00
    5    5   17      1.26      0.00
    7    5   17      3.47      0.00
    9    5   17      3.55      0.00
   11    5   17     -6.52      0.00
   13    5   17    -15.19      0.00
   15    5   17    -10.09      0.00
  -26    6   17      4.04      0.00
  -24    6   17     -1.95      0.00
  -22    6   17     -3.32      0.00
  -20    6   17      1.96      0.00
  -18    6   17      6.00      0.00
  -16    6   17      4.18      0.00
  -14    6   17      2.28      0.00
  -12    6   17      5.26      0.00
  -10    6   17      7.33      0.00
   -8    6   17      3.18      0.00
   -6    6   17     -2.23      0.00
   -4    6   17     -5.54      0.00
   -2    6   17     -8.14      0.00
    0    6   17     -8.89      0.00
    2    6   17     -6.58      0.00
    4    6   17     -3.67      0.00
    6    6   17     -4.92      0.00
    8    6   17     -7.40      0.00
   10    6   17     -2.01      0.00
   12    6   17      7.56      0.00
   14    6   17     10.55      0.00
  -27    7   17      6.35      0.00
  -25    7   17      7.09      0.00
  -23    7   17      3.48      0.00
  -21    7   17      0.73      0.00
  -19    7   17     -1.89      0.00
  -17    7   17     -5.44      0.00
  -15    7   17     -7.49      0.00
  -13    7   17     -3.18      0.00
  -11    7   17      1.59      0.00
   -9    7   17      0.01      0.00
   -7    7   17     -0.40      0.00
   -5    7   17      4.03      0.00
   -3    7   17      8.81      0.00
   -1    7   17      9.94      0.00
    1    7   17      4.19      0.00
    3    7   17     -1.43      0.00
    5    7   17     -0.59      0.00
    7    7   17     -0.12      0.00
    9    7   17     -0.92      0.00
   11    7   17      2.54      0.00
   13    7   17      5.67      0.00
   15    7   17      2.26      0.00
  -26    8   17    -16.48      0.00
  -24    8   17     -8.90      0.00
  -22    8   17     -1.51      0.00
  -20    8   17     -2.89      0.00
  -18    8   17     -4.48      0.00
  -16    8   17      0.15      0.00
  -14    8   17      4.61      0.00
  -12    8   17      1.32      0.00
  -10    8   17     -1.93      0.00
   -8    8   17      4.00      0.00
   -6    8   17      8.47      0.00
   -4    8   17      3.86      0.00
   -2    8   17     -0.28      0.00
    0    8   17      0.40      0.00
    2    8   17      0.12      0.00
    4    8   17     -1.76      0.00
    6    8   17      2.00      0.00
    8    8   17      8.08      0.00
   10    8   17      1.23      0.00
   12    8   17    -14.51      0.00
   14    8   17    -18.75      0.00
  -25    9   17     13.81      0.00
  -23    9   17      7.56      0.00
  -21    9   17      2.05      0.00
  -19    9   17      3.65      0.00
  -17    9   17      5.62      0.00
  -15    9   17      3.22      0.00
  -13    9   17     -1.96      0.00
  -11    9   17     -3.44      0.00
   -9    9   17     -0.84      0.00
   -7    9   17     -0.71      0.00
   -5    9   17     -1.11      0.00
   -3    9   17     -1.68      0.00
   -1    9   17     -4.72      0.00
    1    9   17     -1.91      0.00
    3    9   17      5.83      0.00
    5    9   17      4.91      0.00
    7    9   17     -3.05      0.00
    9    9   17     -3.58      0.00
   11    9   17      7.81      0.00
   13    9   17     20.11      0.00
  -24   10   17     -6.18      0.00
  -22   10   17     -0.54      0.00
  -20   10   17      7.05      0.00
  -18   10   17      7.48      0.00
  -16   10   17      1.70      0.00
  -14   10   17     -2.52      0.00
  -12   10   17      2.01      0.00
  -10   10   17      6.19      0.00
   -8   10   17     -2.46      0.00
   -6   10   17    -11.39      0.00
   -4   10   17     -7.69      0.00
   -2   10   17     -0.33      0.00
    0   10   17      0.96      0.00
    2   10   17     -3.69      0.00
    4   10   17     -8.62      0.00
    6   10   17     -9.44      0.00
    8   10   17     -6.46      0.00
   10   10   17     -3.27      0.00
   12   10   17     -6.70      0.00
  -23   11   17     -3.09      0.00
  -21   11   17     -4.98      0.00
  -19   11   17     -8.94      0.00
  -17   11   17     -7.19      0.00
  -15   11   17      0.89      0.00
  -13   11   17      4.39      0.00
  -11   11   17     -1.83      0.00
   -9   11   17     -3.10      0.00
   -7   11   17      7.82      0.00
   -5   11   17     13.06      0.00
   -3   11   17      7.33      0.00
   -1   11   17      3.40      0.00
    1   11   17      2.17      0.00
    3   11   17      2.75      0.00
    5   11   17      8.64      0.00
    7   11   17     11.09      0.00
    9   11   17      3.34      0.00
   11   11   17     -1.99      0.00
  -22   12   17     -0.70      0.00
  -20   12   17     -3.65      0.00
  -18   12   17     -0.33      0.00
  -16   12   17      0.62      0.00
  -14   12   17     -1.34      0.00
  -12   12   17     -2.28      0.00
  -10   12   17     -1.99      0.00
   -8   12   17     -1.61      0.00
   -6   12   17     -4.93      0.00
   -4   12   17     -8.45      0.00
   -2   12   17     -6.14      0.00
    0   12   17     -1.44      0.00
    2   12   17      1.16      0.00
    4   12   17     -0.42      0.00
    6   12   17     -2.59      0.00
    8   12   17      0.95      0.00
   10   12   17      4.19      0.00
  -21   13   17      8.50      0.00
  -19   13   17      7.43      0.00
  -17   13   17      3.33      0.00
  -15   13   17      0.39      0.00
  -13   13   17      1.08      0.00
  -11   13   17      3.94      0.00
   -9   13   17      1.88      0.00
   -7   13   17     -3.63      0.00
   -5   13   17     -2.58      0.00
   -3   13   17      1.45      0.00
   -1   13   17      0.81      0.00
    1   13   17     -0.45      0.00
    3   13   17      0.72      0.00
    5   13   17      1.58      0.00
    7   13   17      2.67      0.00
    9   13   17      6.40      0.00
  -20   14   17     -1.42      0.00
  -18   14   17     -3.67      0.00
  -16   14   17     -6.36      0.00
  -14   14   17     -8.99      0.00
  -12   14   17    -10.50      0.00
  -10   14   17     -6.49      0.00
   -8   14   17     -0.08      0.00
   -6   14   17      5.20      0.00
   -4   14   17      6.79      0.00
   -2   14   17      3.91      0.00
    0   14   17      2.89      0.00
    2   14   17      5.63      0.00
    4   14   17      7.20      0.00
    6   14   17      2.01      0.00
    8   14   17     -9.92      0.00
  -19   15   17     -7.06      0.00
  -17   15   17      3.26      0.00
  -15   15   17     12.35      0.00
  -13   15   17     15.23      0.00
  -11   15   17     11.58      0.00
   -9   15   17      5.07      0.00
   -7   15   17     -3.27      0.00
   -5   15   17    -11.10      0.00
   -3   15   17    -11.20      0.00
   -1   15   17     -6.61      0.00
    1   15   17     -5.75      0.00
    3   15   17     -6.89      0.00
    5   15   17     -2.54      0.00
    7   15   17      9.53      0.00
  -16   16   17    -10.35      0.00
  -14   16   17    -11.76      0.00
  -12   16   17     -6.36      0.00
  -10   16   17     -4.27      0.00
   -8   16   17      0.73      0.00
   -6   16   17     10.55      0.00
   -4   16   17     16.17      0.00
   -2   16   17     16.30      0.00
    0   16   17     11.20      0.00
    2   16   17      1.97      0.00
    4   16   17     -6.40      0.00
  -15   17   17     11.55      0.00
  -13   17   17      1.37      0.00
  -11   17   17     -3.92      0.00
   -9   17   17      0.82      0.00
   -7   17   17      5.60      0.00
   -5   17   17      3.04      0.00
   -3   17   17     -5.24      0.00
   -1   17   17     -7.07      0.00
    1   17   17      2.30      0.00
    3   17   17     11.63      0.00
  -12   18   17      3.51      0.00
  -10   18   17      5.70      0.00
   -8   18   17     -3.70      0.00
   -6   18   17    -11.45      0.00
   -4   18   17     -4.36      0.00
   -2   18   17      2.81      0.00
    0   18   17     -1.44      0.00
  -28    0   18      1.36      0.00
  -26    0   18      7.45      0.00
  -24    0   18      6.19      0.00
  -22    0   18      1.60      0.00
  -20    0   18      0.50      0.00
  -18    0   18      5.59      0.00
  -16    0   18      5.81      0.00
  -14    0   18     -1.41      0.00
  -12    0   18     -2.09      0.00
  -10    0   18     -3.19      0.00
   -8    0   18    -12.26      0.00
   -6    0   18    -12.00      0.00
   -4    0   18     -0.80      0.00
   -2    0   18      4.75      0.00
    0    0   18      0.19      0.00
    2    0   18     -2.92      0.00
    4    0   18      2.23      0.00
    6    0   18     -2.36      0.00
    8    0   18    -18.44      0.00
   10    0   18    -17.56      0.00
   12    0   18     -1.25      0.00
   14    0   18      9.83      0.00
  -27    1   18     -1.19      0.00
  -25    1   18     -4.52      0.00
  -23    1   18     -4.32      0.00
  -21    1   18     -2.98      0.00
  -19    1   18     -3.79      0.00
  -17    1   18     -5.69      0.00
  -15    1   18     -5.40      0.00
  -13    1   18     -3.98      0.00
  -11    1   18     -2.18      0.00
   -9    1   18      2.46      0.00
   -7    1   18      6.33      0.00
   -5    1   18      3.40      0.00
   -3    1   18     -1.01      0.00
   -1    1   18      1.38      0.00
    1    1   18      4.95      0.00
    3    1   18      1.09      0.00
    5    1   18     -2.17      0.00
    7    1   18      4.59      0.00
    9    1   18     10.40      0.00
   11    1   18      4.29      0.00
   13    1   18     -4.61      0.00
   15    1   18     -5.83      0.00
  -26    2   18      0.15      0.00
  -24    2   18      3.63      0.00
  -22    2   18      3.10      0.00
  -20    2   18      1.11      0.00
  -18    2   18     -1.20      0.00
  -16    2   18      1.98      0.00
  -14    2   18      9.91      0.00
  -12    2   18      9.23      0.00
  -10    2   18      3.99      0.00
   -8    2   18      3.53      0.00
   -6    2   18      2.53      0.00
   -4    2   18      0.24      0.00
   -2    2   18     -3.48      0.00
    0    2   18     -7.65      0.00
    2    2   18     -4.99      0.00
    4    2   18      0.26      0.00
    6    2   18      3.40      0.00
    8    2   18      4.64      0.00
   10    2   18      1.28      0.00
   12    2   18     -0.19      0.00
   14    2   18     -0.46      0.00
  -27    3   18      3.24      0.00
  -25    3   18     -2.02      0.00
  -23    3   18     -1.06      0.00
  -21    3   18      1.03      0.00
  -19    3   18      1.09      0.00
  -17    3   18      0.12      0.00
  -15    3   18     -3.41      0.00
  -13    3   18     -6.41      0.00
  -11    3   18     -3.40      0.00
   -9    3   18      2.19      0.00
   -7    3   18      4.74      0.00
   -5    3   18      4.81      0.00
   -3    3   18      5.18      0.00
   -1    3   18      7.23      0.00
    1    3   18      9.36      0.00
    3    3   18      8.29      0.00
    5    3   18      2.37      0.00
    7    3   18     -3.76      0.00
    9    3   18     -2.16      0.00
   11    3   18      2.07      0.00
   13    3   18     -0.54      0.00
   15    3   18     -2.55      0.00
  -26    4   18     -7.26      0.00
  -24    4   18     -6.00      0.00
  -22    4   18     -4.14      0.00
  -20    4   18      1.01      0.00
  -18    4   18      5.33      0.00
  -16    4   18      3.10      0.00
  -14    4   18     -0.94      0.00
  -12    4   18      1.55      0.00
  -10    4   18      1.08      0.00
   -8    4   18     -6.36      0.00
   -6    4   18     -7.60      0.00
   -4    4   18     -3.09      0.00
   -2    4   18     -0.02      0.00
    0    4   18     -0.47      0.00
    2    4   18     -5.17      0.00
    4    4   18     -5.32      0.00
    6    4   18     -0.70      0.00
    8    4   18     -2.17      0.00
   10    4   18     -4.82      0.00
   12    4   18     -0.42      0.00
   14    4   18      7.15      0.00
  -27    5   18     11.50      0.00
  -25    5   18     12.70      0.00
  -23    5   18      7.34      0.00
  -21    5   18      0.53      0.00
  -19    5   18     -3.00      0.00
  -17    5   18     -2.41      0.00
  -15    5   18     -1.43      0.00
  -13    5   18     -4.01      0.00
  -11    5   18     -7.07      0.00
   -9    5   18     -4.98      0.00
   -7    5   18     -1.61      0.00
   -5    5   18     -2.41      0.00
   -3    5   18     -3.51      0.00
   -1    5   18     -2.30      0.00
    1    5   18     -1.47      0.00
    3    5   18     -1.62      0.00
    5    5   18      0.00      0.00
    7    5   18      5.29      0.00
    9    5   18      9.52      0.00
   11    5   18      8.51      0.00
   13    5   18      4.63      0.00
  -26    6   18    -12.49      0.00
  -24    6   18     -6.72      0.00
  -22    6   18      1.70      0.00
  -20    6   18      2.29      0.00
  -18    6   18     -1.45      0.00
  -16    6   18      1.29      0.00
  -14    6   18      9.33      0.00
  -12    6   18      7.83      0.00
  -10    6   18     -0.74      0.00
   -8    6   18     -2.55      0.00
   -6    6   18      1.05      0.00
   -4    6   18      2.68      0.00
   -2    6   18     -0.88      0.00
    0    6   18     -2.85      0.00
    2    6   18      4.05      0.00
    4    6   18      7.18      0.00
    6    6   18     -0.15      0.00
    8    6   18     -5.63      0.00
   10    6   18     -8.82      0.00
   12    6   18    -14.91      0.00
   14    6   18    -16.09      0.00
  -25    7   18      2.84      0.00
  -23    7   18     -2.33      0.00
  -21    7   18     -3.37      0.00
  -19    7   18      1.58      0.00
  -17    7   18      3.42      0.00
  -15    7   18     -2.54      0.00
  -13    7   18     -7.09      0.00
  -11    7   18     -0.18      0.00
   -9    7   18      8.33      0.00
   -7    7   18      4.69      0.00
   -5    7   18     -3.06      0.00
   -3    7   18     -2.74      0.00
   -1    7   18      1.38      0.00
    1    7   18      0.65      0.00
    3    7   18     -1.95      0.00
    5    7   18     -0.73      0.00
    7    7   18     -0.42      0.00
    9    7   18     -1.08      0.00
   11    7   18      4.34      0.00
   13    7   18      9.59      0.00
  -24    8   18      2.91      0.00
  -22    8   18     -1.93      0.00
  -20    8   18     -3.22      0.00
  -18    8   18     -3.66      0.00
  -16    8   18     -4.82      0.00
  -14    8   18     -4.57      0.00
  -12    8   18      0.13      0.00
  -10    8   18      2.12      0.00
   -8    8   18     -0.66      0.00
   -6    8   18     -0.38      0.00
   -4    8   18      0.26      0.00
   -2    8   18     -0.95      0.00
    0    8   18     -1.78      0.00
    2    8   18     -6.08      0.00
    4    8   18     -9.08      0.00
    6    8   18     -4.49      0.00
    8    8   18     -0.08      0.00
   10    8   18      0.14      0.00
   12    8   18      2.04      0.00
  -25    9   18     -4.94      0.00
  -23    9   18      5.66      0.00
  -21    9   18      6.96      0.00
  -19    9   18     -0.86      0.00
  -17    9   18     -5.06      0.00
  -15    9   18     -0.63      0.00
  -13    9   18      3.57      0.00
  -11    9   18     -3.08      0.00
   -9    9   18    -10.78      0.00
   -7    9   18     -5.73      0.00
   -5    9   18      2.58      0.00
   -3    9   18      2.77      0.00
   -1    9   18      0.14      0.00
    1    9   18      1.86      0.00
    3    9   18      5.30      0.00
    5    9   18      5.29      0.00
    7    9   18      5.04      0.00
    9    9   18      5.34      0.00
   11    9   18      0.11      0.00
  -24   10   18     -0.65      0.00
  -22   10   18     -3.21      0.00
  -20   10   18      0.30      0.00
  -18   10   18      8.07      0.00
  -16   10   18     12.02      0.00
  -14   10   18      7.44      0.00
  -12   10   18      0.68      0.00
  -10   10   18      3.94      0.00
   -8   10   18      9.28      0.00
   -6   10   18      3.12      0.00
   -4   10   18     -3.49      0.00
   -2   10   18     -2.09      0.00
    0   10   18     -0.04      0.00
    2   10   18      0.93      0.00
    4   10   18     -0.63      0.00
    6   10   18     -6.14      0.00
    8   10   18     -6.62      0.00
   10   10   18      1.63      0.00
  -23   11   18     -8.05      0.00
  -21   11   18     -1.85      0.00
  -19   11   18      4.38      0.00
  -17   11   18     -0.63      0.00
  -15   11   18     -9.71      0.00
  -13   11   18     -7.98      0.00
  -11   11   18      4.19      0.00
   -9   11   18      8.43      0.00
   -7   11   18      1.69      0.00
   -5   11   18      0.95      0.00
   -3   11   18      4.43      0.00
   -1   11   18     -0.80      0.00
    1   11   18     -8.92      0.00
    3   11   18     -7.77      0.00
    5   11   18      0.24      0.00
    7   11   18      0.75      0.00
    9   11   18     -8.70      0.00
  -22   12   18      3.53      0.00
  -20   12   18    -10.98      0.00
  -18   12   18    -14.82      0.00
  -16   12   18     -0.22      0.00
  -14   12   18     13.19      0.00
  -12   12   18      6.77      0.00
  -10   12   18     -8.13      0.00
   -8   12   18     -7.65      0.00
   -6   12   18      2.45      0.00
   -4   12   18      2.18      0.00
   -2   12   18      0.48      0.00
    0   12   18      7.58      0.00
    2   12   18      7.72      0.00
    4   12   18     -2.82      0.00
    6   12   18     -5.87      0.00
    8   12   18      1.29      0.00
  -21   13   18     13.51      0.00
  -19   13   18     19.20      0.00
  -17   13   18     11.16      0.00
  -15   13   18     -3.94      0.00
  -13   13   18     -7.50      0.00
  -11   13   18     -1.86      0.00
   -9   13   18     -1.54      0.00
   -7   13   18     -6.44      0.00
   -5   13   18     -8.93      0.00
   -3   13   18     -6.56      0.00
   -1   13   18     -4.19      0.00
    1   13   18     -3.53      0.00
    3   13   18     -0.67      0.00
    5   13   18      0.36      0.00
    7   13   18     -1.95      0.00
  -18   14   18    -10.52      0.00
  -16   14   18     -4.90      0.00
  -14   14   18     -2.72      0.00
  -12   14   18     -1.32      0.00
  -10   14   18      3.89      0.00
   -8   14   18      6.67      0.00
   -6   14   18      4.95      0.00
   -4   14   18      3.79      0.00
   -2   14   18      1.57      0.00
    0   14   18     -1.52      0.00
    2   14   18      0.67      0.00
    4   14   18      8.89      0.00
    6   14   18     14.96      0.00
  -17   15   18      4.13      0.00
  -15   15   18      7.32      0.00
  -13   15   18      4.84      0.00
  -11   15   18     -3.38      0.00
   -9   15   18     -6.56      0.00
   -7   15   18     -4.81      0.00
   -5   15   18     -3.20      0.00
   -3   15   18     -3.55      0.00
   -1   15   18     -3.33      0.00
    1   15   18     -0.32      0.00
    3   15   18     -1.67      0.00
    5   15   18     -8.95      0.00
  -14   16   18     -9.88      0.00
  -12   16   18     -3.86      0.00
  -10   16   18      2.16      0.00
   -8   16   18      1.70      0.00
   -6   16   18     -2.26      0.00
   -4   16   18     -2.19      0.00
   -2   16   18      1.63      0.00
    0   16   18     -1.77      0.00
    2   16   18     -8.83      0.00
  -11   17   18      9.33      0.00
   -9   17   18      4.85      0.00
   -7   17   18      5.30      0.00
   -5   17   18      4.25      0.00
   -3   17   18     -2.70      0.00
   -1   17   18     -0.88      0.00
  -27    1   19      9.44      0.00
  -25    1   19      5.14      0.00
  -23    1   19     -3.75      0.00
  -21    1   19     -8.88      0.00
  -19    1   19     -7.77      0.00
  -17    1   19     -1.86      0.00
  -15    1   19     -0.74      0.00
  -13    1   19     -2.77      0.00
  -11    1   19      2.23      0.00
   -9    1   19      3.41      0.00
   -7    1   19     -1.62      0.00
   -5    1   19      1.68      0.00
   -3    1   19      8.51      0.00
   -1    1   19      8.23      0.00
    1    1   19      1.05      0.00
    3    1   19     -3.28      0.00
    5    1   19      3.20      0.00
    7    1   19      4.83      0.00
    9    1   19     -4.82      0.00
   11    1   19     -9.19      0.00
   13    1   19     -7.69      0.00
  -26    2   19     -8.30      0.00
  -24    2   19      2.53      0.00
  -22    2   19      8.28      0.00
  -20    2   19      6.44      0.00
  -18    2   19      2.87      0.00
  -16    2   19      1.74      0.00
  -14    2   19      1.48      0.00
  -12    2   19     -1.17      0.00
  -10    2   19     -2.28      0.00
   -8    2   19      1.92      0.00
   -6    2   19      3.26      0.00
   -4    2   19     -3.62      0.00
   -2    2   19     -8.07      0.00
    0    2   19     -1.96      0.00
    2    2   19      4.11      0.00
    4    2   19     -1.02      0.00
    6    2   19     -7.36      0.00
    8    2   19     -3.10      0.00
   10    2   19      3.33      0.00
   12    2   19      3.78      0.00
  -25    3   19      0.85      0.00
  -23    3   19     -2.67      0.00
  -21    3   19     -0.57      0.00
  -19    3   19      0.66      0.00
  -17    3   19     -3.67      0.00
  -15    3   19     -2.70      0.00
  -13    3   19      5.68      0.00
  -11    3   19      6.61      0.00
   -9    3   19      1.65      0.00
   -7    3   19     -0.56      0.00
   -5    3   19      0.48      0.00
   -3    3   19      3.47      0.00
   -1    3   19     -1.04      0.00
    1    3   19     -9.23      0.00
    3    3   19     -5.52      0.00
    5    3   19      2.56      0.00
    7    3   19      4.79      0.00
    9    3   19      3.69      0.00
   11    3   19      0.89      0.00
   13    3   19      0.87      0.00
  -26    4   19     -0.81      0.00
  -24    4   19     -3.19      0.00
  -22    4   19     -5.55      0.00
  -20    4   19     -6.50      0.00
  -18    4   19     -3.46      0.00
  -16    4   19     -1.24      0.00
  -14    4   19     -5.53      0.00
  -12    4   19     -9.99      0.00
  -10    4   19     -6.98      0.00
   -8    4   19     -0.70      0.00
   -6    4   19      1.73      0.00
   -4    4   19      0.41      0.00
   -2    4   19      1.76      0.00
    0    4   19      7.75      0.00
    2    4   19     10.05      0.00
    4    4   19      4.78      0.00
    6    4   19     -1.60      0.00
    8    4   19     -3.53      0.00
   10    4   19     -1.31      0.00
   12    4   19     -1.57      0.00
  -25    5   19      0.81      0.00
  -23    5   19      2.95      0.00
  -21    5   19      3.18      0.00
  -19    5   19      2.25      0.00
  -17    5   19      2.13      0.00
  -15    5   19      1.24      0.00
  -13    5   19      0.54      0.00
  -11    5   19      4.48      0.00
   -9    5   19      5.47      0.00
   -7    5   19      1.66      0.00
   -5    5   19      0.95      0.00
   -3    5   19      0.84      0.00
   -1    5   19      0.76      0.00
    1    5   19      1.18      0.00
    3    5   19     -1.21      0.00
    5    5   19     -1.11      0.00
    7    5   19      0.15      0.00
    9    5   19     -1.58      0.00
   11    5   19      3.17      0.00
   13    5   19     13.77      0.00
  -24    6   19      1.24      0.00
  -22    6   19     -0.28      0.00
  -20    6   19      1.87      0.00
  -18    6   19      4.87      0.00
  -16    6   19      5.67      0.00
  -14    6   19      5.01      0.00
  -12    6   19      2.92      0.00
  -10    6   19     -1.74      0.00
   -8    6   19     -5.14      0.00
   -6    6   19     -3.76      0.00
   -4    6   19     -0.10      0.00
   -2    6   19      0.91      0.00
    0    6   19     -2.27      0.00
    2    6   19     -4.15      0.00
    4    6   19     -0.57      0.00
    6    6   19      5.81      0.00
    8    6   19      8.89      0.00
   10    6   19      0.72      0.00
   12    6   19    -14.77      0.00
  -25    7   19     -8.57      0.00
  -23    7   19     -0.03      0.00
  -21    7   19      2.94      0.00
  -19    7   19     -3.13      0.00
  -17    7   19     -8.93      0.00
  -15    7   19     -5.41      0.00
  -13    7   19      1.08      0.00
  -11    7   19     -1.02      0.00
   -9    7   19     -3.13      0.00
   -7    7   19      0.58      0.00
   -5    7   19      1.49      0.00
   -3    7   19      0.89      0.00
   -1    7   19      2.82      0.00
    1    7   19      6.56      0.00
    3    7   19      8.36      0.00
    5    7   19      0.15      0.00
    7    7   19     -9.14      0.00
    9    7   19     -2.82      0.00
   11    7   19     10.36      0.00
  -24    8   19      0.44      0.00
  -22    8   19     -9.87      0.00
  -20    8   19     -8.69      0.00
  -18    8   19      0.46      0.00
  -16    8   19      3.55      0.00
  -14    8   19     -2.82      0.00
  -12    8   19     -6.78      0.00
  -10    8   19     -0.95      0.00
   -8    8   19      2.55      0.00
   -6    8   19     -2.76      0.00
   -4    8   19     -5.97      0.00
   -2    8   19     -4.89      0.00
    0    8   19     -7.09      0.00
    2    8   19     -9.53      0.00
    4    8   19     -3.38      0.00
    6    8   19      4.52      0.00
    8    8   19     -0.40      0.00
   10    8   19    -10.34      0.00
  -23    9   19      6.62      0.00
  -21    9   19      9.55      0.00
  -19    9   19      6.36      0.00
  -17    9   19      0.82      0.00
  -15    9   19     -1.81      0.00
  -13    9   19     -0.20      0.00
  -11    9   19      3.05      0.00
   -9    9   19      1.72      0.00
   -7    9   19      0.61      0.00
   -5    9   19      3.60      0.00
   -3    9   19      3.51      0.00
   -1    9   19      5.12      0.00
    1    9   19     10.21      0.00
    3    9   19      6.39      0.00
    5    9   19      0.49      0.00
    7    9   19      5.83      0.00
    9    9   19     11.38      0.00
  -22   10   19      8.09      0.00
  -20   10   19      3.94      0.00
  -18   10   19     -1.95      0.00
  -16   10   19     -2.24      0.00
  -14   10   19      2.20      0.00
  -12   10   19      4.22      0.00
  -10   10   19     -0.78      0.00
   -8   10   19     -4.14      0.00
   -6   10   19     -0.98      0.00
   -4   10   19      0.41      0.00
   -2   10   19     -2.92      0.00
    0   10   19     -5.03      0.00
    2   10   19     -1.69      0.00
    4   10   19      1.98      0.00
    6   10   19     -0.59      0.00
    8   10   19     -2.14      0.00
  -21   11   19    -19.13      0.00
  -19   11   19     -7.49      0.00
  -17   11   19      2.12      0.00
  -15   11   19      1.94      0.00
  -13   11   19     -4.07      0.00
  -11   11   19     -6.51      0.00
   -9   11   19     -0.94      0.00
   -7   11   19      1.90      0.00
   -5   11   19     -1.20      0.00
   -3   11   19      0.36      0.00
   -1   11   19      1.54      0.00
    1   11   19     -4.23      0.00
    3   11   19     -6.06      0.00
    5   11   19     -2.46      0.00
    7   11   19     -4.08      0.00
  -20   12   19     13.59      0.00
  -18   12   19      5.88      0.00
  -16   12   19      0.74      0.00
  -14   12   19      1.28      0.00
  -12   12   19      5.53      0.00
  -10   12   19     10.19      0.00
   -8   12   19      9.09      0.00
   -6   12   19      3.82      0.00
   -4   12   19      1.70      0.00
   -2   12   19      1.40      0.00
    0   12   19      0.21      0.00
    2   12   19     -3.03      0.00
    4   12   19     -7.85      0.00
    6   12   19     -7.56      0.00
  -19   13   19    -10.91      0.00
  -17   13   19     -5.07      0.00
  -15   13   19      2.20      0.00
  -13   13   19      2.84      0.00
  -11   13   19     -4.80      0.00
   -9   13   19    -10.62      0.00
   -7   13   19     -4.75      0.00
   -5   13   19      3.45      0.00
   -3   13   19      3.34      0.00
   -1   13   19      3.68      0.00
    1   13   19      9.90      0.00
    3   13   19     13.88      0.00
    5   13   19     11.99      0.00
  -16   14   19     -2.81      0.00
  -14   14   19     -6.93      0.00
  -12   14   19      1.93      0.00
  -10   14   19      8.95      0.00
   -8   14   19      4.29      0.00
   -6   14   19     -3.09      0.00
   -4   14   19     -5.77      0.00
   -2   14   19     -4.05      0.00
    0   14   19     -2.99      0.00
    2   14   19     -5.42      0.00
    4   14   19     -7.20      0.00
  -15   15   19      9.45      0.00
  -13   15   19      3.83      0.00
  -11   15   19     -3.47      0.00
   -9   15   19     -2.61      0.00
   -7   15   19      0.67      0.00
   -5   15   19      2.68      0.00
   -3   15   19      1.92      0.00
   -1   15   19     -4.45      0.00
    1   15   19     -9.05      0.00
  -12   16   19     -1.37      0.00
  -10   16   19     -3.08      0.00
   -8   16   19     -2.60      0.00
   -6   16   19     -6.39      0.00
   -4   16   19    -10.43      0.00
   -2   16   19     -6.18      0.00
  -26    0   20     -4.80      0.00
  -24    0   20      1.16      0.00
  -22    0   20      2.50      0.00
  -20    0   20     -0.19      0.00
  -18    0   20     -1.36      0.00
  -16    0   20     -2.68      0.00
  -14    0   20     -1.79      0.00
  -12    0   20     -1.47      0.00
  -10    0   20     -4.59      0.00
   -8    0   20     -2.80      0.00
   -6    0   20     -2.38      0.00
   -4    0   20     -6.98      0.00
   -2    0   20     -4.04      0.00
    0    0   20      1.30      0.00
    2    0   20      2.50      0.00
    4    0   20      4.82      0.00
    6    0   20      8.41      0.00
    8    0   20     12.33      0.00
   10    0   20      7.12      0.00
   12    0   20     -7.85      0.00
  -25    1   20      1.11      0.00
  -23    1   20     -2.25      0.00
  -21    1   20      1.39      0.00
  -19    1   20      5.77      0.00
  -17    1   20      4.89      0.00
  -15    1   20      2.43      0.00
  -13    1   20      3.42      0.00
  -11    1   20      4.98      0.00
   -9    1   20      2.58      0.00
   -7    1   20     -0.01      0.00
   -5    1   20      1.21      0.00
   -3    1   20      1.51      0.00
   -1    1   20     -1.09      0.00
    1    1   20     -1.17      0.00
    3    1   20      0.70      0.00
    5    1   20     -2.69      0.00
    7    1   20    -10.63      0.00
    9    1   20    -11.72      0.00
   11    1   20     -1.63      0.00
  -26    2   20      1.48      0.00
  -24    2   20      5.23      0.00
  -22    2   20      3.40      0.00
  -20    2   20     -2.22      0.00
  -18    2   20     -2.52      0.00
  -16    2   20      4.27      0.00
  -14    2   20      3.07      0.00
  -12    2   20     -4.22      0.00
  -10    2   20     -2.76      0.00
   -8    2   20      0.11      0.00
   -6    2   20     -0.09      0.00
   -4    2   20      0.89      0.00
   -2    2   20     -0.87      0.00
    0    2   20     -3.18      0.00
    2    2   20     -5.03      0.00
    4    2   20     -4.69      0.00
    6    2   20      3.63      0.00
    8    2   20      8.82      0.00
   10    2   20      5.73      0.00
   12    2   20      3.77      0.00
  -25    3   20     -4.89      0.00
  -23    3   20     -3.86      0.00
  -21    3   20     -2.48      0.00
  -19    3   20     -3.25      0.00
  -17    3   20     -6.50      0.00
  -15    3   20     -6.92      0.00
  -13    3   20     -2.69      0.00
  -11    3   20      0.29      0.00
   -9    3   20      0.25      0.00
   -7    3   20     -0.46      0.00
   -5    3   20     -1.25      0.00
   -3    3   20      0.70      0.00
   -1    3   20      5.60      0.00
    1    3   20      7.40      0.00
    3    3   20      3.49      0.00
    5    3   20     -1.14      0.00
    7    3   20     -0.60      0.00
    9    3   20      0.78      0.00
   11    3   20     -4.50      0.00
  -24    4   20     -2.51      0.00
  -22    4   20     -2.33      0.00
  -20    4   20      0.61      0.00
  -18    4   20      1.09      0.00
  -16    4   20     -3.45      0.00
  -14    4   20     -2.67      0.00
  -12    4   20      2.86      0.00
  -10    4   20      1.10      0.00
   -8    4   20     -1.87      0.00
   -6    4   20     -0.55      0.00
   -4    4   20      0.37      0.00
   -2    4   20     -0.44      0.00
    0    4   20     -4.81      0.00
    2    4   20     -5.56      0.00
    4    4   20     -0.32      0.00
    6    4   20     -2.26      0.00
    8    4   20     -5.81      0.00
   10    4   20      0.57      0.00
  -25    5   20      3.96      0.00
  -23    5   20      5.89      0.00
  -21    5   20      4.66      0.00
  -19    5   20      4.58      0.00
  -17    5   20      9.64      0.00
  -15    5   20     12.02      0.00
  -13    5   20      5.55      0.00
  -11    5   20      0.13      0.00
   -9    5   20      3.60      0.00
   -7    5   20      7.64      0.00
   -5    5   20      4.35      0.00
   -3    5   20     -2.58      0.00
   -1    5   20     -5.19      0.00
    1    5   20     -2.72      0.00
    3    5   20     -0.26      0.00
    5    5   20      1.67      0.00
    7    5   20      2.07      0.00
    9    5   20     -1.51      0.00
   11    5   20     -4.08      0.00
  -24    6   20      1.95      0.00
  -22    6   20     -0.18      0.00
  -20    6   20     -0.40      0.00
  -18    6   20     -2.12      0.00
  -16    6   20     -3.78      0.00
  -14    6   20     -3.67      0.00
  -12    6   20     -0.96      0.00
  -10    6   20      3.16      0.00
   -8    6   20      1.45      0.00
   -6    6   20     -0.69      0.00
   -4    6   20      3.24      0.00
   -2    6   20      5.77      0.00
    0    6   20      6.18      0.00
    2    6   20      3.88      0.00
    4    6   20     -2.70      0.00
    6    6   20     -3.70      0.00
    8    6   20     -0.42      0.00
   10    6   20     -1.60      0.00
  -23    7   20     -6.13      0.00
  -21    7   20     -5.99      0.00
  -19    7   20     -6.30      0.00
  -17    7   20     -6.02      0.00
  -15    7   20     -6.00      0.00
  -13    7   20     -6.03      0.00
  -11    7   20     -5.78      0.00
   -9    7   20     -6.35      0.00
   -7    7   20     -6.33      0.00
   -5    7   20     -4.87      0.00
   -3    7   20     -3.03      0.00
   -1    7   20     -2.02      0.00
    1    7   20     -2.05      0.00
    3    7   20     -1.39      0.00
    5    7   20     -0.32      0.00
    7    7   20      2.28      0.00
    9    7   20      7.85      0.00
  -22    8   20      1.40      0.00
  -20    8   20      1.56      0.00
  -18    8   20      0.96      0.00
  -16    8   20      2.67      0.00
  -14    8   20      8.59      0.00
  -12    8   20     10.07      0.00
  -10    8   20      1.52      0.00
   -8    8   20     -3.12      0.00
   -6    8   20      0.19      0.00
   -4    8   20      2.74      0.00
   -2    8   20      3.50      0.00
    0    8   20      1.85      0.00
    2    8   20      2.39      0.00
    4    8   20      7.80      0.00
    6    8   20      5.16      0.00
    8    8   20     -5.42      0.00
  -21    9   20      0.44      0.00
  -19    9   20      2.46      0.00
  -17    9   20      1.85      0.00
  -15    9   20     -5.36      0.00
  -13    9   20    -12.13      0.00
  -11    9   20     -7.00      0.00
   -9    9   20      6.50      0.00
   -7    9   20      8.62      0.00
   -5    9   20     -2.37      0.00
   -3    9   20     -7.38      0.00
   -1    9   20     -1.12      0.00
    1    9   20      2.90      0.00
    3    9   20     -1.72      0.00
    5    9   20     -3.76      0.00
    7    9   20      0.72      0.00
  -20   10   20      3.04      0.00
  -18   10   20      1.65      0.00
  -16   10   20      5.01      0.00
  -14   10   20      8.84      0.00
  -12   10   20      6.77      0.00
  -10   10   20     -1.05      0.00
   -8   10   20     -8.27      0.00
   -6   10   20     -2.78      0.00
   -4   10   20      7.68      0.00
   -2   10   20      5.06      0.00
    0   10   20      0.07      0.00
    2   10   20      4.26      0.00
    4   10   20      6.16      0.00
    6   10   20      4.47      0.00
  -19   11   20     -5.74      0.00
  -17   11   20     -7.18      0.00
  -15   11   20     -7.74      0.00
  -13   11   20     -4.07      0.00
  -11   11   20      1.06      0.00
   -9   11   20      1.71      0.00
   -7   11   20     -0.06      0.00
   -5   11   20     -2.47      0.00
   -3   11   20     -5.43      0.00
   -1   11   20     -7.72      0.00
    1   11   20    -10.58      0.00
    3   11   20    -11.43      0.00
    5   11   20     -8.82      0.00
  -18   12   20      2.53      0.00
  -16   12   20     -1.13      0.00
  -14   12   20     -6.34      0.00
  -12   12   20     -8.97      0.00
  -10   12   20     -5.32      0.00
   -8   12   20      2.49      0.00
   -6   12   20      4.47      0.00
   -4   12   20      3.21      0.00
   -2   12   20      7.52      0.00
    0   12   20     11.01      0.00
    2   12   20      9.61      0.00
    4   12   20      9.48      0.00
  -17   13   20      8.44      0.00
  -15   13   20     14.84      0.00
  -13   13   20     12.68      0.00
  -11   13   20      3.38      0.00
   -9   13   20     -4.07      0.00
   -7   13   20     -8.29      0.00
   -5   13   20     -9.09      0.00
   -3   13   20     -5.15      0.00
   -1   13   20     -0.06      0.00
    1   13   20      3.33      0.00
    3   13   20      3.14      0.00
  -14   14   20     -5.67      0.00
  -12   14   20      4.86      0.00
  -10   14   20      8.48      0.00
   -8   14   20      8.37      0.00
   -6   14   20     13.09      0.00
   -4   14   20     13.87      0.00
   -2   14   20      4.76      0.00
    0   14   20     -3.41      0.00
  -11   15   20     -5.09      0.00
   -9   15   20      3.83      0.00
   -7   15   20      2.23      0.00
   -5   15   20     -3.55      0.00
   -3   15   20     -5.56      0.00
  -23    1   21     -3.76      0.00
  -21    1   21     -3.15      0.00
  -19    1   21     -1.04      0.00
  -17    1   21     -0.37      0.00
  -15    1   21     -4.19      0.00
  -13    1   21     -2.12      0.00
  -11    1   21      2.29      0.00
   -9    1   21      1.05      0.00
   -7    1   21      2.39      0.00
   -5    1   21      3.56      0.00
   -3    1   21      0.94      0.00
   -1    1   21      0.00      0.00
    1    1   21     -0.51      0.00
    3    1   21      3.05      0.00
    5    1   21      7.20      0.00
    7    1   21      3.24      0.00
    9    1   21      1.31      0.00
  -24    2   21      0.62      0.00
  -22    2   21      0.17      0.00
  -20    2   21      2.56      0.00
  -18    2   21      3.38      0.00
  -16    2   21      3.11      0.00
  -14    2   21      1.75      0.00
  -12    2   21     -1.28      0.00
  -10    2   21     -3.13      0.00
   -8    2   21     -2.95      0.00
   -6    2   21     -2.64      0.00
   -4    2   21     -2.96      0.00
   -2    2   21     -3.22      0.00
    0    2   21     -2.43      0.00
    2    2   21     -1.62      0.00
    4    2   21     -0.11      0.00
    6    2   21      4.69      0.00
    8    2   21      7.96      0.00
   10    2   21      4.97      0.00
  -23    3   21     10.12      0.00
  -21    3   21      6.01      0.00
  -19    3   21      0.82      0.00
  -17    3   21      2.11      0.00
  -15    3   21      8.04      0.00
  -13    3   21      6.77      0.00
  -11    3   21      3.19      0.00
   -9    3   21      4.81      0.00
   -7    3   21      3.72      0.00
   -5    3   21      3.66      0.00
   -3    3   21      6.74      0.00
   -1    3   21      5.36      0.00
    1    3   21      3.80      0.00
    3    3   21      0.30      0.00
    5    3   21     -8.86      0.00
    7    3   21    -15.61      0.00
    9    3   21    -17.75      0.00
  -24    4   21     -7.97      0.00
  -22    4   21     -5.14      0.00
  -20    4   21     -0.55      0.00
  -18    4   21     -0.33      0.00
  -16    4   21     -4.57      0.00
  -14    4   21     -5.55      0.00
  -12    4   21     -2.66      0.00
  -10    4   21     -3.18      0.00
   -8    4   21     -7.33      0.00
   -6    4   21    -11.67      0.00
   -4    4   21    -14.59      0.00
   -2    4   21    -12.46      0.00
    0    4   21     -6.71      0.00
    2    4   21     -2.50      0.00
    4    4   21      1.24      0.00
    6    4   21      7.94      0.00
    8    4   21     16.39      0.00
  -23    5   21     -0.46      0.00
  -21    5   21     -0.34      0.00
  -19    5   21     -0.55      0.00
  -17    5   21     -3.72      0.00
  -15    5   21     -8.87      0.00
  -13    5   21     -7.52      0.00
  -11    5   21     -2.33      0.00
   -9    5   21      0.35      0.00
   -7    5   21      6.43      0.00
   -5    5   21     12.01      0.00
   -3    5   21     11.38      0.00
   -1    5   21      7.90      0.00
    1    5   21      1.22      0.00
    3    5   21     -2.55      0.00
    5    5   21     -1.91      0.00
    7    5   21     -5.97      0.00
    9    5   21     -8.88      0.00
  -22    6   21     -0.68      0.00
  -20    6   21     -4.87      0.00
  -18    6   21      0.58      0.00
  -16    6   21     12.18      0.00
  -14    6   21     16.05      0.00
  -12    6   21     10.78      0.00
  -10    6   21      6.91      0.00
   -8    6   21      5.52      0.00
   -6    6   21      1.02      0.00
   -4    6   21     -3.83      0.00
   -2    6   21     -4.83      0.00
    0    6   21     -2.40      0.00
    2    6   21      1.35      0.00
    4    6   21      4.51      0.00
    6    6   21      5.85      0.00
    8    6   21      2.37      0.00
  -21    7   21      5.34      0.00
  -19    7   21      7.09      0.00
  -17    7   21      0.35      0.00
  -15    7   21     -4.17      0.00
  -13    7   21     -4.45      0.00
  -11    7   21     -4.77      0.00
   -9    7   21     -4.16      0.00
   -7    7   21     -2.23      0.00
   -5    7   21      3.25      0.00
   -3    7   21      6.36      0.00
   -1    7   21      2.39      0.00
    1    7   21      0.46      0.00
    3    7   21     -2.70      0.00
    5    7   21    -10.88      0.00
    7    7   21     -9.87      0.00
  -22    8   21      0.97      0.00
  -20    8   21      0.31      0.00
  -18    8   21      0.58      0.00
  -16    8   21      1.82      0.00
  -14    8   21      0.37      0.00
  -12    8   21      0.48      0.00
  -10    8   21      3.73      0.00
   -8    8   21      3.31      0.00
   -6    8   21     -1.35      0.00
   -4    8   21     -3.50      0.00
   -2    8   21     -1.51      0.00
    0    8   21     -1.80      0.00
    2    8   21     -4.39      0.00
    4    8   21     -2.27      0.00
    6    8   21      1.38      0.00
  -21    9   21     -1.44      0.00
  -19    9   21     -5.22      0.00
  -17    9   21     -7.59      0.00
  -15    9   21     -6.52      0.00
  -13    9   21     -0.29      0.00
  -11    9   21      1.14      0.00
   -9    9   21     -4.66      0.00
   -7    9   21     -5.66      0.00
   -5    9   21     -5.08      0.00
   -3    9   21     -7.51      0.00
   -1    9   21     -5.90      0.00
    1    9   21     -1.73      0.00
    3    9   21      3.54      0.00
    5    9   21      9.23      0.00
  -20   10   21     -4.25      0.00
  -18   10   21      3.53      0.00
  -16   10   21      7.99      0.00
  -14   10   21      5.60      0.00
  -12   10   21      0.25      0.00
  -10   10   21      1.23      0.00
   -8   10   21      7.02      0.00
   -6   10   21      7.28      0.00
   -4   10   21      4.33      0.00
   -2   10   21      5.32      0.00
    0   10   21      7.55      0.00
    2   10   21      4.18      0.00
    4   10   21     -3.83      0.00
  -17   11   21     -5.74      0.00
  -15   11   21     -6.89      0.00
  -13   11   21     -4.70      0.00
  -11   11   21     -2.47      0.00
   -9   11   21     -1.53      0.00
   -7   11   21     -1.79      0.00
   -5   11   21      1.80      0.00
   -3   11   21      3.49      0.00
   -1   11   21     -2.02      0.00
    1   11   21     -2.69      0.00
    3   11   21      2.36      0.00
  -16   12   21      4.67      0.00
  -14   12   21     -0.50      0.00
  -12   12   21     -1.72      0.00
  -10   12   21     -3.01      0.00
   -8   12   21     -7.66      0.00
   -6   12   21     -7.54      0.00
   -4   12   21     -2.27      0.00
   -2   12   21     -0.02      0.00
    0   12   21     -3.83      0.00
    2   12   21     -7.89      0.00
  -13   13   21      1.90      0.00
  -11   13   21     -1.30      0.00
   -9   13   21      1.44      0.00
   -7   13   21      4.35      0.00
   -5   13   21     -2.94      0.00
   -3   13   21     -7.84      0.00
   -1   13   21      0.88      0.00
  -10   14   21      1.08      0.00
   -8   14   21     -0.96      0.00
   -6   14   21      2.09      0.00
   -4   14   21      5.78      0.00
  -22    0   22     -9.03      0.00
  -20    0   22      0.90      0.00
  -18    0   22      1.89      0.00
  -16    0   22     -2.82      0.00
  -14    0   22     -3.68      0.00
  -12    0   22     -6.55      0.00
  -10    0   22     -7.25      0.00
   -8    0   22     -3.05      0.00
   -6    0   22     -2.83      0.00
   -4    0   22     -3.35      0.00
   -2    0   22     -4.33      0.00
    0    0   22     -6.11      0.00
    2    0   22     -3.23      0.00
    4    0   22     -3.80      0.00
    6    0   22     -7.01      0.00
    8    0   22     -4.31      0.00
  -23    1   22      8.83      0.00
  -21    1   22      2.48      0.00
  -19    1   22     -4.88      0.00
  -17    1   22     -4.87      0.00
  -15    1   22     -0.14      0.00
  -13    1   22      4.21      0.00
  -11    1   22      6.82      0.00
   -9    1   22      6.81      0.00
   -7    1   22      3.58      0.00
   -5    1   22     -1.17      0.00
   -3    1   22     -3.93      0.00
   -1    1   22     -3.35      0.00
    1    1   22     -1.45      0.00
    3    1   22      0.98      0.00
    5    1   22      3.32      0.00
    7    1   22      3.73      0.00
  -22    2   22     -6.28      0.00
  -20    2   22     -2.68      0.00
  -18    2   22      3.97      0.00
  -16    2   22      2.36      0.00
  -14    2   22     -6.69      0.00
  -12    2   22     -8.92      0.00
  -10    2   22     -8.28      0.00
   -8    2   22     -7.78      0.00
   -6    2   22      0.62      0.00
   -4    2   22      9.04      0.00
   -2    2   22     13.31      0.00
    0    2   22     14.24      0.00
    2    2   22      6.49      0.00
    4    2   22     -0.83      0.00
    6    2   22     -2.53      0.00
    8    2   22     -4.08      0.00
  -23    3   22      1.04      0.00
  -21    3   22      4.13      0.00
  -19    3   22      1.59      0.00
  -17    3   22      0.19      0.00
  -15    3   22      5.75      0.00
  -13    3   22     10.51      0.00
  -11    3   22      8.88      0.00
   -9    3   22      5.37      0.00
   -7    3   22      2.94      0.00
   -5    3   22      1.47      0.00
   -3    3   22     -1.11      0.00
   -1    3   22     -5.96      0.00
    1    3   22     -7.39      0.00
    3    3   22     -2.27      0.00
    5    3   22      4.28      0.00
    7    3   22      6.82      0.00
  -22    4   22      1.59      0.00
  -20    4   22     -2.06      0.00
  -18    4   22     -4.03      0.00
  -16    4   22     -4.58      0.00
  -14    4   22     -4.84      0.00
  -12    4   22     -7.07      0.00
  -10    4   22     -4.18      0.00
   -8    4   22      0.99      0.00
   -6    4   22     -3.31      0.00
   -4    4   22     -8.43      0.00
   -2    4   22     -7.69      0.00
    0    4   22     -3.73      0.00
    2    4   22      4.17      0.00
    4    4   22      6.15      0.00
    6    4   22      0.51      0.00
  -21    5   22     -2.21      0.00
  -19    5   22      4.53      0.00
  -17    5   22      5.59      0.00
  -15    5   22      2.36      0.00
  -13    5   22      1.61      0.00
  -11    5   22      1.25      0.00
   -9    5   22     -2.38      0.00
   -7    5   22     -3.65      0.00
   -5    5   22      0.06      0.00
   -3    5   22      4.71      0.00
   -1    5   22      6.69      0.00
    1    5   22      0.94      0.00
    3    5   22     -9.86      0.00
    5    5   22    -13.35      0.00
  -20    6   22      4.07      0.00
  -18    6   22     -0.34      0.00
  -16    6   22     -2.12      0.00
  -14    6   22     -3.31      0.00
  -12    6   22     -1.81      0.00
  -10    6   22     -0.90      0.00
   -8    6   22     -1.27      0.00
   -6    6   22      2.25      0.00
   -4    6   22      1.98      0.00
   -2    6   22     -2.99      0.00
    0    6   22     -2.82      0.00
    2    6   22      3.18      0.00
    4    6   22     11.51      0.00
    6    6   22     10.99      0.00
  -21    7   22     -3.12      0.00
  -19    7   22     -6.14      0.00
  -17    7   22     -4.69      0.00
  -15    7   22     -4.10      0.00
  -13    7   22     -4.85      0.00
  -11    7   22     -2.29      0.00
   -9    7   22      3.68      0.00
   -7    7   22      4.72      0.00
   -5    7   22     -0.05      0.00
   -3    7   22     -1.09      0.00
   -1    7   22      2.38      0.00
    1    7   22      2.42      0.00
    3    7   22     -2.81      0.00
    5    7   22     -4.58      0.00
  -20    8   22     -3.26      0.00
  -18    8   22      1.43      0.00
  -16    8   22      7.98      0.00
  -14    8   22     16.09      0.00
  -12    8   22     13.11      0.00
  -10    8   22      1.57      0.00
   -8    8   22     -5.12      0.00
   -6    8   22     -4.53      0.00
   -4    8   22      0.25      0.00
   -2    8   22      0.71      0.00
    0    8   22     -2.20      0.00
    2    8   22      1.47      0.00
    4    8   22      2.33      0.00
  -19    9   22     13.86      0.00
  -17    9   22      9.12      0.00
  -15    9   22     -1.21      0.00
  -13    9   22     -6.95      0.00
  -11    9   22     -1.59      0.00
   -9    9   22      4.09      0.00
   -7    9   22      2.64      0.00
   -5    9   22      1.55      0.00
   -3    9   22      4.51      0.00
   -1    9   22      4.98      0.00
    1    9   22     -0.47      0.00
    3    9   22     -2.46      0.00
  -16   10   22     -9.42      0.00
  -14   10   22     -3.37      0.00
  -12   10   22      1.20      0.00
  -10   10   22      2.67      0.00
   -8   10   22      4.35      0.00
   -6   10   22      4.67      0.00
   -4   10   22     -4.59      0.00
   -2   10   22    -12.27      0.00
    0   10   22     -8.56      0.00
    2   10   22     -7.97      0.00
  -15   11   22     -0.40      0.00
  -13   11   22     -2.05      0.00
  -11   11   22     -4.44      0.00
   -9   11   22     -5.72      0.00
   -7   11   22     -3.07      0.00
   -5   11   22      2.03      0.00
   -3   11   22      6.13      0.00
   -1   11   22      7.04      0.00
  -12   12   22      8.66      0.00
  -10   12   22      7.95      0.00
   -8   12   22      5.66      0.00
   -6   12   22      0.07      0.00
   -4   12   22     -1.22      0.00
   -2   12   22     -0.93      0.00
  -21    1   23     -5.05      0.00
  -19    1   23     -7.73      0.00
  -17    1   23    -16.15      0.00
  -15    1   23    -15.81      0.00
  -13    1   23     -4.05      0.00
  -11    1   23      4.73      0.00
   -9    1   23     11.44      0.00
   -7    1   23     14.23      0.00
   -5    1   23      8.83      0.00
   -3    1   23      5.56      0.00
   -1    1   23      2.40      0.00
    1    1   23     -3.22      0.00
    3    1   23     -4.08      0.00
    5    1   23     -3.88      0.00
  -20    2   23     -0.52      0.00
  -18    2   23      8.49      0.00
  -16    2   23     15.84      0.00
  -14    2   23      9.13      0.00
  -12    2   23     -3.38      0.00
  -10    2   23     -8.03      0.00
   -8    2   23     -3.72      0.00
   -6    2   23      1.33      0.00
   -4    2   23     -0.16      0.00
   -2    2   23     -3.78      0.00
    0    2   23     -0.70      0.00
    2    2   23      5.51      0.00
    4    2   23      5.22      0.00
  -21    3   23      5.95      0.00
  -19    3   23      1.97      0.00
  -17    3   23     -5.92      0.00
  -15    3   23     -9.48      0.00
  -13    3   23     -3.50      0.00
  -11    3   23      5.13      0.00
   -9    3   23     -1.51      0.00
   -7    3   23    -13.54      0.00
   -5    3   23    -10.01      0.00
   -3    3   23     -0.52      0.00
   -1    3   23      2.84      0.00
    1    3   23     -0.77      0.00
    3    3   23     -5.11      0.00
    5    3   23      1.35      0.00
  -20    4   23     -1.19      0.00
  -18    4   23      0.49      0.00
  -16    4   23      6.42      0.00
  -14    4   23      8.64      0.00
  -12    4   23      2.12      0.00
  -10    4   23     -1.31      0.00
   -8    4   23      4.34      0.00
   -6    4   23      6.21      0.00
   -4    4   23     -0.08      0.00
   -2    4   23     -4.22      0.00
    0    4   23     -1.85      0.00
    2    4   23      1.28      0.00
    4    4   23     -0.48      0.00
  -19    5   23     -6.31      0.00
  -17    5   23     -6.95      0.00
  -15    5   23     -8.59      0.00
  -13    5   23     -5.67      0.00
  -11    5   23     -1.32      0.00
   -9    5   23      3.07      0.00
   -7    5   23      3.89      0.00
   -5    5   23      0.93      0.00
   -3    5   23      2.28      0.00
   -1    5   23      2.35      0.00
    1    5   23     -0.25      0.00
    3    5   23      2.81      0.00
  -18    6   23     -1.71      0.00
  -16    6   23     -1.82      0.00
  -14    6   23      0.02      0.00
  -12    6   23      1.45      0.00
  -10    6   23     -1.11      0.00
   -8    6   23     -2.58      0.00
   -6    6   23      3.41      0.00
   -4    6   23      9.25      0.00
   -2    6   23      7.75      0.00
    0    6   23      3.56      0.00
    2    6   23     -0.28      0.00
  -17    7   23     12.97      0.00
  -15    7   23      5.24      0.00
  -13    7   23     -4.86      0.00
  -11    7   23     -6.19      0.00
   -9    7   23     -4.83      0.00
   -7    7   23     -8.45      0.00
   -5    7   23    -11.47      0.00
   -3    7   23     -9.94      0.00
   -1    7   23     -1.16      0.00
    1    7   23      6.78      0.00
  -16    8   23     -5.85      0.00
  -14    8   23      0.51      0.00
  -12    8   23      1.40      0.00
  -10    8   23     -0.65      0.00
   -8    8   23      1.22      0.00
   -6    8   23      3.88      0.00
   -4    8   23      0.08      0.00
   -2    8   23     -9.87      0.00
    0    8   23    -17.30      0.00
  -15    9   23     -5.84      0.00
  -13    9   23      1.16      0.00
  -11    9   23      4.09      0.00
   -9    9   23      2.22      0.00
   -7    9   23      0.01      0.00
   -5    9   23      0.75      0.00
   -3    9   23      8.91      0.00
   -1    9   23     15.99      0.00
  -14   10   23      4.49      0.00
  -12   10   23      0.68      0.00
  -10   10   23      3.64      0.00
   -8   10   23      4.25      0.00
   -6   10   23     -0.31      0.00
   -4   10   23     -1.94      0.00
   -2   10   23      1.02      0.00
  -11   11   23     -2.22      0.00
   -9   11   23     -4.00      0.00
   -7   11   23      1.61      0.00
   -5   11   23      6.92      0.00
  -18    0   24      3.80      0.00
  -16    0   24     17.81      0.00
  -14    0   24     12.57      0.00
  -12    0   24     -2.06      0.00
  -10    0   24     -3.66      0.00
   -8    0   24     -1.57      0.00
   -6    0   24     -2.89      0.00
   -4    0   24     -2.70      0.00
   -2    0   24     -2.10      0.00
    0    0   24      0.24      0.00
    2    0   24     -1.25      0.00
  -19    1   24      4.18      0.00
  -17    1   24     -8.93      0.00
  -15    1   24    -12.08      0.00
  -13    1   24     -1.56      0.00
  -11    1   24      5.54      0.00
   -9    1   24      0.63      0.00
   -7    1   24     -5.60      0.00
   -5    1   24     -4.47      0.00
   -3    1   24     -0.35      0.00
   -1    1   24      0.56      0.00
    1    1   24     -0.02      0.00
  -18    2   24      1.84      0.00
  -16    2   24      5.55      0.00
  -14    2   24      4.14      0.00
  -12    2   24      1.60      0.00
  -10    2   24      2.27      0.00
   -8    2   24     11.27      0.00
   -6    2   24     13.95      0.00
   -4    2   24      4.61      0.00
   -2    2   24     -0.38      0.00
    0    2   24     -0.01      0.00
    2    2   24      2.51      0.00
  -17    3   24      3.56      0.00
  -15    3   24      0.14      0.00
  -13    3   24     -8.30      0.00
  -11    3   24    -15.21      0.00
   -9    3   24    -16.14      0.00
   -7    3   24    -10.60      0.00
   -5    3   24     -1.54      0.00
   -3    3   24      3.09      0.00
   -1    3   24      1.33      0.00
    1    3   24     -2.07      0.00
  -18    4   24     -7.93      0.00
  -16    4   24     -6.51      0.00
  -14    4   24      2.38      0.00
  -12    4   24     15.70      0.00
  -10    4   24     21.07      0.00
   -8    4   24      7.57      0.00
   -6    4   24     -6.40      0.00
   -4    4   24     -5.87      0.00
   -2    4   24     -3.14      0.00
    0    4   24     -2.25      0.00
  -17    5   24     10.03      0.00
  -15    5   24      8.58      0.00
  -13    5   24      0.61      0.00
  -11    5   24     -7.14      0.00
   -9    5   24     -1.21      0.00
   -7    5   24     10.41      0.00
   -5    5   24      9.09      0.00
   -3    5   24      0.69      0.00
   -1    5   24     -0.29      0.00
    1    5   24      3.33      0.00
  -16    6   24     -8.44      0.00
  -14    6   24     -4.76      0.00
  -12    6   24      1.77      0.00
  -10    6   24      2.00      0.00
   -8    6   24     -0.09      0.00
   -6    6   24     -0.45      0.00
   -4    6   24      0.28      0.00
   -2    6   24      1.22      0.00
    0    6   24     -3.27      0.00
  -15    7   24     -2.94      0.00
  -13    7   24     -5.13      0.00
  -11    7   24     -5.50      0.00
   -9    7   24     -8.32      0.00
   -7    7   24    -11.84      0.00
   -5    7   24     -8.54      0.00
   -3    7   24     -0.35      0.00
   -1    7   24      6.67      0.00
  -12    8   24     -2.12      0.00
  -10    8   24     -0.38      0.00
   -8    8   24      5.86      0.00
   -6    8   24      9.21      0.00
   -4    8   24      6.18      0.00
   -9    9   24     -0.20      0.00
   -7    9   24     -4.68      0.00
  -15    1   25      4.60      0.00
  -13    1   25     -0.63      0.00
  -11    1   25     -1.49      0.00
   -9    1   25      4.09      0.00
   -7    1   25      2.76      0.00
   -5    1   25      0.56      0.00
   -3    1   25      2.35      0.00
  -14    2   25     -5.30      0.00
  -12    2   25      4.95      0.00
  -10    2   25      6.09      0.00
   -8    2   25      0.55      0.00
   -6    2   25     -2.86      0.00
   -4    2   25     -2.48      0.00
   -2    2   25      0.77      0.00
  -15    3   25      9.91      0.00
  -13    3   25      0.36      0.00
  -11    3   25     -8.75      0.00
   -9    3   25     -8.35      0.00
   -7    3   25      2.25      0.00
   -5    3   25      4.16      0.00
   -3    3   25     -3.80      0.00
  -14    4   25     -3.33      0.00
  -12    4   25     -1.11      0.00
  -10    4   25     -0.29      0.00
   -8    4   25     -5.52      0.00
   -6    4   25     -7.65      0.00
   -4    4   25     -0.61      0.00
  -13    5   25      5.67      0.00
  -11    5   25      7.13      0.00
   -9    5   25      5.16      0.00
   -7    5   25     -2.15      0.00
   -5    5   25     -6.14      0.00
  -10    6   25      2.89      0.00
   -8    6   25     16.68      0.00
    6    0    0    -38.14      0.00
    1    1    0   -422.65      0.00
   31    1    0     -3.07      0.00
    0    2    0   -100.58      0.00
   31    3    0     -1.94      0.00
   31    5    0     -7.40      0.00
   30    6    0      6.41      0.00
   31    7    0     -7.11      0.00
   30    8    0      1.30      0.00
   29    9    0     -8.37      0.00
   28   10    0     13.94      0.00
   30   10    0      9.28      0.00
   29   11    0     -5.15      0.00
   28   12    0      1.34      0.00
   27   13    0     -1.95      0.00
   26   14    0      0.06      0.00
   28   14    0     -0.45      0.00
   25   15    0     -7.06      0.00
   27   15    0     -3.38      0.00
   24   16    0      5.41      0.00
   26   16    0      3.02      0.00
   23   17    0     -5.58      0.00
   25   17    0     -0.65      0.00
   22   18    0     11.60      0.00
   24   18    0      4.63      0.00
   21   19    0     -2.13      0.00
   23   19    0     -1.13      0.00
   18   20    0     -5.03      0.00
   20   20    0     -2.69      0.00
   17   21    0     10.70      0.00
   19   21    0      2.18      0.00
   14   22    0      1.94      0.00
   16   22    0     -6.94      0.00
   18   22    0     -9.47      0.00
   13   23    0     -6.62      0.00
   15   23    0     -6.37      0.00
    8   24    0     -4.04      0.00
   10   24    0     -3.67      0.00
   12   24    0      2.37      0.00
   14   24    0      7.05      0.00
  -31    1    1      5.57      0.00
   -1    1    1     12.33      0.00
    1    1    1    108.34      0.00
   31    1    1     -3.36      0.00
   30    2    1     -1.15      0.00
  -31    3    1     -8.29      0.00
   -1    3    1     28.84      0.00
   31    3    1     -1.07      0.00
   30    4    1      6.61      0.00
  -31    5    1      7.30      0.00
   -3    5    1    -39.08      0.00
   31    5    1     -2.12      0.00
  -30    6    1      0.28      0.00
   30    6    1     -8.00      0.00
  -31    7    1     -2.55      0.00
   29    7    1      7.63      0.00
   31    7    1      6.83      0.00
  -30    8    1     -1.29      0.00
   30    8    1     -3.19      0.00
  -31    9    1     -3.49      0.00
  -29    9    1    -10.06      0.00
   29    9    1     -3.07      0.00
  -30   10    1     10.77      0.00
   28   10    1     -0.53      0.00
   30   10    1      1.89      0.00
  -29   11    1     -7.57      0.00
   27   11    1     -4.62      0.00
   29   11    1     -3.19      0.00
  -28   12    1     -5.01      0.00
   28   12    1      6.53      0.00
  -29   13    1      9.87      0.00
  -27   13    1     13.25      0.00
   27   13    1      2.54      0.00
  -28   14    1     -2.99      0.00
  -26   14    1      3.21      0.00
   26   14    1     -2.51      0.00
  -27   15    1     -7.77      0.00
  -25   15    1    -15.67      0.00
   25   15    1      2.55      0.00
  -26   16    1      1.52      0.00
  -24   16    1      0.42      0.00
   24   16    1     -4.43      0.00
  -25   17    1      3.43      0.00
  -23   17    1      4.78      0.00
   23   17    1     -5.33      0.00
   25   17    1     -1.83      0.00
  -24   18    1      2.53      0.00
  -22   18    1      0.86      0.00
   22   18    1      3.46      0.00
  -23   19    1     -2.24      0.00
  -21   19    1      0.17      0.00
   19   19    1      3.98      0.00
   21   19    1      1.14      0.00
  -22   20    1      4.29      0.00
  -20   20    1      5.25      0.00
   18   20    1     -6.96      0.00
   20   20    1      1.83      0.00
  -19   21    1      3.15      0.00
  -17   21    1      8.16      0.00
   17   21    1      1.02      0.00
   19   21    1     -0.89      0.00
  -18   22    1     -8.95      0.00
  -16   22    1     -7.42      0.00
   14   22    1     -8.54      0.00
   16   22    1     -4.28      0.00
   18   22    1     -2.02      0.00
  -17   23    1     -6.43      0.00
  -15   23    1     -4.18      0.00
  -13   23    1      1.31      0.00
   11   23    1     10.75      0.00
   13   23    1      9.61      0.00
   15   23    1      7.11      0.00
  -14   24    1     -2.98      0.00
  -12   24    1     -5.03      0.00
  -10   24    1     -1.16      0.00
   -8   24    1      1.19      0.00
    8   24    1      0.49      0.00
   10   24    1     -1.69      0.00
   12   24    1     -1.31      0.00
   14   24    1     -1.47      0.00
   30    0    2     10.50      0.00
  -31    1    2      1.09      0.00
   -5    1    2     -1.36      0.00
   31    1    2     -4.44      0.00
   -6    2    2     17.86      0.00
   -4    2    2    -50.27      0.00
   30    2    2     -1.25      0.00
  -31    3    2      9.20      0.00
   31    3    2      3.73      0.00
   -6    4    2    -40.49      0.00
   30    4    2     -6.90      0.00
  -31    5    2      6.37      0.00
   29    5    2     11.40      0.00
   31    5    2      6.72      0.00
   30    6    2     -6.83      0.00
  -31    7    2     -0.86      0.00
   29    7    2      6.25      0.00
  -30    8    2     -2.30      0.00
   28    8    2    -14.55      0.00
   30    8    2     -3.76      0.00
  -31    9    2      5.60      0.00
  -29    9    2     10.10      0.00
   29    9    2      7.77      0.00
  -30   10    2     -9.67      0.00
   28   10    2      7.26      0.00
  -29   11    2      4.10      0.00
   27   11    2    -21.16      0.00
   29   11    2    -12.48      0.00
  -28   12    2      2.00      0.00
   26   12    2     18.92      0.00
   28   12    2     13.50      0.00
  -29   13    2     -0.94      0.00
  -27   13    2     -5.80      0.00
   27   13    2    -10.25      0.00
  -28   14    2      5.18      0.00
  -26   14    2      2.87      0.00
   26   14    2      2.97      0.00
  -27   15    2      0.84      0.00
  -25   15    2      8.21      0.00
   25   15    2      7.61      0.00
  -26   16    2     -6.07      0.00
  -24   16    2     -9.81      0.00
   24   16    2      1.39      0.00
  -25   17    2      1.76      0.00
  -23   17    2      1.82      0.00
   23   17    2     -5.16      0.00
  -24   18    2      0.10      0.00
  -22   18    2     -3.22      0.00
   22   18    2     -3.31      0.00
  -23   19    2     -1.32      0.00
  -21   19    2     -3.45      0.00
   19   19    2      2.25      0.00
   21   19    2      1.65      0.00
  -22   20    2      9.65      0.00
  -20   20    2     16.98      0.00
   18   20    2     11.13      0.00
   20   20    2      5.10      0.00
  -21   21    2     -4.75      0.00
  -19   21    2     -4.67      0.00
  -17   21    2      5.03      0.00
   17   21    2    -11.59      0.00
   19   21    2     -4.90      0.00
  -18   22    2      5.50      0.00
  -16   22    2      2.98      0.00
   14   22    2      8.94      0.00
   16   22    2      5.50      0.00
  -17   23    2     -9.30      0.00
  -15   23    2     -7.14      0.00
  -13   23    2     -2.37      0.00
   11   23    2      4.30      0.00
   13   23    2     -2.68      0.00
   15   23    2     -3.92      0.00
  -14   24    2      0.85      0.00
  -12   24    2     -0.15      0.00
  -10   24    2     -3.34      0.00
   -8   24    2     -6.59      0.00
    8   24    2      2.17      0.00
   10   24    2     -6.10      0.00
   12   24    2     -6.79      0.00
   31    1    3     -1.86      0.00
   30    2    3      6.05      0.00
  -31    3    3     -1.04      0.00
   29    3    3     -4.41      0.00
   31    3    3     -5.98      0.00
   30    4    3      0.29      0.00
  -31    5    3     -0.49      0.00
   29    5    3      0.55      0.00
   31    5    3      0.89      0.00
   30    6    3      0.56      0.00
  -31    7    3     -2.19      0.00
   29    7    3     -2.58      0.00
  -30    8    3      5.93      0.00
   28    8    3     19.09      0.00
   30    8    3      2.62      0.00
  -31    9    3     -1.75      0.00
   29    9    3    -15.20      0.00
  -30   10    3     -2.88      0.00
   28   10    3     11.87      0.00
  -29   11    3      4.84      0.00
   27   11    3     -1.09      0.00
  -30   12    3      3.19      0.00
  -28   12    3      6.20      0.00
   26   12    3      1.59      0.00
   28   12    3     -0.11      0.00
  -29   13    3    -11.13      0.00
  -27   13    3    -12.66      0.00
   25   13    3     -4.06      0.00
   27   13    3     -3.81      0.00
  -28   14    3      4.11      0.00
  -26   14    3      0.81      0.00
   24   14    3      1.66      0.00
   26   14    3     -3.36      0.00
  -27   15    3      5.05      0.00
  -25   15    3      3.61      0.00
   23   15    3      0.04      0.00
   25   15    3      4.90      0.00
  -26   16    3     -3.71      0.00
  -24   16    3      2.13      0.00
   22   16    3      7.33      0.00
   24   16    3      0.86      0.00
  -25   17    3      2.76      0.00
  -23   17    3     -1.06      0.00
   21   17    3    -10.90      0.00
   23   17    3     -0.82      0.00
  -24   18    3     -2.91      0.00
  -22   18    3     -1.64      0.00
   20   18    3      8.71      0.00
   22   18    3      3.19      0.00
  -23   19    3     -4.33      0.00
  -21   19    3     -4.81      0.00
   19   19    3     -5.09      0.00
   21   19    3     -1.48      0.00
  -22   20    3      1.27      0.00
  -20   20    3     -5.02      0.00
   18   20    3     -2.41      0.00
   20   20    3     -3.55      0.00
  -21   21    3      8.05      0.00
  -19   21    3      9.54      0.00
  -17   21    3      1.28      0.00
   15   21    3     -7.54      0.00
   17   21    3      0.77      0.00
   19   21    3      3.49      0.00
  -18   22    3     15.54      0.00
  -16   22    3     30.95      0.00
   14   22    3     11.45      0.00
   16   22    3      6.71      0.00
  -17   23    3    -15.22      0.00
  -15   23    3    -15.40      0.00
  -13   23    3      0.59      0.00
   11   23    3     -3.31      0.00
   13   23    3     -2.43      0.00
   15   23    3     -1.49      0.00
  -14   24    3     -3.72      0.00
  -12   24    3    -14.00      0.00
  -10   24    3    -22.44      0.00
   -8   24    3    -21.85      0.00
    6   24    3      3.41      0.00
    8   24    3      6.08      0.00
   10   24    3      6.48      0.00
   12   24    3      1.54      0.00
    0    0    4     42.18      0.00
   30    0    4    -11.28      0.00
   29    1    4      9.64      0.00
   31    1    4      4.91      0.00
   -4    2    4    -84.25      0.00
   30    2    4     -0.94      0.00
   29    3    4      3.39      0.00
   30    4    4     -7.06      0.00
  -31    5    4     -3.24      0.00
   29    5    4      6.03      0.00
   28    6    4      7.85      0.00
   30    6    4      0.38      0.00
  -31    7    4      0.70      0.00
   29    7    4    -11.46      0.00
  -30    8    4      2.27      0.00
   28    8    4      3.29      0.00
  -31    9    4     -1.53      0.00
   27    9    4     13.17      0.00
   29    9    4      3.84      0.00
  -30   10    4     -5.24      0.00
   26   10    4     -1.30      0.00
   28   10    4      0.07      0.00
  -29   11    4     10.55      0.00
   27   11    4     -8.40      0.00
  -30   12    4     -1.46      0.00
  -28   12    4      2.02      0.00
   26   12    4      0.97      0.00
  -29   13    4     -6.99      0.00
  -27   13    4     -8.86      0.00
   25   13    4      4.20      0.00
  -28   14    4      5.39      0.00
  -26   14    4      7.77      0.00
   24   14    4     -7.33      0.00
   26   14    4     -3.81      0.00
  -27   15    4     -2.13      0.00
   23   15    4      3.35      0.00
   25   15    4     -1.53      0.00
  -26   16    4     -4.15      0.00
  -24   16    4    -10.73      0.00
   22   16    4      1.24      0.00
   24   16    4     -0.43      0.00
  -25   17    4     12.60      0.00
  -23   17    4     17.53      0.00
   21   17    4     -5.46      0.00
   23   17    4     -0.62      0.00
  -24   18    4     -3.94      0.00
  -22   18    4      2.02      0.00
   20   18    4      9.14      0.00
   22   18    4      4.29      0.00
  -23   19    4     -5.05      0.00
  -21   19    4    -10.00      0.00
   19   19    4      2.28      0.00
   21   19    4      1.60      0.00
  -22   20    4     -4.82      0.00
  -20   20    4    -11.55      0.00
   16   20    4      6.16      0.00
   18   20    4     -5.48      0.00
  -21   21    4      9.87      0.00
  -19   21    4     13.76      0.00
  -17   21    4      4.03      0.00
   15   21    4    -17.36      0.00
   17   21    4     -5.35      0.00
  -18   22    4     -3.22      0.00
  -16   22    4     -0.60      0.00
   12   22    4     16.75      0.00
   14   22    4     14.90      0.00
   16   22    4      6.10      0.00
  -17   23    4      0.42      0.00
  -15   23    4      3.98      0.00
  -13   23    4     -0.96      0.00
    9   23    4      0.01      0.00
   11   23    4     -7.56      0.00
   13   23    4     -7.59      0.00
  -14   24    4     -0.68      0.00
  -12   24    4      5.17      0.00
  -10   24    4     11.32      0.00
   -8   24    4     12.73      0.00
    6   24    4     -6.21      0.00
    8   24    4     -2.18      0.00
   10   24    4      0.09      0.00
   12   24    4      0.07      0.00
   29    1    5      4.87      0.00
   28    2    5     -3.87      0.00
   30    2    5     -4.61      0.00
   29    3    5      2.98      0.00
   28    4    5     -3.98      0.00
   30    4    5     -1.92      0.00
  -31    5    5      4.07      0.00
   29    5    5      3.13      0.00
   28    6    5      3.50      0.00
  -31    7    5     -0.73      0.00
   27    7    5      0.13      0.00
   29    7    5     -5.75      0.00
  -30    8    5      0.16      0.00
   28    8    5     -2.09      0.00
  -31    9    5     -2.69      0.00
   27    9    5      3.67      0.00
  -30   10    5      6.60      0.00
   26   10    5     -5.94      0.00
   28   10    5     -2.74      0.00
  -31   11    5     -6.55      0.00
  -29   11    5    -17.77      0.00
   25   11    5      0.35      0.00
   27   11    5      2.07      0.00
  -30   12    5      8.17      0.00
  -28   12    5     10.26      0.00
   26   12    5      6.57      0.00
  -29   13    5      6.59      0.00
  -27   13    5     18.34      0.00
   25   13    5     -1.46      0.00
  -28   14    5    -11.14      0.00
   24   14    5    -11.39      0.00
  -27   15    5    -12.26      0.00
   23   15    5     10.56      0.00
  -26   16    5     20.47      0.00
   22   16    5     -4.26      0.00
  -25   17    5     -9.67      0.00
  -23   17    5     -9.11      0.00
   21   17    5     -8.67      0.00
  -24   18    5      7.48      0.00
  -22   18    5      9.38      0.00
   20   18    5      6.88      0.00
  -23   19    5      2.33      0.00
  -21   19    5      7.58      0.00
   17   19    5    -10.22      0.00
   19   19    5     -1.61      0.00
  -22   20    5     -6.92      0.00
  -20   20    5    -11.18      0.00
   16   20    5      9.53      0.00
   18   20    5      4.95      0.00
  -21   21    5      2.10      0.00
  -19   21    5     -0.37      0.00
  -17   21    5      0.08      0.00
   15   21    5     -6.53      0.00
   17   21    5     -3.18      0.00
  -18   22    5     -0.80      0.00
  -16   22    5     -9.24      0.00
   12   22    5      5.34      0.00
   14   22    5      4.26      0.00
   16   22    5      0.45      0.00
  -17   23    5      1.53      0.00
  -15   23    5      7.58      0.00
  -13   23    5      9.63      0.00
    9   23    5     -8.56      0.00
   11   23    5     -8.48      0.00
   13   23    5     -3.14      0.00
  -14   24    5     -7.67      0.00
  -12   24    5     -9.56      0.00
  -10   24    5     -4.19      0.00
   -8   24    5      3.05      0.00
    4   24    5      5.61      0.00
    6   24    5      4.74      0.00
    8   24    5      9.25      0.00
   10   24    5     10.71      0.00
   28    0    6     -7.16      0.00
   29    1    6     -0.18      0.00
   28    2    6      9.82      0.00
   29    3    6    -11.33      0.00
   28    4    6      8.34      0.00
  -31    5    6     -3.52      0.00
   27    5    6      6.33      0.00
   29    5    6      2.51      0.00
   28    6    6     -8.33      0.00
  -31    7    6      6.01      0.00
   27    7    6     -0.75      0.00
  -30    8    6      0.10      0.00
   26    8    6      9.82      0.00
   28    8    6      3.13      0.00
  -31    9    6      2.50      0.00
   27    9    6     -6.25      0.00
  -30   10    6     -5.06      0.00
   26   10    6      4.03      0.00
  -31   11    6      1.01      0.00
  -29   11    6      3.35      0.00
   25   11    6      3.70      0.00
   27   11    6      0.30      0.00
  -30   12    6      0.28      0.00
  -28   12    6     -5.65      0.00
   24   12    6    -10.47      0.00
   26   12    6     -3.99      0.00
  -29   13    6     -1.54      0.00
  -27   13    6     -1.98      0.00
   23   13    6     10.68      0.00
   25   13    6      6.99      0.00
  -28   14    6     10.54      0.00
   22   14    6    -14.13      0.00
   24   14    6     -6.76      0.00
  -27   15    6    -10.97      0.00
   23   15    6     13.95      0.00
  -26   16    6    -13.17      0.00
   20   16    6     -9.18      0.00
   22   16    6     -7.56      0.00
  -25   17    6     14.25      0.00
  -23   17    6      2.69      0.00
   19   17    6     -4.57      0.00
   21   17    6     -3.00      0.00
  -24   18    6      4.17      0.00
  -22   18    6     13.46      0.00
   18   18    6      4.17      0.00
   20   18    6     -0.83      0.00
  -23   19    6     -6.84      0.00
  -21   19    6     -8.06      0.00
   17   19    6     -4.60      0.00
   19   19    6      1.02      0.00
  -22   20    6      6.64      0.00
  -20   20    6     11.59      0.00
   16   20    6      8.54      0.00
   18   20    6      0.44      0.00
  -21   21    6     -0.69      0.00
  -19   21    6     -3.82      0.00
  -17   21    6      3.16      0.00
   13   21    6    -11.41      0.00
   15   21    6     -4.58      0.00
   17   21    6     -0.15      0.00
  -18   22    6     -0.68      0.00
  -16   22    6     -6.24      0.00
   10   22    6      2.48      0.00
   12   22    6     -1.31      0.00
   14   22    6     -6.81      0.00
  -17   23    6     -1.53      0.00
  -15   23    6     -2.47      0.00
  -13   23    6     -1.55      0.00
  -11   23    6      0.51      0.00
    7   23    6      8.71      0.00
    9   23    6      3.93      0.00
   11   23    6      2.97      0.00
   13   23    6      5.30      0.00
  -14   24    6     -0.60      0.00
  -12   24    6     -4.84      0.00
  -10   24    6     -9.26      0.00
   -8   24    6    -11.08      0.00
   -6   24    6    -11.50      0.00
    2   24    6     17.10      0.00
    4   24    6      5.69      0.00
    6   24    6     -3.39      0.00
    8   24    6     -6.13      0.00
   10   24    6     -5.48      0.00
   27    1    7     -6.29      0.00
   29    1    7     -2.30      0.00
   28    2    7      5.12      0.00
   27    3    7     -3.02      0.00
   29    3    7      0.01      0.00
   28    4    7     -5.94      0.00
  -31    5    7      4.34      0.00
   27    5    7      5.06      0.00
   26    6    7      7.33      0.00
   28    6    7      2.09      0.00
  -31    7    7     -3.89      0.00
   27    7    7     -9.20      0.00
  -30    8    7      4.85      0.00
   26    8    7      5.53      0.00
  -31    9    7     -1.62      0.00
   25    9    7     -8.07      0.00
   27    9    7     -4.31      0.00
  -30   10    7      3.69      0.00
   26   10    7      1.08      0.00
  -31   11    7      0.89      0.00
  -29   11    7      2.38      0.00
   25   11    7      2.11      0.00
  -30   12    7     -6.21      0.00
  -28   12    7    -14.16      0.00
   24   12    7     -0.71      0.00
  -29   13    7     15.87      0.00
  -27   13    7     16.32      0.00
   23   13    7      4.66      0.00
   25   13    7      1.51      0.00
  -28   14    7    -11.30      0.00
   22   14    7     -3.31      0.00
   24   14    7     -1.26      0.00
  -27   15    7      7.52      0.00
   21   15    7     -3.70      0.00
   23   15    7     -1.33      0.00
  -26   16    7    -13.40      0.00
   20   16    7      9.51      0.00
   22   16    7      5.80      0.00
  -25   17    7      5.53      0.00
  -23   17    7      4.10      0.00
   19   17    7     -4.32      0.00
   21   17    7      0.70      0.00
  -24   18    7     -0.96      0.00
  -22   18    7     -8.26      0.00
   18   18    7      2.73      0.00
   20   18    7     -0.70      0.00
  -23   19    7      3.31      0.00
  -21   19    7      6.88      0.00
   17   19    7     -3.59      0.00
   19   19    7     -0.07      0.00
  -22   20    7     -3.45      0.00
  -20   20    7      1.27      0.00
   14   20    7      8.51      0.00
   16   20    7     -0.21      0.00
  -21   21    7      1.53      0.00
  -19   21    7      0.54      0.00
  -17   21    7      0.94      0.00
   13   21    7     -3.05      0.00
   15   21    7      3.60      0.00
  -18   22    7      1.23      0.00
  -16   22    7      8.30      0.00
  -14   22    7     12.03      0.00
   10   22    7     -4.80      0.00
   12   22    7     -2.87      0.00
   14   22    7     -2.50      0.00
  -17   23    7      0.57      0.00
  -15   23    7     -5.57      0.00
  -13   23    7      1.18      0.00
  -11   23    7     15.94      0.00
    7   23    7      3.29      0.00
    9   23    7      7.85      0.00
   11   23    7      9.90      0.00
  -14   24    7      2.02      0.00
  -12   24    7     -7.89      0.00
  -10   24    7    -16.09      0.00
   -8   24    7    -12.17      0.00
   -6   24    7     -3.75      0.00
   -4   24    7     -0.25      0.00
   -2   24    7      2.44      0.00
    0   24    7      6.37      0.00
    2   24    7      5.70      0.00
    4   24    7      2.31      0.00
    6   24    7      1.13      0.00
    8   24    7     -0.81      0.00
   28    0    8      2.16      0.00
   27    1    8     -1.70      0.00
   28    2    8      0.23      0.00
   27    3    8      7.07      0.00
   26    4    8     -5.50      0.00
   28    4    8     -6.36      0.00
  -31    5    8      4.92      0.00
   27    5    8     -1.30      0.00
   26    6    8      7.24      0.00
  -31    7    8     -0.99      0.00
   25    7    8     -8.88      0.00
   27    7    8     -4.50      0.00
  -30    8    8      1.82      0.00
   26    8    8      1.29      0.00
  -31    9    8     -5.94      0.00
   25    9    8      5.43      0.00
  -30   10    8      4.40      0.00
   24   10    8     -5.12      0.00
   26   10    8     -5.88      0.00
  -31   11    8     -3.69      0.00
  -29   11    8     -4.78      0.00
   23   11    8     -1.05      0.00
   25   11    8     -0.82      0.00
  -30   12    8      6.79      0.00
  -28   12    8      4.81      0.00
   24   12    8     -2.48      0.00
  -29   13    8     -3.29      0.00
  -27   13    8     -0.37      0.00
   23   13    8      1.11      0.00
  -28   14    8      0.68      0.00
  -26   14    8     -8.59      0.00
   22   14    8      1.24      0.00
  -27   15    8      3.80      0.00
  -25   15    8     19.48      0.00
   21   15    8     -3.91      0.00
  -26   16    8     -5.31      0.00
  -24   16    8     -8.06      0.00
   20   16    8      5.47      0.00
  -25   17    8      1.84      0.00
  -23   17    8     -3.22      0.00
   19   17    8     -0.72      0.00
  -24   18    8     -2.06      0.00
  -22   18    8     -4.81      0.00
   16   18    8      4.57      0.00
   18   18    8     -3.41      0.00
  -23   19    8      5.46      0.00
  -21   19    8      6.24      0.00
   15   19    8     -3.83      0.00
   17   19    8      7.74      0.00
  -22   20    8     -5.57      0.00
  -20   20    8     -6.85      0.00
  -18   20    8     -5.43      0.00
   14   20    8     10.60      0.00
   16   20    8     -1.87      0.00
  -19   21    8      3.52      0.00
  -17   21    8      1.08      0.00
   11   21    8     -0.77      0.00
   13   21    8     -4.90      0.00
   15   21    8     -3.75      0.00
  -18   22    8     -2.23      0.00
  -16   22    8     -1.75      0.00
  -14   22    8     -7.47      0.00
    8   22    8     -3.98      0.00
   10   22    8    -13.13      0.00
   12   22    8    -11.98      0.00
  -15   23    8      6.94      0.00
  -13   23    8     11.76      0.00
  -11   23    8      2.47      0.00
   -9   23    8    -10.60      0.00
    5   23    8    -15.06      0.00
    7   23    8     -8.37      0.00
    9   23    8      2.40      0.00
   11   23    8      7.88      0.00
  -14   24    8     -3.58      0.00
  -12   24    8      1.33      0.00
  -10   24    8     13.35      0.00
   -8   24    8     16.16      0.00
   -6   24    8      7.82      0.00
   -4   24    8      2.24      0.00
   -2   24    8      6.36      0.00
    0   24    8     12.00      0.00
    2   24    8     12.71      0.00
    4   24    8     12.06      0.00
    6   24    8      8.89      0.00
    8   24    8      2.73      0.00
   27    1    9     -1.37      0.00
   26    2    9      4.12      0.00
   27    3    9     -2.89      0.00
   26    4    9     -3.41      0.00
  -31    5    9     -7.12      0.00
   25    5    9      8.85      0.00
   27    5    9      4.68      0.00
   26    6    9      1.33      0.00
  -31    7    9     -0.78      0.00
   25    7    9     -4.99      0.00
  -30    8    9     -2.28      0.00
   24    8    9      3.54      0.00
   26    8    9     -2.99      0.00
  -31    9    9      3.56      0.00
   25    9    9      6.50      0.00
  -30   10    9     -2.86      0.00
   24   10    9     -1.00      0.00
  -31   11    9     -5.13      0.00
  -29   11    9     -2.00      0.00
   23   11    9      1.03      0.00
  -30   12    9      8.09      0.00
  -28   12    9      9.09      0.00
   22   12    9     -0.80      0.00
   24   12    9      2.19      0.00
  -29   13    9     -6.94      0.00
  -27   13    9    -10.45      0.00
   21   13    9      1.08      0.00
   23   13    9     -2.28      0.00
  -28   14    9      2.27      0.00
  -26   14    9      4.60      0.00
   20   14    9      4.19      0.00
   22   14    9     -0.08      0.00
  -27   15    9     -1.93      0.00
  -25   15    9     -5.90      0.00
   19   15    9    -15.34      0.00
   21   15    9     -6.80      0.00
  -26   16    9      1.60      0.00
  -24   16    9     14.55      0.00
   18   16    9      9.06      0.00
   20   16    9      5.61      0.00
  -25   17    9     -3.38      0.00
  -23   17    9     -6.56      0.00
   17   17    9     -7.43      0.00
   19   17    9     -5.65      0.00
  -24   18    9     -0.66      0.00
  -22   18    9     -8.51      0.00
   16   18    9      1.59      0.00
   18   18    9      1.25      0.00
  -23   19    9     11.10      0.00
  -21   19    9     14.20      0.00
   15   19    9      4.39      0.00
   17   19    9      4.38      0.00
  -22   20    9     -6.90      0.00
  -20   20    9     -9.96      0.00
  -18   20    9    -15.32      0.00
   12   20    9     -3.79      0.00
   14   20    9     -7.63      0.00
   16   20    9     -3.27      0.00
  -19   21    9      6.35      0.00
  -17   21    9     10.80      0.00
    9   21    9     -8.24      0.00
   11   21    9      5.08      0.00
   13   21    9     11.75      0.00
  -18   22    9     -4.49      0.00
  -16   22    9     -9.48      0.00
  -14   22    9    -17.08      0.00
    6   22    9     -6.40      0.00
    8   22    9      2.00      0.00
   10   22    9      1.30      0.00
   12   22    9     -3.76      0.00
  -15   23    9      2.49      0.00
  -13   23    9     13.00      0.00
  -11   23    9     19.92      0.00
   -9   23    9     18.88      0.00
   -7   23    9     14.72      0.00
    1   23    9    -12.23      0.00
    3   23    9     -1.44      0.00
    5   23    9      6.77      0.00
    7   23    9      5.80      0.00
    9   23    9      2.12      0.00
  -12   24    9     -8.03      0.00
  -10   24    9    -13.80      0.00
   -8   24    9    -13.47      0.00
   -6   24    9     -9.64      0.00
   -4   24    9     -5.50      0.00
   -2   24    9     -0.62      0.00
    0   24    9      3.64      0.00
    2   24    9      4.98      0.00
    4   24    9      2.86      0.00
    6   24    9     -1.36      0.00
   26    0   10     14.40      0.00
   25    1   10    -16.49      0.00
   27    1   10     -8.50      0.00
   26    2   10     10.89      0.00
   25    3   10    -10.87      0.00
   26    4   10     -1.14      0.00
  -31    5   10     -7.78      0.00
   25    5   10      4.42      0.00
   24    6   10     -9.63      0.00
   26    6   10     -2.76      0.00
  -31    7   10      3.55      0.00
   25    7   10      3.92      0.00
  -30    8   10      6.38      0.00
   24    8   10     -3.63      0.00
  -31    9   10    -10.83      0.00
   23    9   10     10.28      0.00
   25    9   10      3.66      0.00
  -30   10   10      4.31      0.00
   22   10   10    -12.74      0.00
   24   10   10     -3.73      0.00
  -31   11   10      9.15      0.00
  -29   11   10      7.97      0.00
   21   11   10     21.46      0.00
   23   11   10      8.67      0.00
  -30   12   10    -12.92      0.00
  -28   12   10     -6.67      0.00
   22   12   10     -8.23      0.00
  -29   13   10      8.04      0.00
  -27   13   10      4.11      0.00
   21   13   10      0.79      0.00
  -28   14   10     -0.38      0.00
  -26   14   10     -5.86      0.00
   20   14   10     11.59      0.00
  -27   15   10      0.21      0.00
  -25   15   10      8.84      0.00
   19   15   10     -4.16      0.00
   21   15   10     -1.61      0.00
  -26   16   10     -5.97      0.00
  -24   16   10     -9.06      0.00
   18   16   10     -6.85      0.00
   20   16   10     -7.10      0.00
  -25   17   10     -1.34      0.00
  -23   17   10      5.14      0.00
   17   17   10      5.07      0.00
   19   17   10      7.05      0.00
  -24   18   10     -1.04      0.00
  -22   18   10     -1.71      0.00
   14   18   10      6.44      0.00
   16   18   10     -1.78      0.00
  -23   19   10      1.13      0.00
  -21   19   10     -5.16      0.00
  -19   19   10     -7.58      0.00
   13   19   10     -0.93      0.00
   15   19   10     -0.96      0.00
  -22   20   10      7.29      0.00
  -20   20   10      6.67      0.00
  -18   20   10      4.69      0.00
   10   20   10     12.61      0.00
   12   20   10      0.57      0.00
   14   20   10     -3.66      0.00
  -19   21   10      4.86      0.00
  -17   21   10      1.71      0.00
  -15   21   10      1.33      0.00
    9   21   10     -5.59      0.00
   11   21   10     -2.01      0.00
   13   21   10      3.10      0.00
  -18   22   10     -2.25      0.00
  -16   22   10      3.37      0.00
  -14   22   10      2.51      0.00
  -12   22   10     -5.59      0.00
    4   22   10     -8.45      0.00
    6   22   10    -14.50      0.00
    8   22   10     -9.48      0.00
   10   22   10     -3.61      0.00
  -15   23   10     -4.41      0.00
  -13   23   10     -5.43      0.00
  -11   23   10     -4.68      0.00
   -9   23   10     -3.45      0.00
   -7   23   10     -3.56      0.00
   -5   23   10     -2.45      0.00
   -3   23   10     -2.18      0.00
   -1   23   10     -5.84      0.00
    1   23   10     -5.37      0.00
    3   23   10      3.12      0.00
    5   23   10     10.21      0.00
    7   23   10      9.38      0.00
  -12   24   10      0.52      0.00
  -10   24   10     -0.55      0.00
   -8   24   10     -4.59      0.00
   -6   24   10     -5.00      0.00
   -4   24   10     -0.79      0.00
   -2   24   10      2.47      0.00
    0   24   10      2.03      0.00
    2   24   10      1.86      0.00
    4   24   10      1.95      0.00
   25    1   11      4.83      0.00
   24    2   11     -5.15      0.00
   26    2   11     -7.13      0.00
  -31    3   11      3.71      0.00
   25    3   11      2.54      0.00
   24    4   11     -3.48      0.00
  -31    5   11    -10.01      0.00
   23    5   11     13.25      0.00
   25    5   11      6.96      0.00
   24    6   11    -10.56      0.00
  -31    7   11      0.15      0.00
   23    7   11      0.78      0.00
   25    7   11      1.49      0.00
  -30    8   11      9.58      0.00
   22    8   11     -2.62      0.00
   24    8   11     -2.33      0.00
  -31    9   11     -9.72      0.00
  -29    9   11    -10.51      0.00
   23    9   11      2.52      0.00
  -30   10   11     -2.22      0.00
   22   10   11     -8.48      0.00
  -29   11   11     13.06      0.00
   21   11   11      5.35      0.00
   23   11   11      2.67      0.00
  -30   12   11     -0.21      0.00
  -28   12   11     -8.07      0.00
   20   12   11      6.38      0.00
   22   12   11      3.24      0.00
  -29   13   11      0.69      0.00
  -27   13   11      5.10      0.00
   19   13   11     -9.58      0.00
   21   13   11     -3.64      0.00
  -28   14   11      0.38      0.00
  -26   14   11     -7.03      0.00
   18   14   11     12.31      0.00
   20   14   11      4.76      0.00
  -27   15   11      5.09      0.00
  -25   15   11     12.92      0.00
   17   15   11     -5.83      0.00
   19   15   11     -2.50      0.00
  -26   16   11     -1.29      0.00
  -24   16   11     -4.90      0.00
   16   16   11      1.79      0.00
   18   16   11      2.01      0.00
  -25   17   11     -1.72      0.00
  -23   17   11      3.98      0.00
   15   17   11      3.73      0.00
   17   17   11      5.96      0.00
  -24   18   11    -15.94      0.00
  -22   18   11    -19.79      0.00
   14   18   11     -2.79      0.00
   16   18   11     -5.34      0.00
  -23   19   11     13.21      0.00
  -21   19   11     16.63      0.00
  -19   19   11     13.42      0.00
   11   19   11     -1.01      0.00
   13   19   11     -2.81      0.00
   15   19   11     -1.54      0.00
  -20   20   11     -6.67      0.00
  -18   20   11     -1.77      0.00
   10   20   11     -4.92      0.00
   12   20   11     -1.17      0.00
  -19   21   11      0.89      0.00
  -17   21   11     -2.47      0.00
  -15   21   11     -3.21      0.00
    7   21   11     -2.12      0.00
    9   21   11      4.59      0.00
   11   21   11      6.40      0.00
  -16   22   11      2.26      0.00
  -14   22   11     -2.12      0.00
  -12   22   11      1.23      0.00
  -10   22   11      6.29      0.00
    2   22   11     -4.21      0.00
    4   22   11     -5.88      0.00
    6   22   11     -2.55      0.00
    8   22   11     -1.29      0.00
  -13   23   11      4.31      0.00
  -11   23   11      0.12      0.00
   -9   23   11     -1.64      0.00
   -7   23   11     -0.56      0.00
   -5   23   11     -0.69      0.00
   -3   23   11     -1.42      0.00
   -1   23   11      1.66      0.00
    1   23   11      9.47      0.00
    3   23   11     13.12      0.00
    5   23   11      8.61      0.00
    7   23   11      2.37      0.00
  -10   24   11      2.20      0.00
   -8   24   11      1.23      0.00
   -6   24   11      1.00      0.00
   -4   24   11      0.40      0.00
   -2   24   11     -1.78      0.00
    0   24   11     -4.51      0.00
    2   24   11     -5.61      0.00
   24    0   12      7.07      0.00
  -31    1   12     -2.37      0.00
   23    1   12     -4.22      0.00
   25    1   12     -2.67      0.00
   24    2   12     -0.26      0.00
  -31    3   12      3.72      0.00
   23    3   12      9.28      0.00
   25    3   12      1.87      0.00
   24    4   12     -5.67      0.00
  -31    5   12      1.33      0.00
   23    5   12     -0.11      0.00
  -30    6   12     -7.03      0.00
   22    6   12      5.71      0.00
   24    6   12      9.98      0.00
  -31    7   12      5.76      0.00
   23    7   12     -8.97      0.00
  -30    8   12     -2.04      0.00
   22    8   12      8.68      0.00
  -31    9   12      5.18      0.00
  -29    9   12     14.58      0.00
   21    9   12     -4.66      0.00
   23    9   12     -4.09      0.00
  -30   10   12    -19.54      0.00
   20   10   12     -7.15      0.00
   22   10   12     -1.53      0.00
  -29   11   12      9.81      0.00
   21   11   12     -0.67      0.00
  -30   12   12      3.52      0.00
  -28   12   12      4.67      0.00
   20   12   12     -3.27      0.00
  -29   13   12     -8.47      0.00
  -27   13   12     -7.86      0.00
   19   13   12     -1.11      0.00
  -28   14   12      5.51      0.00
  -26   14   12      3.12      0.00
   18   14   12      3.35      0.00
   20   14   12     -3.25      0.00
  -27   15   12      1.26      0.00
  -25   15   12     -1.62      0.00
   17   15   12     -2.25      0.00
   19   15   12      1.17      0.00
  -26   16   12      6.65      0.00
  -24   16   12     12.31      0.00
   16   16   12     -0.86      0.00
   18   16   12     -2.72      0.00
  -25   17   12     -3.54      0.00
  -23   17   12     -4.45      0.00
   13   17   12     -1.01      0.00
   15   17   12      3.05      0.00
  -24   18   12     -7.76      0.00
  -22   18   12     -7.40      0.00
  -20   18   12     -6.89      0.00
   12   18   12      4.32      0.00
   14   18   12      2.18      0.00
  -21   19   12      3.30      0.00
  -19   19   12      7.40      0.00
   11   19   12     -4.17      0.00
   13   19   12     -0.76      0.00
  -20   20   12      1.69      0.00
  -18   20   12      0.76      0.00
  -16   20   12     -4.16      0.00
    8   20   12      9.64      0.00
   10   20   12      8.41      0.00
   12   20   12      1.31      0.00
  -19   21   12     -5.88      0.00
  -17   21   12     -6.23      0.00
  -15   21   12      3.06      0.00
  -13   21   12      8.90      0.00
    5   21   12     12.38      0.00
    7   21   12      4.55      0.00
    9   21   12     -4.13      0.00
  -16   22   12     -0.12      0.00
  -14   22   12     -8.39      0.00
  -12   22   12     -8.41      0.00
  -10   22   12      2.72      0.00
   -8   22   12      6.58      0.00
   -6   22   12     -3.39      0.00
   -4   22   12    -10.60      0.00
   -2   22   12     -3.47      0.00
    0   22   12      4.47      0.00
    2   22   12     -1.53      0.00
    4   22   12    -11.77      0.00
    6   22   12    -13.52      0.00
    8   22   12     -7.48      0.00
  -13   23   12      4.43      0.00
  -11   23   12      1.72      0.00
   -9   23   12     -2.29      0.00
   -7   23   12      1.15      0.00
   -5   23   12      7.90      0.00
   -3   23   12      5.36      0.00
   -1   23   12     -2.64      0.00
    1   23   12     -4.48      0.00
    3   23   12     -0.52      0.00
    5   23   12      3.75      0.00
   -8   24   12      3.07      0.00
   -6   24   12      1.62      0.00
   -4   24   12      0.11      0.00
   -2   24   12     -0.24      0.00
    0   24   12      2.07      0.00
  -31    1   13     -3.21      0.00
   23    1   13     11.36      0.00
   22    2   13    -13.87      0.00
   24    2   13    -10.65      0.00
  -31    3   13     -5.93      0.00
   23    3   13      4.15      0.00
   22    4   13      6.58      0.00
   24    4   13      4.59      0.00
  -31    5   13      1.93      0.00
   23    5   13     -0.45      0.00
  -30    6   13     -2.28      0.00
   22    6   13      2.31      0.00
  -31    7   13      1.10      0.00
   21    7   13    -10.66      0.00
   23    7   13     -0.08      0.00
  -30    8   13     14.03      0.00
   20    8   13     15.38      0.00
   22    8   13      7.93      0.00
  -31    9   13     -7.97      0.00
  -29    9   13     -0.91      0.00
   21    9   13      0.21      0.00
  -30   10   13     -3.13      0.00
  -28   10   13     -8.88      0.00
   20   10   13     -3.53      0.00
  -29   11   13      1.55      0.00
  -27   11   13      7.00      0.00
   19   11   13      6.64      0.00
   21   11   13     -0.82      0.00
  -28   12   13     -2.54      0.00
   18   12   13     -9.45      0.00
   20   12   13     -1.86      0.00
  -27   13   13      5.71      0.00
   17   13   13      6.70      0.00
   19   13   13      1.14      0.00
  -28   14   13     -7.01      0.00
  -26   14   13    -10.10      0.00
   16   14   13     -1.98      0.00
   18   14   13     -0.77      0.00
  -27   15   13      4.61      0.00
  -25   15   13      2.33      0.00
   15   15   13     -4.51      0.00
   17   15   13     -2.36      0.00
  -26   16   13      3.65      0.00
  -24   16   13      8.90      0.00
  -22   16   13     12.97      0.00
   14   16   13     -2.76      0.00
   16   16   13     -3.18      0.00
  -23   17   13    -10.15      0.00
  -21   17   13    -12.36      0.00
   13   17   13      3.34      0.00
   15   17   13      1.70      0.00
  -22   18   13      9.44      0.00
  -20   18   13      7.38      0.00
   10   18   13      8.15      0.00
   12   18   13      1.48      0.00
   14   18   13      0.30      0.00
  -21   19   13     -1.97      0.00
  -19   19   13     -1.58      0.00
  -17   19   13      2.18      0.00
    9   19   13     -8.42      0.00
   11   19   13     -2.68      0.00
  -20   20   13     -0.72      0.00
  -18   20   13      1.29      0.00
  -16   20   13     -0.18      0.00
  -14   20   13     -4.16      0.00
    6   20   13     -8.89      0.00
    8   20   13     -1.57      0.00
   10   20   13      0.67      0.00
  -17   21   13     -1.90      0.00
  -15   21   13     -1.02      0.00
  -13   21   13     -1.04      0.00
  -11   21   13     -4.47      0.00
    1   21   13     -1.05      0.00
    3   21   13      3.49      0.00
    5   21   13      5.67      0.00
    7   21   13      3.42      0.00
    9   21   13      1.18      0.00
  -14   22   13      0.80      0.00
  -12   22   13      3.74      0.00
  -10   22   13      2.92      0.00
   -8   22   13     -0.79      0.00
   -6   22   13     -4.56      0.00
   -4   22   13     -4.12      0.00
   -2   22   13      1.48      0.00
    0   22   13      2.67      0.00
    2   22   13     -3.40      0.00
    4   22   13     -6.71      0.00
    6   22   13     -3.74      0.00
  -11   23   13     -6.32      0.00
   -9   23   13     -1.86      0.00
   -7   23   13      0.05      0.00
   -5   23   13     -4.00      0.00
   -3   23   13     -8.72      0.00
   -1   23   13     -6.64      0.00
    1   23   13     -0.12      0.00
   22    0   14      9.85      0.00
  -31    1   14     -0.90      0.00
   21    1   14     -7.11      0.00
   23    1   14     -4.11      0.00
   22    2   14     -5.02      0.00
  -31    3   14      5.96      0.00
   21    3   14     15.30      0.00
   23    3   14      4.40      0.00
  -30    4   14      5.25      0.00
   22    4   14    -11.13      0.00
  -31    5   14     -6.25      0.00
   21    5   14      4.25      0.00
  -30    6   14     -3.13      0.00
   20    6   14     -7.17      0.00
   22    6   14     -1.75      0.00
  -31    7   14     -1.89      0.00
  -29    7   14      0.56      0.00
   21    7   14      9.48      0.00
  -30    8   14      6.36      0.00
   20    8   14    -11.70      0.00
  -31    9   14      1.67      0.00
  -29    9   14      3.38      0.00
   19    9   14      8.62      0.00
   21    9   14      4.28      0.00
  -30   10   14     -3.63      0.00
  -28   10   14      2.87      0.00
   18   10   14      2.88      0.00
   20   10   14      5.26      0.00
  -29   11   14     -5.27      0.00
  -27   11   14     -9.14      0.00
   17   11   14     -3.16      0.00
   19   11   14     -5.32      0.00
  -28   12   14      5.41      0.00
  -26   12   14      6.46      0.00
   18   12   14      1.44      0.00
  -27   13   14      1.50      0.00
  -25   13   14     -2.12      0.00
   17   13   14      5.91      0.00
  -26   14   14      0.89      0.00
  -24   14   14      2.17      0.00
   16   14   14      3.40      0.00
  -25   15   14     -9.18      0.00
  -23   15   14     -6.74      0.00
   13   15   14    -16.15      0.00
   15   15   14    -12.28      0.00
  -24   16   14      4.97      0.00
  -22   16   14      6.95      0.00
   12   16   14      7.16      0.00
   14   16   14      9.15      0.00
  -23   17   14     -1.60      0.00
  -21   17   14     -5.89      0.00
   11   17   14     -2.84      0.00
   13   17   14     -3.39      0.00
  -22   18   14      0.63      0.00
  -20   18   14      3.92      0.00
  -18   18   14      4.81      0.00
    8   18   14      2.49      0.00
   10   18   14     -0.64      0.00
   12   18   14     -3.06      0.00
  -21   19   14      0.89      0.00
  -19   19   14     -3.35      0.00
  -17   19   14     -5.95      0.00
    7   19   14     -4.14      0.00
    9   19   14      1.51      0.00
   11   19   14      3.40      0.00
  -18   20   14      3.24      0.00
  -16   20   14      1.83      0.00
  -14   20   14      0.32      0.00
  -12   20   14     -1.13      0.00
    4   20   14     -2.58      0.00
    6   20   14      3.73      0.00
    8   20   14      1.84      0.00
  -17   21   14      3.73      0.00
  -15   21   14      9.08      0.00
  -13   21   14     10.06      0.00
  -11   21   14      9.12      0.00
   -9   21   14      9.23      0.00
   -7   21   14      7.37      0.00
   -5   21   14      3.91      0.00
   -3   21   14     -0.60      0.00
   -1   21   14     -5.78      0.00
    1   21   14     -4.82      0.00
    3   21   14      1.79      0.00
    5   21   14      4.74      0.00
    7   21   14      2.96      0.00
  -14   22   14     -5.45      0.00
  -12   22   14     -2.52      0.00
  -10   22   14     -1.66      0.00
   -8   22   14     -2.60      0.00
   -6   22   14     -0.43      0.00
   -4   22   14      5.39      0.00
   -2   22   14     12.13      0.00
    0   22   14     13.36      0.00
    2   22   14      6.56      0.00
    4   22   14     -2.05      0.00
   -9   23   14     -2.46      0.00
   -7   23   14     -3.54      0.00
   -5   23   14     -4.51      0.00
   -3   23   14     -3.88      0.00
   -1   23   14     -2.48      0.00
  -31    1   15      1.92      0.00
   21    1   15      8.58      0.00
  -30    2   15     -3.66      0.00
   20    2   15     -8.95      0.00
   22    2   15     -5.07      0.00
  -31    3   15     -0.33      0.00
   21    3   15     -3.16      0.00
  -30    4   15      5.28      0.00
   20    4   15      6.39      0.00
   22    4   15      5.21      0.00
  -31    5   15     -2.20      0.00
   19    5   15      0.77      0.00
   21    5   15     -1.67      0.00
  -30    6   15     -1.72      0.00
   20    6   15      2.92      0.00
  -31    7   15      1.16      0.00
  -29    7   15      0.96      0.00
   19    7   15    -15.79      0.00
   21    7   15     -7.58      0.00
  -30    8   15     -5.93      0.00
  -28    8   15     -7.13      0.00
   18    8   15      3.91      0.00
   20    8   15      2.59      0.00
  -29    9   15      3.47      0.00
   17    9   15      2.05      0.00
   19    9   15      3.29      0.00
  -30   10   15      3.10      0.00
  -28   10   15      3.77      0.00
   18   10   15      1.49      0.00
  -29   11   15      0.10      0.00
  -27   11   15      5.13      0.00
   17   11   15     -6.76      0.00
  -28   12   15     -8.31      0.00
  -26   12   15    -11.05      0.00
   16   12   15      0.86      0.00
   18   12   15      1.12      0.00
  -27   13   15      7.02      0.00
  -25   13   15      5.47      0.00
   15   13   15      1.45      0.00
   17   13   15      1.93      0.00
  -26   14   15     -0.44      0.00
  -24   14   15     -0.44      0.00
   14   14   15      2.33      0.00
   16   14   15      1.38      0.00
  -25   15   15      1.51      0.00
  -23   15   15     -3.53      0.00
   13   15   15      0.84      0.00
   15   15   15      2.48      0.00
  -24   16   15      2.57      0.00
  -22   16   15     16.45      0.00
   10   16   15      1.02      0.00
   12   16   15      0.97      0.00
   14   16   15     -1.30      0.00
  -23   17   15     -9.67      0.00
  -21   17   15    -19.95      0.00
  -19   17   15    -20.73      0.00
    9   17   15      3.18      0.00
   11   17   15      0.07      0.00
   13   17   15     -0.50      0.00
  -22   18   15      2.99      0.00
  -20   18   15      6.70      0.00
  -18   18   15      8.34      0.00
    6   18   15     -2.31      0.00
    8   18   15     -2.27      0.00
   10   18   15     -2.23      0.00
  -19   19   15     -1.66      0.00
  -17   19   15     -6.79      0.00
  -15   19   15     -6.32      0.00
    3   19   15     10.06      0.00
    5   19   15      8.61      0.00
    7   19   15      1.26      0.00
    9   19   15     -0.77      0.00
  -18   20   15      4.28      0.00
  -16   20   15      7.12      0.00
  -14   20   15     -0.15      0.00
  -12   20   15     -8.19      0.00
  -10   20   15    -10.71      0.00
   -2   20   15     -2.54      0.00
    0   20   15      2.03      0.00
    2   20   15     -2.23      0.00
    4   20   15     -7.76      0.00
    6   20   15     -5.63      0.00
  -15   21   15     -1.32      0.00
  -13   21   15      3.59      0.00
  -11   21   15      1.94      0.00
   -9   21   15      1.10      0.00
   -7   21   15      5.13      0.00
   -5   21   15      6.75      0.00
   -3   21   15      2.52      0.00
   -1   21   15     -2.53      0.00
    1   21   15     -2.48      0.00
    3   21   15      0.64      0.00
    5   21   15      2.42      0.00
  -10   22   15      5.95      0.00
   -8   22   15      8.30      0.00
   -6   22   15      7.29      0.00
   -4   22   15      6.83      0.00
   -2   22   15      5.20      0.00
    0   22   15      1.33      0.00
  -30    0   16    -10.42      0.00
   20    0   16      3.36      0.00
  -31    1   16      3.05      0.00
   19    1   16     -1.56      0.00
   21    1   16      3.03      0.00
  -30    2   16      4.15      0.00
   20    2   16     -5.59      0.00
  -31    3   16     -3.53      0.00
   19    3   16      8.30      0.00
   21    3   16      7.80      0.00
  -30    4   16     -0.29      0.00
   18    4   16     -4.22      0.00
   20    4   16     -5.60      0.00
  -31    5   16      1.91      0.00
  -29    5   16      2.64      0.00
   19    5   16      0.87      0.00
  -30    6   16      0.86      0.00
   18    6   16      0.47      0.00
   20    6   16      4.99      0.00
  -31    7   16     -1.52      0.00
  -29    7   16     -2.27      0.00
   17    7   16     -1.15      0.00
   19    7   16     -0.64      0.00
  -30    8   16     -1.43      0.00
  -28    8   16     -2.03      0.00
   18    8   16      4.42      0.00
  -29    9   16      1.45      0.00
  -27    9   16     -2.66      0.00
   17    9   16     -9.28      0.00
  -28   10   16     -1.14      0.00
   16   10   16      0.99      0.00
   18   10   16      0.74      0.00
  -27   11   16      3.18      0.00
   15   11   16     -3.48      0.00
   17   11   16     -0.39      0.00
  -28   12   16     -0.76      0.00
  -26   12   16      0.45      0.00
   14   12   16      8.32      0.00
   16   12   16      4.13      0.00
  -27   13   16     -0.99      0.00
  -25   13   16     -1.71      0.00
   13   13   16     -6.67      0.00
   15   13   16     -6.63      0.00
  -26   14   16     -4.84      0.00
  -24   14   16     -8.20      0.00
   12   14   16      1.61      0.00
   14   14   16      3.56      0.00
  -25   15   16      7.97      0.00
  -23   15   16      8.58      0.00
  -21   15   16      4.74      0.00
   11   15   16     -3.63      0.00
   13   15   16     -6.38      0.00
  -24   16   16      1.69      0.00
  -22   16   16      2.70      0.00
  -20   16   16      1.57      0.00
    8   16   16     -4.62      0.00
   10   16   16     -1.47      0.00
   12   16   16      3.77      0.00
  -21   17   16     -1.80      0.00
  -19   17   16     -2.44      0.00
    7   17   16      4.70      0.00
    9   17   16      4.88      0.00
   11   17   16      2.55      0.00
  -20   18   16     -0.21      0.00
  -18   18   16      1.49      0.00
  -16   18   16     -0.34      0.00
    4   18   16     -0.27      0.00
    6   18   16     -2.68      0.00
    8   18   16     -0.03      0.00
  -19   19   16     -2.21      0.00
  -17   19   16     -0.26      0.00
  -15   19   16      3.28      0.00
  -13   19   16      0.96      0.00
  -11   19   16     -7.35      0.00
    1   19   16     -4.32      0.00
    3   19   16     -4.87      0.00
    5   19   16     -0.73      0.00
    7   19   16      0.35      0.00
  -16   20   16     -4.70      0.00
  -14   20   16     -8.63      0.00
  -12   20   16     -1.12      0.00
  -10   20   16      9.66      0.00
   -8   20   16      8.25      0.00
   -6   20   16     -0.11      0.00
   -4   20   16     -5.77      0.00
   -2   20   16     -7.32      0.00
    0   20   16     -4.38      0.00
    2   20   16     -0.80      0.00
    4   20   16     -0.89      0.00
  -13   21   16      2.15      0.00
  -11   21   16     -4.48      0.00
   -9   21   16     -9.51      0.00
   -7   21   16     -8.91      0.00
   -5   21   16     -4.36      0.00
   -3   21   16     -1.18      0.00
   -1   21   16     -0.26      0.00
    1   21   16      0.42      0.00
   -6   22   16      2.87      0.00
  -31    1   17     -1.77      0.00
  -29    1   17     -5.56      0.00
   17    1   17     -2.41      0.00
   19    1   17     -0.42      0.00
  -30    2   17      2.54      0.00
   18    2   17     -0.86      0.00
   20    2   17      1.18      0.00
  -31    3   17     -1.99      0.00
  -29    3   17      2.56      0.00
   17    3   17      4.84      0.00
   19    3   17      0.06      0.00
  -30    4   17     -3.99      0.00
   18    4   17     -3.48      0.00
  -31    5   17      3.34      0.00
  -29    5   17     -0.03      0.00
   17    5   17      1.88      0.00
   19    5   17      6.25      0.00
  -30    6   17      6.19      0.00
  -28    6   17      7.79      0.00
   16    6   17      6.58      0.00
   18    6   17      1.33      0.00
  -29    7   17     -1.09      0.00
   17    7   17     -2.83      0.00
  -30    8   17     -3.59      0.00
  -28    8   17    -12.46      0.00
   16    8   17     -9.25      0.00
   18    8   17     -0.34      0.00
  -29    9   17      6.07      0.00
  -27    9   17     11.50      0.00
   15    9   17     21.04      0.00
   17    9   17     11.89      0.00
  -28   10   17     -0.61      0.00
  -26   10   17     -4.27      0.00
   14   10   17    -13.46      0.00
   16   10   17    -11.07      0.00
  -27   11   17     -1.02      0.00
  -25   11   17     -2.92      0.00
   13   11   17      2.77      0.00
   15   11   17      4.96      0.00
  -26   12   17      2.31      0.00
  -24   12   17      4.10      0.00
   12   12   17      1.34      0.00
   14   12   17     -1.41      0.00
  -25   13   17      1.91      0.00
  -23   13   17      5.37      0.00
   11   13   17      7.71      0.00
   13   13   17      2.92      0.00
  -24   14   17     -7.10      0.00
  -22   14   17     -4.35      0.00
   10   14   17    -14.75      0.00
   12   14   17     -5.72      0.00
  -23   15   17     -4.57      0.00
  -21   15   17    -10.12      0.00
    9   15   17     16.50      0.00
   11   15   17      8.58      0.00
  -22   16   17      9.79      0.00
  -20   16   17      8.45      0.00
  -18   16   17      0.24      0.00
    6   16   17    -12.70      0.00
    8   16   17    -14.58      0.00
   10   16   17     -9.70      0.00
  -21   17   17     -0.45      0.00
  -19   17   17      4.04      0.00
  -17   17   17     11.59      0.00
    5   17   17     13.08      0.00
    7   17   17      6.91      0.00
    9   17   17     -0.22      0.00
  -18   18   17     -5.12      0.00
  -16   18   17     -7.63      0.00
  -14   18   17     -3.54      0.00
    2   18   17     -7.39      0.00
    4   18   17     -6.93      0.00
    6   18   17     -0.12      0.00
    8   18   17      7.24      0.00
  -17   19   17     -0.62      0.00
  -15   19   17      1.49      0.00
  -13   19   17      3.64      0.00
  -11   19   17      1.65      0.00
   -9   19   17      1.09      0.00
   -7   19   17      4.85      0.00
   -5   19   17      3.71      0.00
   -3   19   17     -0.87      0.00
   -1   19   17     -1.12      0.00
    1   19   17      2.35      0.00
    3   19   17      5.31      0.00
    5   19   17      3.03      0.00
  -14   20   17      0.38      0.00
  -12   20   17     -0.76      0.00
  -10   20   17     -2.54      0.00
   -8   20   17     -3.46      0.00
   -6   20   17     -3.91      0.00
   -4   20   17     -4.54      0.00
   -2   20   17     -1.28      0.00
    0   20   17      2.66      0.00
    2   20   17      0.18      0.00
   -9   21   17      1.67      0.00
   -7   21   17      4.17      0.00
   -5   21   17      6.70      0.00
   -3   21   17      5.42      0.00
  -30    0   18     -4.99      0.00
   16    0   18     12.98      0.00
   18    0   18      7.45      0.00
  -31    1   18      4.03      0.00
  -29    1   18      3.48      0.00
   17    1   18     -1.19      0.00
  -30    2   18     -4.02      0.00
  -28    2   18     -3.99      0.00
   16    2   18     -7.53      0.00
   18    2   18    -11.01      0.00
  -31    3   18      4.95      0.00
  -29    3   18      8.00      0.00
   17    3   18      0.90      0.00
  -30    4   18     -9.76      0.00
  -28    4   18    -10.72      0.00
   16    4   18     10.92      0.00
   18    4   18      7.51      0.00
  -29    5   18      5.45      0.00
   15    5   18     -1.50      0.00
   17    5   18     -6.42      0.00
  -30    6   18      1.41      0.00
  -28    6   18     -6.05      0.00
   16    6   18     -8.68      0.00
  -29    7   18      0.59      0.00
  -27    7   18      3.57      0.00
   15    7   18      6.65      0.00
   17    7   18      1.83      0.00
  -28    8   18      5.39      0.00
  -26    8   18      8.30      0.00
   14    8   18      6.28      0.00
   16    8   18      6.86      0.00
  -27    9   18     -8.78      0.00
   13    9   18     -6.05      0.00
   15    9   18     -4.69      0.00
  -28   10   18      2.10      0.00
  -26   10   18      1.92      0.00
   12   10   18      7.30      0.00
   14   10   18      3.25      0.00
  -27   11   18     -1.59      0.00
  -25   11   18     -5.42      0.00
   11   11   18    -13.06      0.00
   13   11   18     -7.18      0.00
  -26   12   18      7.27      0.00
  -24   12   18     10.21      0.00
   10   12   18      3.88      0.00
   12   12   18      0.20      0.00
   14   12   18     -0.95      0.00
  -25   13   18     -1.85      0.00
  -23   13   18      3.61      0.00
    9   13   18      0.46      0.00
   11   13   18      5.51      0.00
   13   13   18      5.55      0.00
  -24   14   18     -5.45      0.00
  -22   14   18    -10.15      0.00
  -20   14   18    -13.25      0.00
    8   14   18     11.39      0.00
   10   14   18      3.99      0.00
   12   14   18      0.83      0.00
  -23   15   18      1.23      0.00
  -21   15   18      3.81      0.00
  -19   15   18      4.18      0.00
    7   15   18    -11.36      0.00
    9   15   18     -6.34      0.00
  -22   16   18     -0.09      0.00
  -20   16   18     -1.42      0.00
  -18   16   18     -2.83      0.00
  -16   16   18     -7.77      0.00
    4   16   18     -6.02      0.00
    6   16   18      2.16      0.00
    8   16   18      4.46      0.00
  -19   17   18     -0.88      0.00
  -17   17   18      0.17      0.00
  -15   17   18      3.73      0.00
  -13   17   18      9.06      0.00
    1   17   18      8.81      0.00
    3   17   18      9.63      0.00
    5   17   18      1.44      0.00
    7   17   18     -3.88      0.00
  -18   18   18      4.19      0.00
  -16   18   18      6.95      0.00
  -14   18   18      0.67      0.00
  -12   18   18    -10.76      0.00
  -10   18   18    -14.08      0.00
   -8   18   18     -9.44      0.00
   -6   18   18      0.36      0.00
   -4   18   18     12.32      0.00
   -2   18   18     14.02      0.00
    0   18   18      6.07      0.00
    2   18   18      1.67      0.00
    4   18   18      2.39      0.00
  -15   19   18     -5.16      0.00
  -13   19   18     -1.64      0.00
  -11   19   18      4.19      0.00
   -9   19   18      8.07      0.00
   -7   19   18      1.41      0.00
   -5   19   18     -9.17      0.00
   -3   19   18     -9.69      0.00
   -1   19   18     -4.99      0.00
    1   19   18     -4.08      0.00
    3   19   18     -3.52      0.00
  -12   20   18      6.32      0.00
  -10   20   18      4.67      0.00
   -8   20   18      2.77      0.00
   -6   20   18      5.57      0.00
   -4   20   18      3.75      0.00
   -2   20   18     -1.57      0.00
  -29    1   19      5.73      0.00
   15    1   19     -3.60      0.00
   17    1   19      3.56      0.00
  -30    2   19     -4.92      0.00
  -28    2   19    -11.71      0.00
   14    2   19      1.44      0.00
   16    2   19     -1.99      0.00
  -29    3   19      5.63      0.00
  -27    3   19      6.68      0.00
   15    3   19      2.01      0.00
   17    3   19     -0.81      0.00
  -30    4   19      2.69      0.00
  -28    4   19      1.83      0.00
   14    4   19     -5.53      0.00
   16    4   19     -3.97      0.00
  -29    5   19     -4.93      0.00
  -27    5   19     -3.75      0.00
   15    5   19     16.10      0.00
  -28    6   19      3.23      0.00
  -26    6   19      4.01      0.00
   14    6   19    -20.76      0.00
   16    6   19    -13.34      0.00
  -29    7   19     -1.58      0.00
  -27    7   19     -8.53      0.00
   13    7   19     12.95      0.00
   15    7   19      5.44      0.00
  -28    8   19      4.65      0.00
  -26    8   19      7.79      0.00
   12    8   19     -9.09      0.00
   14    8   19     -1.81      0.00
  -27    9   19     -1.09      0.00
  -25    9   19      2.35      0.00
   11    9   19      5.69      0.00
   13    9   19     -1.71      0.00
  -26   10   19     -1.36      0.00
  -24   10   19      3.77      0.00
   10   10   19      3.18      0.00
   12   10   19      6.80      0.00
   14   10   19      3.75      0.00
  -25   11   19     -8.72      0.00
  -23   11   19    -19.32      0.00
    9   11   19     -8.88      0.00
   11   11   19     -7.55      0.00
   13   11   19     -2.27      0.00
  -24   12   19     12.49      0.00
  -22   12   19     16.81      0.00
    8   12   19     -2.44      0.00
   10   12   19     -0.33      0.00
   12   12   19     -1.06      0.00
  -23   13   19     -5.67      0.00
  -21   13   19    -10.46      0.00
    7   13   19      8.14      0.00
    9   13   19      4.41      0.00
   11   13   19     -0.17      0.00
  -22   14   19      5.25      0.00
  -20   14   19     10.38      0.00
  -18   14   19      7.20      0.00
    6   14   19     -6.55      0.00
    8   14   19     -4.56      0.00
   10   14   19     -1.30      0.00
  -21   15   19     -4.38      0.00
  -19   15   19     -4.40      0.00
  -17   15   19      3.62      0.00
    3   15   19     -6.19      0.00
    5   15   19     -1.74      0.00
    7   15   19     -0.77      0.00
    9   15   19     -1.40      0.00
  -20   16   19      3.10      0.00
  -18   16   19      0.43      0.00
  -16   16   19     -2.60      0.00
  -14   16   19     -0.78      0.00
    0   16   19      1.65      0.00
    2   16   19      5.52      0.00
    4   16   19      4.97      0.00
    6   16   19      4.09      0.00
  -17   17   19     -4.18      0.00
  -15   17   19     -8.83      0.00
  -13   17   19     -8.41      0.00
  -11   17   19     -3.29      0.00
   -9   17   19     -1.23      0.00
   -7   17   19      2.88      0.00
   -5   17   19     10.31      0.00
   -3   17   19     12.20      0.00
   -1   17   19      6.39      0.00
    1   17   19     -2.50      0.00
    3   17   19     -7.06      0.00
    5   17   19     -5.36      0.00
  -16   18   19      5.37      0.00
  -14   18   19      7.30      0.00
  -12   18   19      8.89      0.00
  -10   18   19      8.49      0.00
   -8   18   19      3.17      0.00
   -6   18   19     -4.05      0.00
   -4   18   19    -11.44      0.00
   -2   18   19    -13.34      0.00
    0   18   19     -4.48      0.00
    2   18   19      4.29      0.00
  -13   19   19     -0.77      0.00
  -11   19   19     -6.42      0.00
   -9   19   19     -7.63      0.00
   -7   19   19     -4.06      0.00
   -5   19   19      2.79      0.00
   -3   19   19      9.10      0.00
   -1   19   19      6.39      0.00
  -30    0   20     -5.57      0.00
  -28    0   20     -7.37      0.00
   14    0   20    -11.61      0.00
  -29    1   20      4.45      0.00
  -27    1   20      5.91      0.00
   13    1   20      7.45      0.00
   15    1   20      6.58      0.00
  -28    2   20     -1.20      0.00
   14    2   20      1.55      0.00
  -29    3   20     -0.70      0.00
  -27    3   20     -3.72      0.00
   13    3   20     -9.03      0.00
   15    3   20     -5.77      0.00
  -28    4   20      0.32      0.00
  -26    4   20      0.25      0.00
   12    4   20      7.32      0.00
   14    4   20      6.88      0.00
  -29    5   20      2.57      0.00
  -27    5   20      2.25      0.00
   13    5   20     -3.05      0.00
   15    5   20     -1.21      0.00
  -28    6   20     -0.01      0.00
  -26    6   20      2.33      0.00
   12    6   20     -2.33      0.00
   14    6   20      0.57      0.00
  -27    7   20     -1.64      0.00
  -25    7   20     -5.02      0.00
   11    7   20      9.20      0.00
   13    7   20      3.83      0.00
  -26    8   20     -3.53      0.00
  -24    8   20     -1.80      0.00
   10    8   20     -8.07      0.00
   12    8   20     -2.92      0.00
  -27    9   20      3.25      0.00
  -25    9   20      6.57      0.00
  -23    9   20      3.33      0.00
    9    9   20      0.00      0.00
   11    9   20     -5.26      0.00
   13    9   20     -4.81      0.00
  -26   10   20     -2.49      0.00
  -24   10   20     -0.88      0.00
  -22   10   20      2.66      0.00
    8   10   20      8.23      0.00
   10   10   20     12.06      0.00
   12   10   20      7.72      0.00
  -25   11   20     -1.54      0.00
  -23   11   20     -2.84      0.00
  -21   11   20     -4.17      0.00
    7   11   20     -7.38      0.00
    9   11   20     -5.93      0.00
   11   11   20     -1.56      0.00
  -24   12   20     -1.60      0.00
  -22   12   20     -1.66      0.00
  -20   12   20      1.27      0.00
    6   12   20      8.70      0.00
    8   12   20      2.39      0.00
   10   12   20     -3.51      0.00
  -23   13   20      5.01      0.00
  -21   13   20      2.88      0.00
  -19   13   20      2.67      0.00
    5   13   20      0.80      0.00
    7   13   20      2.35      0.00
    9   13   20      4.98      0.00
  -22   14   20     -2.26      0.00
  -20   14   20     -3.56      0.00
  -18   14   20     -8.37      0.00
  -16   14   20    -11.60      0.00
    2   14   20     -5.32      0.00
    4   14   20     -5.71      0.00
    6   14   20     -7.23      0.00
    8   14   20     -6.83      0.00
  -19   15   20      4.45      0.00
  -17   15   20      4.73      0.00
  -15   15   20     -3.99      0.00
  -13   15   20    -11.62      0.00
   -1   15   20     -3.13      0.00
    1   15   20      0.05      0.00
    3   15   20      1.36      0.00
    5   15   20      2.45      0.00
  -18   16   20     -1.57      0.00
  -16   16   20      5.80      0.00
  -14   16   20     14.09      0.00
  -12   16   20      9.25      0.00
  -10   16   20     -2.59      0.00
   -8   16   20     -7.93      0.00
   -6   16   20     -6.81      0.00
   -4   16   20     -1.56      0.00
   -2   16   20      3.40      0.00
    0   16   20      2.74      0.00
    2   16   20      0.43      0.00
    4   16   20     -0.24      0.00
  -15   17   20     -4.60      0.00
  -13   17   20     -4.08      0.00
  -11   17   20     -3.31      0.00
   -9   17   20     -0.09      0.00
   -7   17   20      4.72      0.00
   -5   17   20      3.47      0.00
   -3   17   20     -0.36      0.00
   -1   17   20     -1.13      0.00
    1   17   20     -1.06      0.00
  -12   18   20      0.10      0.00
  -10   18   20      3.75      0.00
   -8   18   20      1.23      0.00
   -6   18   20     -1.45      0.00
   -4   18   20     -1.89      0.00
   -2   18   20     -2.33      0.00
  -29    1   21     -6.38      0.00
  -27    1   21     -7.00      0.00
  -25    1   21     -5.70      0.00
   11    1   21      3.29      0.00
   13    1   21      1.77      0.00
  -28    2   21      5.20      0.00
  -26    2   21      4.45      0.00
   12    2   21      0.18      0.00
   14    2   21     -2.14      0.00
  -27    3   21      0.50      0.00
  -25    3   21      7.09      0.00
   11    3   21    -13.06      0.00
   13    3   21     -2.59      0.00
  -28    4   21     -0.91      0.00
  -26    4   21     -5.95      0.00
   10    4   21     18.38      0.00
   12    4   21     10.04      0.00
  -27    5   21      4.19      0.00
  -25    5   21      2.17      0.00
   11    5   21     -5.37      0.00
   13    5   21     -2.99      0.00
  -26    6   21     -1.98      0.00
  -24    6   21      1.63      0.00
   10    6   21     -2.56      0.00
   12    6   21     -0.52      0.00
  -27    7   21      1.71      0.00
  -25    7   21      1.24      0.00
  -23    7   21      0.82      0.00
    9    7   21     -1.37      0.00
   11    7   21     -0.16      0.00
  -26    8   21     -0.01      0.00
  -24    8   21     -0.01      0.00
    8    8   21      1.87      0.00
   10    8   21      2.70      0.00
   12    8   21      3.27      0.00
  -25    9   21      1.09      0.00
  -23    9   21      1.35      0.00
    7    9   21      6.53      0.00
    9    9   21     -1.43      0.00
   11    9   21     -2.24      0.00
  -24   10   21     -5.31      0.00
  -22   10   21     -7.86      0.00
    6   10   21     -4.95      0.00
    8   10   21      2.09      0.00
   10   10   21      3.48      0.00
  -23   11   21      7.18      0.00
  -21   11   21      9.29      0.00
  -19   11   21      2.45      0.00
    5   11   21     -0.45      0.00
    7   11   21     -8.32      0.00
    9   11   21     -8.51      0.00
  -22   12   21     -2.95      0.00
  -20   12   21      0.22      0.00
  -18   12   21      5.63      0.00
    4   12   21     -3.05      0.00
    6   12   21      6.69      0.00
    8   12   21      8.69      0.00
  -21   13   21     -4.69      0.00
  -19   13   21     -6.86      0.00
  -17   13   21     -3.76      0.00
  -15   13   21      1.79      0.00
    1   13   21      9.13      0.00
    3   13   21      5.49      0.00
    5   13   21     -1.58      0.00
    7   13   21     -1.64      0.00
  -20   14   21      3.52      0.00
  -18   14   21     -0.84      0.00
  -16   14   21     -5.63      0.00
  -14   14   21     -2.44      0.00
  -12   14   21      2.61      0.00
   -2   14   21      3.93      0.00
    0   14   21     -0.87      0.00
    2   14   21      0.58      0.00
    4   14   21      6.76      0.00
    6   14   21      7.10      0.00
  -19   15   21      1.14      0.00
  -17   15   21      6.93      0.00
  -15   15   21      6.21      0.00
  -13   15   21      1.63      0.00
  -11   15   21      1.79      0.00
   -9   15   21      2.07      0.00
   -7   15   21     -1.19      0.00
   -5   15   21     -2.75      0.00
   -3   15   21     -2.69      0.00
   -1   15   21     -2.10      0.00
    1   15   21     -1.21      0.00
    3   15   21     -3.03      0.00
  -16   16   21     -5.03      0.00
  -14   16   21     -7.04      0.00
  -12   16   21     -7.84      0.00
  -10   16   21     -4.43      0.00
   -8   16   21     -0.21      0.00
   -6   16   21      3.90      0.00
   -4   16   21      8.12      0.00
   -2   16   21      7.44      0.00
    0   16   21      3.25      0.00
    2   16   21      1.18      0.00
  -13   17   21      5.89      0.00
  -11   17   21      5.75      0.00
   -9   17   21      4.80      0.00
   -7   17   21      3.08      0.00
   -5   17   21     -2.96      0.00
   -3   17   21     -5.00      0.00
  -28    0   22     -1.73      0.00
  -26    0   22     -8.48      0.00
  -24    0   22    -13.38      0.00
   10    0   22     -1.96      0.00
   12    0   22     -0.04      0.00
  -27    1   22      1.65      0.00
  -25    1   22      6.82      0.00
    9    1   22      2.82      0.00
   11    1   22      1.60      0.00
  -26    2   22      2.75      0.00
  -24    2   22     -2.93      0.00
   10    2   22     -2.88      0.00
   12    2   22     -1.68      0.00
  -27    3   22     -3.42      0.00
  -25    3   22     -3.17      0.00
    9    3   22      4.18      0.00
   11    3   22      1.41      0.00
  -26    4   22     -0.61      0.00
  -24    4   22      3.22      0.00
    8    4   22     -1.64      0.00
   10    4   22     -1.52      0.00
   12    4   22     -1.05      0.00
  -27    5   22      0.89      0.00
  -25    5   22     -2.77      0.00
  -23    5   22     -6.04      0.00
    7    5   22     -5.80      0.00
    9    5   22      3.71      0.00
   11    5   22      4.67      0.00
  -26    6   22      1.98      0.00
  -24    6   22      3.34      0.00
  -22    6   22      6.30      0.00
    8    6   22     -2.15      0.00
   10    6   22     -8.27      0.00
  -25    7   22      3.55      0.00
  -23    7   22      2.89      0.00
    7    7   22      2.01      0.00
    9    7   22      5.35      0.00
  -24    8   22     -6.33      0.00
  -22    8   22     -7.52      0.00
    6    8   22     -5.40      0.00
    8    8   22     -6.35      0.00
   10    8   22      0.93      0.00
  -23    9   22      5.41      0.00
  -21    9   22     11.42      0.00
    5    9   22      4.06      0.00
    7    9   22      7.04      0.00
    9    9   22      2.37      0.00
  -22   10   22     -2.38      0.00
  -20   10   22    -10.48      0.00
  -18   10   22    -13.79      0.00
    4   10   22    -12.97      0.00
    6   10   22    -10.72      0.00
    8   10   22     -3.94      0.00
  -21   11   22      0.74      0.00
  -19   11   22      4.19      0.00
  -17   11   22      2.86      0.00
    1   11   22      9.90      0.00
    3   11   22     14.97      0.00
    5   11   22     11.68      0.00
    7   11   22      1.60      0.00
  -20   12   22      1.49      0.00
  -18   12   22      3.95      0.00
  -16   12   22      8.41      0.00
  -14   12   22     10.41      0.00
    0   12   22     -6.34      0.00
    2   12   22    -11.53      0.00
    4   12   22     -9.51      0.00
    6   12   22     -2.76      0.00
  -19   13   22     -1.61      0.00
  -17   13   22     -4.38      0.00
  -15   13   22     -8.22      0.00
  -13   13   22     -9.56      0.00
  -11   13   22     -7.44      0.00
   -9   13   22     -7.09      0.00
   -7   13   22     -7.21      0.00
   -5   13   22     -2.89      0.00
   -3   13   22      1.31      0.00
   -1   13   22      2.18      0.00
    1   13   22      2.62      0.00
    3   13   22      2.45      0.00
  -18   14   22     -0.27      0.00
  -16   14   22      0.84      0.00
  -14   14   22      0.57      0.00
  -12   14   22     -3.34      0.00
  -10   14   22     -5.53      0.00
   -8   14   22     -1.23      0.00
   -6   14   22      0.17      0.00
   -4   14   22     -5.29      0.00
   -2   14   22     -4.71      0.00
    0   14   22      2.38      0.00
    2   14   22      3.94      0.00
  -15   15   22     -1.63      0.00
  -13   15   22      7.08      0.00
  -11   15   22     12.63      0.00
   -9   15   22      8.35      0.00
   -7   15   22      4.45      0.00
   -5   15   22      4.71      0.00
   -3   15   22      1.98      0.00
   -1   15   22     -3.77      0.00
    1   15   22     -5.38      0.00
  -12   16   22     -9.15      0.00
  -10   16   22     -8.38      0.00
   -8   16   22     -6.37      0.00
   -6   16   22     -6.68      0.00
   -4   16   22     -3.28      0.00
  -25    1   23     -5.07      0.00
  -23    1   23     -6.06      0.00
    7    1   23     -2.57      0.00
    9    1   23      0.77      0.00
  -26    2   23      1.39      0.00
  -24    2   23      2.19      0.00
  -22    2   23     -0.37      0.00
    6    2   23     -1.42      0.00
    8    2   23     -5.39      0.00
   10    2   23     -2.99      0.00
  -25    3   23      3.96      0.00
  -23    3   23      4.31      0.00
    7    3   23      8.62      0.00
    9    3   23      4.86      0.00
  -26    4   23     -2.45      0.00
  -24    4   23     -1.65      0.00
  -22    4   23     -0.70      0.00
    6    4   23     -3.03      0.00
    8    4   23     -1.11      0.00
   10    4   23      0.82      0.00
  -25    5   23     -4.09      0.00
  -23    5   23     -5.28      0.00
  -21    5   23     -7.20      0.00
    5    5   23      3.41      0.00
    7    5   23     -0.98      0.00
    9    5   23     -1.27      0.00
  -24    6   23      0.42      0.00
  -22    6   23     -1.90      0.00
  -20    6   23     -1.67      0.00
    4    6   23     -2.52      0.00
    6    6   23     -1.71      0.00
    8    6   23     -0.17      0.00
  -23    7   23      5.51      0.00
  -21    7   23     12.82      0.00
  -19    7   23     15.00      0.00
    3    7   23      4.11      0.00
    5    7   23      0.85      0.00
    7    7   23      1.31      0.00
  -24    8   23      0.14      0.00
  -22    8   23     -5.09      0.00
  -20    8   23    -11.83      0.00
  -18    8   23    -12.04      0.00
    2    8   23    -13.25      0.00
    4    8   23     -3.12      0.00
    6    8   23      2.58      0.00
  -23    9   23      0.22      0.00
  -21    9   23      0.54      0.00
  -19    9   23     -0.34      0.00
  -17    9   23     -5.48      0.00
    1    9   23     15.49      0.00
    3    9   23     12.18      0.00
    5    9   23      4.94      0.00
    7    9   23     -2.71      0.00
  -22   10   23     -1.26      0.00
  -20   10   23      0.70      0.00
  -18   10   23      5.80      0.00
  -16   10   23      8.87      0.00
    0   10   23      1.32      0.00
    2   10   23     -4.65      0.00
    4   10   23     -7.38      0.00
    6   10   23     -1.68      0.00
  -21   11   23      4.05      0.00
  -19   11   23      3.50      0.00
  -17   11   23      2.50      0.00
  -15   11   23      1.89      0.00
  -13   11   23      0.48      0.00
   -3   11   23     -1.22      0.00
   -1   11   23     -9.73      0.00
    1   11   23     -4.93      0.00
    3   11   23      1.64      0.00
  -18   12   23     -3.50      0.00
  -16   12   23     -6.30      0.00
  -14   12   23     -3.96      0.00
  -12   12   23      1.10      0.00
  -10   12   23      2.20      0.00
   -8   12   23     -0.64      0.00
   -6   12   23     -4.59      0.00
   -4   12   23     -5.21      0.00
   -2   12   23     -1.56      0.00
    0   12   23      0.07      0.00
    2   12   23     -1.26      0.00
  -17   13   23      2.58      0.00
  -15   13   23      4.36      0.00
  -13   13   23      1.28      0.00
  -11   13   23      0.25      0.00
   -9   13   23      4.58      0.00
   -7   13   23      7.09      0.00
   -5   13   23      7.24      0.00
   -3   13   23      9.02      0.00
   -1   13   23      7.12      0.00
    1   13   23      1.18      0.00
  -14   14   23      2.05      0.00
  -12   14   23      2.04      0.00
  -10   14   23     -0.46      0.00
   -8   14   23     -3.97      0.00
   -6   14   23     -6.00      0.00
   -4   14   23     -5.06      0.00
   -2   14   23     -2.58      0.00
  -11   15   23     -2.09      0.00
   -9   15   23     -1.99      0.00
   -7   15   23      0.97      0.00
   -5   15   23      1.38      0.00
  -24    0   24     -1.47      0.00
  -22    0   24     -7.11      0.00
  -20    0   24     -7.79      0.00
    4    0   24     -5.96      0.00
    6    0   24     -2.03      0.00
    8    0   24      2.99      0.00
  -25    1   24      0.70      0.00
  -23    1   24      5.79      0.00
  -21    1   24     10.12      0.00
    3    1   24      0.59      0.00
    5    1   24      0.11      0.00
    7    1   24     -1.56      0.00
  -24    2   24     -3.76      0.00
  -22    2   24     -8.31      0.00
  -20    2   24     -6.46      0.00
    4    2   24      6.37      0.00
    6    2   24      3.80      0.00
    8    2   24     -0.51      0.00
  -23    3   24      6.34      0.00
  -21    3   24      6.86      0.00
  -19    3   24      4.50      0.00
    3    3   24     -4.58      0.00
    5    3   24     -4.48      0.00
    7    3   24     -1.98      0.00
  -24    4   24     -2.67      0.00
  -22    4   24     -5.94      0.00
  -20    4   24     -6.20      0.00
    2    4   24     -1.74      0.00
    4    4   24     -2.16      0.00
    6    4   24      0.71      0.00
  -23    5   24      3.06      0.00
  -21    5   24      7.16      0.00
  -19    5   24      9.05      0.00
    3    5   24      3.11      0.00
    5    5   24     -0.81      0.00
    7    5   24     -1.98      0.00
  -22    6   24     -0.95      0.00
  -20    6   24     -5.88      0.00
  -18    6   24     -7.74      0.00
    2    6   24     -5.55      0.00
    4    6   24      0.95      0.00
    6    6   24      3.34      0.00
  -23    7   24     -3.00      0.00
  -21    7   24     -2.48      0.00
  -19    7   24      0.34      0.00
  -17    7   24      0.17      0.00
    1    7   24      9.19      0.00
    3    7   24      5.47      0.00
    5    7   24      0.82      0.00
  -22    8   24     -1.58      0.00
  -20    8   24     -0.54      0.00
  -18    8   24      0.42      0.00
  -16    8   24      4.44      0.00
  -14    8   24      3.46      0.00
   -2    8   24     -2.21      0.00
    0    8   24     -5.13      0.00
    2    8   24     -3.27      0.00
    4    8   24     -4.04      0.00
  -21    9   24      3.03      0.00
  -19    9   24      2.66      0.00
  -17    9   24      0.78      0.00
  -15    9   24     -0.14      0.00
  -13    9   24      3.20      0.00
  -11    9   24      4.43      0.00
   -5    9   24     -5.67      0.00
   -3    9   24     -4.20      0.00
   -1    9   24     -3.44      0.00
    1    9   24     -3.44      0.00
    3    9   24     -0.52      0.00
  -20   10   24     -2.52      0.00
  -18   10   24     -5.32      0.00
  -16   10   24     -7.44      0.00
  -14   10   24     -6.24      0.00
  -12   10   24     -4.67      0.00
  -10   10   24     -4.52      0.00
   -8   10   24     -0.81      0.00
   -6   10   24      2.94      0.00
   -4   10   24      4.27      0.00
   -2   10   24      7.03      0.00
    0   10   24      6.68      0.00
    2   10   24      3.09      0.00
  -17   11   24      4.97      0.00
  -15   11   24      4.98      0.00
  -13   11   24      1.60      0.00
  -11   11   24      2.68      0.00
   -9   11   24      5.10      0.00
   -7   11   24     -0.69      0.00
   -5   11   24     -9.03      0.00
   -3   11   24    -10.02      0.00
   -1   11   24     -4.40      0.00
    1   11   24      0.66      0.00
  -16   12   24     -2.55      0.00
  -14   12   24     -0.66      0.00
  -12   12   24     -0.65      0.00
  -10   12   24     -5.01      0.00
   -8   12   24     -5.67      0.00
   -6   12   24      3.84      0.00
   -4   12   24      9.95      0.00
   -2   12   24      3.01      0.00
    0   12   24     -2.61      0.00
  -13   13   24     -0.79      0.00
  -11   13   24      2.80      0.00
   -9   13   24      5.96      0.00
   -7   13   24      3.98      0.00
   -5   13   24      0.49      0.00
   -3   13   24      1.46      0.00
  -23    1   25     -0.36      0.00
  -21    1   25      1.87      0.00
  -19    1   25      3.48      0.00
  -17    1   25      4.51      0.00
   -1    1   25      1.70      0.00
    1    1   25      2.96      0.00
    3    1   25      4.80      0.00
    5    1   25      4.00      0.00
  -22    2   25      0.47      0.00
  -20    2   25     -2.23      0.00
  -18    2   25     -7.77      0.00
  -16    2   25    -11.58      0.00
    0    2   25      4.24      0.00
    2    2   25      4.12      0.00
    4    2   25      0.70      0.00
  -23    3   25      0.92      0.00
  -21    3   25      1.93      0.00
  -19    3   25      6.29      0.00
  -17    3   25     12.28      0.00
   -1    3   25     -6.63      0.00
    1    3   25     -6.69      0.00
    3    3   25     -5.20      0.00
    5    3   25     -1.92      0.00
  -22    4   25     -1.42      0.00
  -20    4   25     -3.34      0.00
  -18    4   25     -4.42      0.00
  -16    4   25     -4.02      0.00
   -2    4   25      2.60      0.00
    0    4   25     -3.02      0.00
    2    4   25     -6.10      0.00
    4    4   25     -2.13      0.00
  -21    5   25      0.79      0.00
  -19    5   25      0.96      0.00
  -17    5   25     -1.56      0.00
  -15    5   25      1.15      0.00
   -3    5   25     -2.13      0.00
   -1    5   25      5.16      0.00
    1    5   25     12.11      0.00
    3    5   25      8.77      0.00
  -20    6   25      1.07      0.00
  -18    6   25      3.48      0.00
  -16    6   25      4.81      0.00
  -14    6   25      1.21      0.00
  -12    6   25     -2.42      0.00
   -6    6   25     23.41      0.00
   -4    6   25     14.83      0.00
   -2    6   25      2.46      0.00
    0    6   25     -4.43      0.00
    2    6   25     -4.99      0.00
    4    6   25     -1.15      0.00
  -19    7   25      0.94      0.00
  -17    7   25     -2.92      0.00
  -15    7   25     -4.96      0.00
  -13    7   25      0.24      0.00
  -11    7   25      0.94      0.00
   -9    7   25     -9.94      0.00
   -7    7   25    -15.42      0.00
   -5    7   25    -10.20      0.00
   -3    7   25     -3.74      0.00
   -1    7   25     -1.28      0.00
    1    7   25     -3.78      0.00
    3    7   25     -3.64      0.00
  -18    8   25      2.30      0.00
  -16    8   25      6.43      0.00
  -14    8   25      4.98      0.00
  -12    8   25      1.59      0.00
  -10    8   25      4.32      0.00
   -8    8   25      5.15      0.00
   -6    8   25     -3.40      0.00
   -4    8   25    -10.35      0.00
   -2    8   25     -6.99      0.00
    0    8   25      0.85      0.00
    2    8   25      2.90      0.00
  -17    9   25     -4.28      0.00
  -15    9   25     -3.80      0.00
  -13    9   25     -4.70      0.00
  -11    9   25     -6.53      0.00
   -9    9   25     -4.35      0.00
   -7    9   25      2.08      0.00
   -5    9   25     10.90      0.00
   -3    9   25     11.99      0.00
   -1    9   25      2.99      0.00
    1    9   25     -0.65      0.00
  -16   10   25     -0.84      0.00
  -14   10   25      0.80      0.00
  -12   10   25      4.59      0.00
  -10   10   25      2.72      0.00
   -8   10   25     -3.01      0.00
   -6   10   25     -5.00      0.00
   -4   10   25     -2.49      0.00
   -2   10   25      1.99      0.00
  -13   11   25     -1.62      0.00
  -11   11   25     -1.39      0.00
   -9   11   25      2.56      0.00
   -7   11   25      4.87      0.00
   -5   11   25     -1.49      0.00
   -3   11   25     -7.45      0.00
  -10   12   25     -3.25      0.00
   -8   12   25     -4.01      0.00
    0    0    0      0.00      0.00
# SQUEEZE RESULTS (Version = 110516)
# Note: Data are Listed for all Voids in the P1 Unit Cell
# i.e. Centre of Gravity, Solvent Accessible Volume,
# Recovered number of Electrons in the Void and
# Details about the Squeezed Material
loop_
  _platon_squeeze_void_nr
  _platon_squeeze_void_average_x
  _platon_squeeze_void_average_y
  _platon_squeeze_void_average_z
  _platon_squeeze_void_volume
  _platon_squeeze_void_count_electrons
  _platon_squeeze_void_content
   1  0.500  0.000  0.303      1421       403 ' '
   2  0.000  0.125  0.750        21         5 ' '
   3  0.000  0.500  0.540      1420       402 ' '
   4  0.500  0.379  0.250        20         5 ' '
   5  0.500  0.621  0.750        20         5 ' '
   6  0.000  0.879  0.250        20         5 ' '
# Missing Reflections Below sin(th)/lambda = 0.25
loop_
  _platon_missing_refln_index_h
  _platon_missing_refln_index_k
  _platon_missing_refln_index_l
  _platon_missing_refln_theta
    6    0    0     4.868
    1    1    0     1.281
    0    2    0     1.984
   -1    1    1     1.471
    1    1    1     1.756
   -1    3    1     3.168
   -3    5    1     5.494
   -5    1    2     4.093
   -6    2    2     5.103
   -4    2    2     3.835
   -6    4    2     6.158
    0    0    4     3.969
   -4    2    4     4.780
_platon_squeeze_void_probe_radius                  1.20
_platon_squeeze_details
)
TITL mo_TS222_A_0m in C2/c
CELL   26.2280   20.5339   21.4349     90.00    106.66     90.00
SPGR C2/c
# Solvent Accessible Volume =      2916
# Note: Atoms in Void as Cxxx and Qxxx all others
Q101 0.290 0.159 0.535 !       4.03 eA-3
Q102 0.374 0.237 0.371 !       3.76 eA-3
Q103 0.150 0.185 0.912 !       3.56 eA-3
C104 0.960 0.248 0.110 !       2.12 eA-3
C105 0.467 0.156 0.936 !       1.93 eA-3
Q106 0.500 0.328 0.248 !       1.76 eA-3
Q107 0.666 0.358 0.414 !       1.54 eA-3
C108 0.593 0.047 0.482 !       1.47 eA-3
C109 0.957 0.364 0.241 !       1.42 eA-3
C110 0.500 0.375 0.247 !       1.38 eA-3
Q111 0.469 0.218 0.994 !       1.38 eA-3
Q112 0.896 0.486 0.477 !       1.35 eA-3
Q113 0.927 0.501-0.005 !       1.34 eA-3
C114 0.976 0.265 0.030 !       1.32 eA-3
C115 0.030 0.296 0.267 !       1.32 eA-3
C116 0.053 0.388 0.186 !       1.32 eA-3
C117 0.537 0.220 0.863 !       1.30 eA-3
C118 0.515 0.205 0.245 !       1.29 eA-3
C119 0.513 0.202 0.994 !       1.29 eA-3
C120 0.028 0.279 0.404 !       1.26 eA-3
C121 0.438 0.095 0.870 !       1.26 eA-3
C122 0.032 0.250 0.568 !       1.25 eA-3
C123 0.999 0.314 0.062 !       1.25 eA-3
Q124 0.452 0.142 0.879 !       1.24 eA-3
Q125 0.017 0.247 0.032 !       1.24 eA-3
C126 0.562 0.267 0.053 !       1.22 eA-3
C127 0.046 0.375 0.083 !       1.22 eA-3
C128 0.008 0.280 0.534 !       1.20 eA-3
C129 1.000 0.313 0.746 !       1.20 eA-3
C130 0.421 0.126 0.313 !       1.20 eA-3
Q131 0.845 0.251 0.855 !       1.19 eA-3
Q132 0.056 0.328 0.829 !       1.18 eA-3
C133 0.437 0.112 0.771 !       1.18 eA-3
C134 0.554 0.050 0.490 !       1.18 eA-3
C135 0.070 0.437 0.016 !       1.18 eA-3
Q136 0.016 0.220 0.752 !       1.16 eA-3
C137 0.554 0.032 0.447 !       1.15 eA-3
Q138 0.965 0.283 0.548 !       1.15 eA-3
Q139 0.945 0.358 0.457 !       1.15 eA-3
C140 0.437 0.108 0.452 !       1.14 eA-3
Q141 0.545 0.142 0.849 !       1.14 eA-3
Q142 0.989 0.252 0.561 !       1.14 eA-3
C143 0.446 0.110 0.247 !       1.13 eA-3
Q144 0.438 0.245 0.461 !       1.12 eA-3
C145 0.500 0.125 0.752 !       1.12 eA-3
Q146 0.425 0.109 0.633 !       1.12 eA-3
C147 0.422 0.113 0.265 !       1.12 eA-3
C148 0.468 0.111 0.958 !       1.12 eA-3
Q149 0.523 0.261 0.100 !       1.12 eA-3
C150 0.055 0.452 0.523 !       1.12 eA-3
Q151 0.124 0.450 0.311 !       1.11 eA-3
C152 0.015 0.328 0.234 !       1.11 eA-3
Q153 0.993 0.266 0.733 !       1.10 eA-3
C154 0.897 0.376 0.775 !       1.10 eA-3
C155 0.474 0.096 0.760 !       1.10 eA-3
C156 0.476 0.271 0.571 !       1.09 eA-3
C157 0.524 0.078 0.029 !       1.09 eA-3
Q158 0.977 0.249 0.606 !       1.09 eA-3
C159 0.540 0.187 0.080 !       1.09 eA-3
C160 0.945 0.327 0.848 !       1.09 eA-3
C161 0.517 0.279 0.057 !       1.09 eA-3
Q162 0.599 0.078 0.243 !       1.08 eA-3
C163 0.078 0.378 0.643 !       1.08 eA-3
C164 0.476 0.142 0.039 !       1.08 eA-3
C165 0.969 0.360 0.298 !       1.08 eA-3
C166 0.490 0.141 0.312 !       1.08 eA-3
C167 0.936 0.407 0.789 !       1.08 eA-3
C168 0.450 0.064 0.771 !       1.07 eA-3
Q169 0.562 0.123 0.468 !       1.07 eA-3
C170 0.022 0.331 0.297 !       1.06 eA-3
Q171 0.077 0.375 0.317 !       1.06 eA-3
Q172 0.883 0.345 0.807 !       1.06 eA-3
C173 0.949 0.440 0.228 !       1.06 eA-3
C174 0.955 0.389 0.214 !       1.06 eA-3
C175 0.070 0.281 0.618 !       1.06 eA-3
C176 0.962 0.470 0.984 !       1.06 eA-3
C177 0.453 0.095 0.206 !       1.06 eA-3
C178 0.445 0.032 0.436 !       1.06 eA-3
C179 0.986 0.535 0.701 !       1.05 eA-3
C180 0.486 0.035 0.701 !       1.05 eA-3
C181 0.500 0.172 0.752 !       1.05 eA-3
C182 0.039 0.252 0.735 !       1.05 eA-3
C183 0.961 0.297 0.968 !       1.05 eA-3
C184 0.907 0.403 0.280 !       1.05 eA-3
Q185 0.915 0.251 0.891 !       1.05 eA-3
Q186 0.899 0.407 0.854 !       1.05 eA-3
Q187 0.383 0.094 0.004 !       1.05 eA-3
C188 0.412 0.144 0.147 !       1.05 eA-3
C189 0.595 0.047 0.797 !       1.04 eA-3
C190 0.072 0.404 0.972 !       1.04 eA-3
Q191 0.494 0.204 0.103 !       1.04 eA-3
C192 0.527 0.015 0.695 !       1.04 eA-3
C193 0.068 0.285 0.667 !       1.04 eA-3
Q194 0.438 0.171 0.712 !       1.04 eA-3
Q195 0.383 0.094 0.173 !       1.03 eA-3
C196 0.013 0.256 0.979 !       1.03 eA-3
Q197 0.956 0.406 0.119 !       1.02 eA-3
Q198 0.554 0.126 0.489 !       1.02 eA-3
C199 0.599 0.185 0.150 !       1.02 eA-3
)
;
_shelx_fab_checksum              11179
loop_
_space_group_symop_operation_xyz
'x, y, z'
'-x, y, -z+1/2'
'x+1/2, y+1/2, z'
'-x+1/2, y+1/2, -z+1/2'
'-x, -y, -z'
'x, -y, z-1/2'
'-x+1/2, -y+1/2, -z'
'x+1/2, -y+1/2, z-1/2'
loop_
_atom_site_label
_atom_site_type_symbol
_atom_site_fract_x
_atom_site_fract_y
_atom_site_fract_z
_atom_site_U_iso_or_equiv
_atom_site_adp_type
_atom_site_occupancy
_atom_site_site_symmetry_order
_atom_site_calc_flag
_atom_site_refinement_flags_posn
_atom_site_refinement_flags_adp
_atom_site_refinement_flags_occupancy
Cu3 Cu 0.27076(4) -0.69225(5) 0.75769(4) 0.0450(3) Uani 1 1 d . . .
Cu2 Cu 0.32338(3) -0.56843(4) 0.82668(4) 0.0336(2) Uani 1 1 d . . .
Cu1 Cu 0.37355(3) -0.44257(4) 0.84867(4) 0.0370(3) Uani 1 1 d . . .
O8 O 0.2580(2) -0.7313(2) 0.5658(2) 0.0468(14) Uani 1 1 d . . .
N6 N 0.2499(2) -0.6228(3) 0.6901(3) 0.0362(15) Uani 1 1 d . . .
O10 O 0.3794(3) -0.4173(3) 0.6630(3) 0.0627(17) Uani 1 1 d . . .
N9 N 0.3500(3) -0.6813(3) 0.7844(3) 0.0438(16) Uani 1 1 d . . .
O7 O 0.2298(3) -0.6096(3) 0.5787(2) 0.0675(19) Uani 1 1 d . . .
O7W O 0.1940(2) -0.6991(3) 0.7554(3) 0.0719(19) Uani 1 1 d . . .
H7A H 0.1819 -0.7438 0.7613 0.108 Uiso 1 1 d R U .
H7B H 0.1893 -0.6716 0.7912 0.108 Uiso 1 1 d R U .
O13 O 0.4235(3) -0.7406(4) 0.8406(4) 0.109(3) Uani 1 1 d . . .
C25 C 0.3385(5) -0.7711(5) 0.8481(4) 0.067(3) Uani 1 1 d . . .
C7 C 0.3040(3) -0.6210(4) 0.9332(4) 0.048(2) Uani 1 1 d D . .
O2 O 0.2863(2) -0.3482(3) 0.4722(3) 0.0714(19) Uani 1 1 d . . .
C3 C 0.5254(3) -0.5736(5) 0.9531(4) 0.047(2) Uani 1 1 d . . .
H3 H 0.5546 -0.5997 0.9726 0.057 Uiso 1 1 calc R U .
C2 C 0.5330(3) -0.5132(5) 0.9321(4) 0.047(2) Uani 1 1 d . . .
H2 H 0.5672 -0.4973 0.9376 0.057 Uiso 1 1 calc R U .
N2 N 0.4948(3) -0.4148(4) 0.8786(4) 0.066(2) Uani 1 1 d . . .
H1N H 0.4672 -0.3920 0.8600 0.079 Uiso 1 1 calc R U .
H2N H 0.5261 -0.3997 0.8821 0.079 Uiso 1 1 calc R U .
C16 C 0.2591(3) -0.7145(4) 0.6223(4) 0.0412(19) Uani 1 1 d . . .
C15 C 0.2443(3) -0.6427(4) 0.6289(3) 0.041(2) Uani 1 1 d . . .
O6 O 0.36777(19) -0.4043(2) 0.9288(2) 0.0430(13) Uani 1 1 d . . .
C13 C 0.3203(3) -0.6059(4) 0.4318(3) 0.0387(19) Uani 1 1 d . . .
C14 C 0.2748(3) -0.5806(4) 0.3751(3) 0.0393(19) Uani 1 1 d . . .
N5 N 0.2918(2) -0.4478(3) 0.8291(3) 0.0369(15) Uani 1 1 d . . .
C8 C 0.2546(3) -0.4712(4) 0.7722(3) 0.0348(18) Uani 1 1 d . . .
N4 N 0.2636(2) -0.5323(3) 0.7572(3) 0.0329(14) Uani 1 1 d . . .
C12 C 0.2351(3) -0.5586(4) 0.7007(3) 0.0365(18) Uani 1 1 d . . .
C11 C 0.1930(3) -0.5240(4) 0.6587(4) 0.057(2) Uani 1 1 d . . .
H11 H 0.1719 -0.5426 0.6205 0.069 Uiso 1 1 calc R U .
C10 C 0.1838(4) -0.4609(5) 0.6761(4) 0.065(3) Uani 1 1 d . . .
H10 H 0.1563 -0.4367 0.6490 0.078 Uiso 1 1 calc R U .
C9 C 0.2146(3) -0.4338(4) 0.7323(4) 0.054(2) Uani 1 1 d . . .
H9 H 0.2088 -0.3913 0.7436 0.065 Uiso 1 1 calc R U .
O4 O 0.2289(2) -0.5884(3) 0.3775(3) 0.0555(16) Uani 1 1 d . . .
O5 O 0.30840(19) -0.6349(3) 0.4767(2) 0.0500(14) Uani 1 1 d . . .
O12 O 0.3795(2) -0.3454(2) 0.8097(3) 0.0558(15) Uani 1 1 d . . .
C23 C 0.3697(3) -0.3482(4) 0.7489(4) 0.043(2) Uani 1 1 d . . .
O11 O 0.3568(2) -0.3026(3) 0.7098(3) 0.0595(17) Uani 1 1 d . . .
C22 C 0.3770(3) -0.4147(4) 0.7205(4) 0.043(2) Uani 1 1 d . . .
N8 N 0.3816(2) -0.4642(3) 0.7613(3) 0.0335(14) Uani 1 1 d . . .
C17 C 0.3926(3) -0.5275(4) 0.7443(3) 0.0412(19) Uani 1 1 d . . .
C18 C 0.4262(3) -0.5426(4) 0.7066(4) 0.057(2) Uani 1 1 d . . .
H18 H 0.4420 -0.5094 0.6891 0.068 Uiso 1 1 calc R U .
C19 C 0.4358(4) -0.6050(4) 0.6956(5) 0.078(3) Uani 1 1 d . . .
H19 H 0.4592 -0.6154 0.6717 0.094 Uiso 1 1 calc R U .
C20 C 0.4101(4) -0.6548(4) 0.7205(4) 0.067(3) Uani 1 1 d . . .
H20 H 0.4146 -0.6982 0.7111 0.080 Uiso 1 1 calc R U .
C21 C 0.3791(3) -0.6382(4) 0.7579(4) 0.0407(19) Uani 1 1 d . . .
C24 C 0.3770(5) -0.7299(5) 0.8233(5) 0.062(3) Uani 1 1 d . . .
O15 O 0.2879(3) -0.7608(3) 0.8235(3) 0.0632(18) Uani 1 1 d . . .
O14 O 0.3556(3) -0.8136(3) 0.8882(4) 0.104(3) Uani 1 1 d . . .
N7 N 0.3705(2) -0.5757(3) 0.7695(3) 0.0324(14) Uani 1 1 d . . .
N1 N 0.4383(2) -0.4957(3) 0.8950(3) 0.0334(14) Uani 1 1 d . . .
C5 C 0.4320(3) -0.5552(4) 0.9181(3) 0.0335(18) Uani 1 1 d . . .
N3 N 0.3793(2) -0.5737(3) 0.9087(3) 0.0340(14) Uani 1 1 d . . .
C6 C 0.3637(3) -0.6035(4) 0.9558(4) 0.0401(19) Uani 1 1 d D . .
O1 O 0.3901(2) -0.6162(3) 1.0128(2) 0.0581(16) Uani 1 1 d . . .
C4 C 0.4747(3) -0.5964(4) 0.9457(3) 0.043(2) Uani 1 1 d . . .
H4 H 0.4690 -0.6383 0.9588 0.052 Uiso 1 1 calc R U .
C1 C 0.4891(3) -0.4756(4) 0.9026(4) 0.046(2) Uani 1 1 d . . .
O9 O 0.2719(2) -0.7498(2) 0.6720(2) 0.0578(16) Uani 1 1 d . . .
O3 O 0.27705(19) -0.6034(3) 0.8764(2) 0.0474(14) Uani 1 1 d . . .
Sr1 Sr 0.34725(3) -0.31932(5) 0.58725(4) 0.0586(3) Uani 1 1 d . . .
Sr2 Sr 0.20880(3) -0.66051(4) 0.46584(3) 0.0405(2) Uani 1 1 d . . .
O5W O 0.1395(3) -0.6844(4) 0.3493(4) 0.103(2) Uani 1 1 d . . .
H5B H 0.1133 -0.6520 0.3537 0.155 Uiso 1 1 d R U .
H5A H 0.1579 -0.6795 0.3153 0.155 Uiso 1 1 d R U .
O4W O 0.1397(3) -0.7451(4) 0.4890(4) 0.106(3) Uani 1 1 d . . .
H4A H 0.1525 -0.7900 0.4852 0.158 Uiso 1 1 d R U .
H4B H 0.1044 -0.7388 0.4566 0.158 Uiso 1 1 d R U .
O1W O 0.4460(3) -0.2839(4) 0.6357(4) 0.119(3) Uani 1 1 d . . .
H1A H 0.4463 -0.2351 0.6441 0.179 Uiso 1 1 d R U .
H1B H 0.4663 -0.2920 0.6043 0.179 Uiso 1 1 d R U .
O3W O 0.2581(4) -0.3484(6) 0.5976(5) 0.187(6) Uani 1 1 d . . .
H3A H 0.2529 -0.3880 0.5967 0.280 Uiso 1 1 d R U .
H3B H 0.2340 -0.3277 0.6067 0.280 Uiso 1 1 d R U .
O2W O 0.3020(5) -0.2143(6) 0.5961(5) 0.219(7) Uani 1 1 d . . .
H2B H 0.3315 -0.1819 0.5980 0.328 Uiso 1 1 d R U .
H2A H 0.2715 -0.1976 0.5604 0.328 Uiso 1 1 d R U .
O6W O 0.1313(5) -0.5797(7) 0.4538(6) 0.234(7) Uani 1 1 d . . .
H6A H 0.1441 -0.5437 0.4852 0.351 Uiso 1 1 d R U .
H6B H 0.0989 -0.5978 0.4629 0.351 Uiso 1 1 d R U .
O9W O 0.3034(7) -0.4921(8) 0.5595(7) 0.138(7) Uani 0.5 1 d . . P
H9A H 0.3348 -0.4823 0.5975 0.207 Uiso 0.5 1 d R U P
H9B H 0.3160 -0.5054 0.5223 0.207 Uiso 0.5 1 d R U P
O10W O 0.2011(13) -0.4537(14) 0.5111(13) 0.176(15) Uani 0.35 1 d . . P
H10A H 0.2176 -0.4243 0.4923 0.265 Uiso 0.35 1 d R U P
H10B H 0.2235 -0.4915 0.5234 0.265 Uiso 0.35 1 d R U P
O11W O 0.1656(9) -0.4453(14) 0.3477(14) 0.184(13) Uani 0.4 1 d . . P
H11A H 0.2032 -0.4456 0.3471 0.276 Uiso 0.4 1 d R U P
H11B H 0.1437 -0.4855 0.3498 0.276 Uiso 0.4 1 d R U P
O8W O 0.3825(8) -0.2243(6) 0.5242(5) 0.278(9) Uani 1 1 d . . .
H8A H 0.3672 -0.1849 0.4971 0.418 Uiso 1 1 d R U .
H8B H 0.4084 -0.2200 0.4977 0.418 Uiso 1 1 d R U .
loop_
_atom_site_aniso_label
_atom_site_aniso_U_11
_atom_site_aniso_U_22
_atom_site_aniso_U_33
_atom_site_aniso_U_23
_atom_site_aniso_U_13
_atom_site_aniso_U_12
Cu3 0.0735(7) 0.0385(6) 0.0281(5) -0.0015(4) 0.0230(5) -0.0110(5)
Cu2 0.0429(5) 0.0392(6) 0.0222(5) -0.0001(4) 0.0147(4) -0.0030(4)
Cu1 0.0476(5) 0.0408(6) 0.0263(5) -0.0046(4) 0.0165(4) 0.0016(4)
O8 0.077(4) 0.042(3) 0.025(3) -0.008(2) 0.021(3) 0.000(3)
N6 0.059(4) 0.032(4) 0.019(3) 0.000(3) 0.013(3) -0.002(3)
O10 0.121(5) 0.041(4) 0.039(3) -0.003(3) 0.043(3) 0.010(3)
N9 0.071(5) 0.031(4) 0.031(4) 0.004(3) 0.016(3) -0.001(3)
O7 0.137(6) 0.044(4) 0.023(3) 0.003(3) 0.027(3) 0.016(4)
O7W 0.091(5) 0.057(4) 0.081(5) 0.009(3) 0.046(4) -0.020(4)
O13 0.076(5) 0.096(6) 0.147(8) 0.058(5) 0.019(5) 0.014(5)
C25 0.119(9) 0.044(6) 0.033(5) 0.003(5) 0.012(6) -0.006(6)
C7 0.048(5) 0.052(6) 0.050(5) -0.006(4) 0.026(4) -0.022(4)
O2 0.068(4) 0.110(5) 0.039(3) -0.021(3) 0.018(3) 0.041(4)
C3 0.040(5) 0.070(7) 0.034(5) -0.008(4) 0.015(4) 0.008(5)
C2 0.036(5) 0.065(7) 0.044(5) -0.007(5) 0.017(4) 0.003(4)
N2 0.049(4) 0.068(6) 0.084(6) 0.016(5) 0.023(4) -0.015(4)
C16 0.061(5) 0.022(5) 0.044(5) -0.010(4) 0.020(4) -0.010(4)
C15 0.069(5) 0.036(5) 0.024(4) -0.002(4) 0.021(4) -0.004(4)
O6 0.048(3) 0.052(4) 0.028(3) -0.011(2) 0.009(2) 0.000(3)
C13 0.062(5) 0.027(5) 0.031(4) 0.000(3) 0.020(4) -0.002(4)
C14 0.056(5) 0.039(5) 0.023(4) 0.005(4) 0.012(4) -0.004(4)
N5 0.044(4) 0.039(4) 0.028(3) -0.016(3) 0.011(3) 0.000(3)
C8 0.036(4) 0.041(5) 0.026(4) -0.006(4) 0.007(3) 0.005(4)
N4 0.047(4) 0.036(4) 0.016(3) -0.005(3) 0.009(3) 0.002(3)
C12 0.053(5) 0.034(5) 0.026(4) -0.001(4) 0.017(4) -0.002(4)
C11 0.065(6) 0.055(6) 0.041(5) -0.017(5) -0.003(4) 0.004(5)
C10 0.070(6) 0.071(7) 0.041(5) -0.008(5) -0.003(5) 0.018(5)
C9 0.069(6) 0.044(6) 0.046(5) -0.018(4) 0.012(5) 0.007(5)
O4 0.042(3) 0.078(4) 0.050(4) 0.031(3) 0.019(3) -0.005(3)
O5 0.055(3) 0.065(4) 0.033(3) 0.022(3) 0.016(3) -0.003(3)
O12 0.105(5) 0.034(3) 0.033(3) -0.003(3) 0.027(3) 0.002(3)
C23 0.068(5) 0.035(5) 0.036(5) -0.007(4) 0.028(4) -0.002(4)
O11 0.114(5) 0.038(4) 0.033(3) 0.007(3) 0.032(3) 0.028(3)
C22 0.065(5) 0.043(5) 0.029(4) -0.003(4) 0.026(4) 0.010(4)
N8 0.050(4) 0.028(4) 0.028(3) -0.005(3) 0.019(3) -0.002(3)
C17 0.058(5) 0.043(5) 0.028(4) 0.001(4) 0.020(4) -0.005(4)
C18 0.082(6) 0.037(5) 0.073(6) 0.001(5) 0.057(5) 0.002(5)
C19 0.133(9) 0.049(6) 0.092(8) -0.011(5) 0.094(7) -0.004(6)
C20 0.121(8) 0.033(5) 0.074(7) -0.014(5) 0.073(6) 0.003(5)
C21 0.061(5) 0.028(5) 0.042(5) -0.002(4) 0.030(4) -0.001(4)
C24 0.086(7) 0.043(6) 0.057(6) -0.001(5) 0.023(6) -0.007(6)
O15 0.115(5) 0.049(4) 0.031(3) 0.004(3) 0.030(4) -0.029(4)
O14 0.142(7) 0.072(5) 0.088(6) 0.046(5) 0.016(5) -0.010(5)
N7 0.042(3) 0.036(4) 0.023(3) 0.001(3) 0.015(3) -0.004(3)
N1 0.040(4) 0.040(4) 0.025(3) 0.000(3) 0.017(3) -0.007(3)
C5 0.032(4) 0.051(5) 0.020(4) -0.003(4) 0.012(3) 0.000(4)
N3 0.039(3) 0.044(4) 0.023(3) 0.004(3) 0.015(3) -0.006(3)
C6 0.043(5) 0.043(5) 0.033(5) -0.001(4) 0.009(4) -0.010(4)
O1 0.055(3) 0.083(4) 0.035(3) 0.018(3) 0.010(3) -0.018(3)
C4 0.049(5) 0.053(5) 0.029(4) 0.000(4) 0.011(4) 0.000(4)
C1 0.060(6) 0.047(6) 0.032(5) -0.004(4) 0.016(4) -0.008(5)
O9 0.119(5) 0.029(3) 0.027(3) 0.003(3) 0.024(3) 0.005(3)
O3 0.044(3) 0.070(4) 0.028(3) 0.006(3) 0.010(2) -0.012(3)
Sr1 0.0732(6) 0.0796(7) 0.0267(4) 0.0021(4) 0.0201(4) 0.0323(5)
Sr2 0.0579(5) 0.0435(5) 0.0259(4) 0.0032(3) 0.0211(3) -0.0007(4)
O5W 0.110(6) 0.097(6) 0.087(6) -0.017(5) 0.005(5) -0.022(5)
O4W 0.071(5) 0.101(6) 0.147(7) 0.062(5) 0.035(5) -0.003(4)
O1W 0.130(7) 0.099(6) 0.137(8) -0.016(6) 0.053(6) -0.005(5)
O3W 0.112(7) 0.330(16) 0.142(9) -0.094(10) 0.075(7) -0.059(9)
O2W 0.286(14) 0.244(14) 0.116(8) 0.025(8) 0.041(9) 0.211(12)
O6W 0.261(15) 0.268(16) 0.181(12) 0.018(11) 0.078(11) 0.173(13)
O9W 0.191(17) 0.117(14) 0.069(10) -0.015(10) -0.021(11) -0.099(13)
O10W 0.28(4) 0.16(2) 0.14(2) -0.077(19) 0.13(2) -0.17(3)
O11W 0.115(18) 0.23(3) 0.26(3) -0.05(3) 0.13(2) 0.001(18)
O8W 0.58(3) 0.128(10) 0.122(9) 0.043(8) 0.083(13) -0.055(13)
loop_
_atom_type_symbol
_atom_type_description
_atom_type_scat_dispersion_real
_atom_type_scat_dispersion_imag
_atom_type_scat_source
C C 0.0033 0.0016 'International Tables Vol C Tables 4.2.6.8 and 6.1.1.4'
H H 0.0000 0.0000 'International Tables Vol C Tables 4.2.6.8 and 6.1.1.4'
N N 0.0061 0.0033 'International Tables Vol C Tables 4.2.6.8 and 6.1.1.4'
O O 0.0106 0.0060 'International Tables Vol C Tables 4.2.6.8 and 6.1.1.4'
Cu Cu 0.3201 1.2651 'International Tables Vol C Tables 4.2.6.8 and 6.1.1.4'
Sr Sr -1.5307 3.2498 'International Tables Vol C Tables 4.2.6.8 and 6.1.1.4'
loop_
_geom_angle_atom_site_label_1
_geom_angle_atom_site_label_2
_geom_angle_atom_site_label_3
_geom_angle
_geom_angle_site_symmetry_1
_geom_angle_site_symmetry_3
O15 Cu3 N6 177.5(3) . .
O15 Cu3 O7W 89.3(3) . .
N6 Cu3 O7W 88.1(2) . .
O15 Cu3 N9 82.5(3) . .
N6 Cu3 N9 100.0(2) . .
O7W Cu3 N9 165.3(2) . .
O15 Cu3 O9 99.3(2) . .
N6 Cu3 O9 81.0(2) . .
O7W Cu3 O9 101.3(2) . .
N9 Cu3 O9 92.2(2) . .
N3 Cu2 O3 85.0(2) . .
N3 Cu2 N4 159.2(2) . .
O3 Cu2 N4 93.8(2) . .
N3 Cu2 N7 96.4(2) . .
O3 Cu2 N7 154.2(2) . .
N4 Cu2 N7 93.6(2) . .
N3 Cu2 Cu1 73.18(17) . .
O3 Cu2 Cu1 124.29(16) . .
N4 Cu2 Cu1 90.75(18) . .
N7 Cu2 Cu1 80.29(17) . .
O6 Cu1 N8 168.8(2) . .
O6 Cu1 N1 93.0(2) . .
N8 Cu1 N1 92.3(2) . .
O6 Cu1 N5 82.0(2) . .
N8 Cu1 N5 100.4(2) . .
N1 Cu1 N5 138.4(2) . .
O6 Cu1 O12 90.0(2) . .
N8 Cu1 O12 78.8(2) . .
N1 Cu1 O12 122.5(2) . .
N5 Cu1 O12 98.8(2) . .
O6 Cu1 Cu2 111.21(16) . .
N8 Cu1 Cu2 79.19(17) . .
N1 Cu1 Cu2 82.88(17) . .
N5 Cu1 Cu2 61.37(16) . .
O12 Cu1 Cu2 146.81(15) . .
C16 O8 Sr2 125.7(5) . 7_536
C16 O8 Sr2 120.7(5) . .
Sr2 O8 Sr2 113.23(17) 7_536 .
C15 N6 C12 119.1(6) . .
C15 N6 Cu3 115.0(5) . .
C12 N6 Cu3 125.5(4) . .
C22 O10 Sr1 119.3(5) . .
C24 N9 C21 117.9(7) . .
C24 N9 Cu3 113.9(6) . .
C21 N9 Cu3 126.9(5) . .
C15 O7 Sr2 121.9(5) . .
Cu3 O7W H7A 114.8 . .
Cu3 O7W H7B 106.8 . .
H7A O7W H7B 108.2 . .
O14 C25 O15 122.1(10) . .
O14 C25 C24 119.8(11) . .
O15 C25 C24 118.0(9) . .
O2 C7 O3 125.2(6) 6_546 .
O2 C7 C6 116.8(7) 6_546 .
O3 C7 C6 118.0(6) . .
O3 C7 Sr1 166.2(5) . 6_546
C6 C7 Sr1 75.7(4) . 6_546
C7 O2 Sr1 120.6(5) 6_545 .
C2 C3 C4 120.2(8) . .
C2 C3 H3 119.9 . .
C4 C3 H3 119.9 . .
C3 C2 C1 118.9(7) . .
C3 C2 H2 120.6 . .
C1 C2 H2 120.6 . .
C1 N2 H1N 120.0 . .
C1 N2 H2N 120.0 . .
H1N N2 H2N 120.0 . .
O9 C16 O8 126.1(7) . .
O9 C16 C15 119.3(7) . .
O8 C16 C15 114.6(7) . .
O7 C15 N6 127.1(7) . .
O7 C15 C16 118.0(6) . .
N6 C15 C16 114.9(7) . .
C13 O6 Cu1 115.8(4) 6_546 .
O5 C13 O6 125.4(7) . 6_545
O5 C13 C14 117.7(7) . .
O6 C13 C14 116.9(6) 6_545 .
O4 C14 N5 129.0(7) . 6_545
O4 C14 C13 118.3(6) . .
N5 C14 C13 112.8(7) 6_545 .
C14 N5 C8 119.8(6) 6_546 .
C14 N5 Cu1 112.1(5) 6_546 .
C8 N5 Cu1 127.8(4) . .
N4 C8 C9 122.1(7) . .
N4 C8 N5 113.8(6) . .
C9 C8 N5 124.0(7) . .
C8 N4 C12 120.4(6) . .
C8 N4 Cu2 109.3(5) . .
C12 N4 Cu2 130.3(5) . .
N4 C12 N6 114.6(6) . .
N4 C12 C11 120.5(7) . .
N6 C12 C11 124.9(7) . .
C10 C11 C12 117.8(7) . .
C10 C11 H11 121.1 . .
C12 C11 H11 121.1 . .
C9 C10 C11 121.0(8) . .
C9 C10 H10 119.5 . .
C11 C10 H10 119.5 . .
C10 C9 C8 118.2(8) . .
C10 C9 H9 120.9 . .
C8 C9 H9 120.9 . .
C14 O4 Sr2 120.9(5) . .
C13 O5 Sr2 119.6(5) . .
C23 O12 Cu1 109.8(5) . .
O11 C23 O12 127.1(7) . .
O11 C23 C22 116.7(7) . .
O12 C23 C22 116.2(7) . .
C23 O11 Sr1 120.9(5) . .
O10 C22 N8 126.7(7) . .
O10 C22 C23 118.4(7) . .
N8 C22 C23 114.8(6) . .
C22 N8 C17 121.7(6) . .
C22 N8 Cu1 115.9(5) . .
C17 N8 Cu1 122.4(5) . .
N7 C17 C18 119.3(7) . .
N7 C17 N8 115.8(6) . .
C18 C17 N8 124.7(7) . .
C19 C18 C17 119.8(8) . .
C19 C18 H18 120.1 . .
C17 C18 H18 120.1 . .
C18 C19 C20 119.6(7) . .
C18 C19 H19 120.2 . .
C20 C19 H19 120.2 . .
C21 C20 C19 118.6(8) . .
C21 C20 H20 120.7 . .
C19 C20 H20 120.7 . .
N7 C21 C20 121.3(7) . .
N7 C21 N9 113.1(6) . .
C20 C21 N9 125.5(7) . .
O13 C24 N9 129.2(9) . .
O13 C24 C25 120.7(10) . .
N9 C24 C25 109.9(9) . .
C25 O15 Cu3 114.1(6) . .
C21 N7 C17 121.3(6) . .
C21 N7 Cu2 110.8(4) . .
C17 N7 Cu2 127.9(5) . .
C5 N1 C1 116.9(6) . .
C5 N1 Cu1 119.7(4) . .
C1 N1 Cu1 123.4(5) . .
N1 C5 C4 122.7(6) . .
N1 C5 N3 114.7(6) . .
C4 C5 N3 122.5(7) . .
C6 N3 C5 121.4(6) . .
C6 N3 Cu2 113.1(4) . .
C5 N3 Cu2 125.2(4) . .
O1 C6 N3 129.1(6) . .
O1 C6 C7 119.1(6) . .
N3 C6 C7 111.8(6) . .
N3 C6 Sr1 170.1(5) . 6_546
C7 C6 Sr1 77.9(4) . 6_546
C6 O1 Sr1 120.0(4) . 6_546
C3 C4 C5 118.2(8) . .
C3 C4 H4 120.9 . .
C5 C4 H4 120.9 . .
N1 C1 N2 116.2(7) . .
N1 C1 C2 123.0(8) . .
N2 C1 C2 120.8(8) . .
C16 O9 Cu3 109.6(5) . .
C7 O3 Cu2 111.2(4) . .
O3W Sr1 O2W 73.8(5) . .
O3W Sr1 O1 121.5(3) . 6_545
O2W Sr1 O1 142.7(3) . 6_545
O3W Sr1 O10 84.4(3) . .
O2W Sr1 O10 134.8(3) . .
O1 Sr1 O10 82.35(17) 6_545 .
O3W Sr1 O11 76.2(3) . .
O2W Sr1 O11 73.6(2) . .
O1 Sr1 O11 140.11(17) 6_545 .
O10 Sr1 O11 62.90(16) . .
O3W Sr1 O1W 152.4(3) . .
O2W Sr1 O1W 99.7(4) . .
O1 Sr1 O1W 80.2(2) 6_545 .
O10 Sr1 O1W 81.9(2) . .
O11 Sr1 O1W 76.3(2) . .
O3W Sr1 O2 72.0(3) . .
O2W Sr1 O2 95.3(3) . .
O1 Sr1 O2 63.33(16) 6_545 .
O10 Sr1 O2 115.0(2) . .
O11 Sr1 O2 148.06(19) . .
O1W Sr1 O2 135.7(2) . .
O3W Sr1 O8W 133.5(5) . .
O2W Sr1 O8W 69.5(5) . .
O1 Sr1 O8W 77.6(4) 6_545 .
O10 Sr1 O8W 142.1(4) . .
O11 Sr1 O8W 117.9(3) . .
O1W Sr1 O8W 63.3(4) . .
O2 Sr1 O8W 84.0(3) . .
O3W Sr1 H3A 15.1 . .
O2W Sr1 H3A 88.9 . .
O1 Sr1 H3A 109.1 6_545 .
O10 Sr1 H3A 73.0 . .
O11 Sr1 H3A 80.2 . .
O1W Sr1 H3A 151.4 . .
O2 Sr1 H3A 69.5 . .
O8W Sr1 H3A 144.2 . .
O3W Sr1 H2B 93.9 . .
O2W Sr1 H2B 20.2 . .
O1 Sr1 H2B 131.0 6_545 .
O10 Sr1 H2B 138.3 . .
O11 Sr1 H2B 76.2 . .
O1W Sr1 H2B 81.0 . .
O2 Sr1 H2B 103.8 . .
O8W Sr1 H2B 53.5 . .
H3A Sr1 H2B 109.0 . .
O7 Sr2 O8 127.83(17) . 7_536
O7 Sr2 O6W 77.3(3) . .
O8 Sr2 O6W 148.7(4) 7_536 .
O7 Sr2 O4 115.32(19) . .
O8 Sr2 O4 98.53(17) 7_536 .
O6W Sr2 O4 83.0(3) . .
O7 Sr2 O8 61.75(16) . .
O8 Sr2 O8 66.77(17) 7_536 .
O6W Sr2 O8 129.2(3) . .
O4 Sr2 O8 140.24(16) . .
O7 Sr2 O5 83.87(19) . .
O8 Sr2 O5 77.84(17) 7_536 .
O6W Sr2 O5 128.3(4) . .
O4 Sr2 O5 62.56(15) . .
O8 Sr2 O5 78.00(16) . .
O7 Sr2 O4W 93.7(2) . .
O8 Sr2 O4W 77.5(2) 7_536 .
O6W Sr2 O4W 83.0(4) . .
O4 Sr2 O4W 143.9(2) . .
O8 Sr2 O4W 71.61(19) . .
O5 Sr2 O4W 146.51(19) . .
O7 Sr2 O5W 149.9(2) . .
O8 Sr2 O5W 77.6(2) 7_536 .
O6W Sr2 O5W 73.7(3) . .
O4 Sr2 O5W 69.3(2) . .
O8 Sr2 O5W 135.1(2) . .
O5 Sr2 O5W 121.0(2) . .
O4W Sr2 O5W 74.8(2) . .
O7 Sr2 Sr2 94.39(13) . 7_536
O8 Sr2 Sr2 33.80(11) 7_536 7_536
O6W Sr2 Sr2 152.6(3) . 7_536
O4 Sr2 Sr2 123.59(13) . 7_536
O8 Sr2 Sr2 32.97(10) . 7_536
O5 Sr2 Sr2 75.48(12) . 7_536
O4W Sr2 Sr2 71.39(15) . 7_536
O5W Sr2 Sr2 107.54(17) . 7_536
O7 Sr2 H5B 130.9 . .
O8 Sr2 H5B 96.3 7_536 .
O6W Sr2 H5B 54.3 . .
O4 Sr2 H5B 70.8 . .
O8 Sr2 H5B 144.2 . .
O5 Sr2 H5B 131.2 . .
O4W Sr2 H5B 74.0 . .
O5W Sr2 H5B 19.4 . .
Sr2 Sr2 H5B 123.8 7_536 .
Sr2 O5W H5B 95.4 . .
Sr2 O5W H5A 109.0 . .
H5B O5W H5A 120.4 . .
Sr2 O4W H4A 109.1 . .
Sr2 O4W H4B 109.4 . .
H4A O4W H4B 109.4 . .
Sr1 O1W H1A 107.7 . .
Sr1 O1W H1B 110.6 . .
H1A O1W H1B 108.0 . .
Sr1 O3W H3A 113.0 . .
Sr1 O3W H3B 134.2 . .
H3A O3W H3B 112.3 . .
Sr1 O2W H2B 101.3 . .
Sr1 O2W H2A 122.3 . .
H2B O2W H2A 103.9 . .
Sr2 O6W H6A 107.8 . .
Sr2 O6W H6B 115.6 . .
H6A O6W H6B 106.7 . .
H9A O9W H9B 109.0 . .
H10A O10W H10B 109.1 . .
H11A O11W H11B 125.0 . .
Sr1 O8W H8A 137.3 . .
Sr1 O8W H8B 137.2 . .
H8A O8W H8B 80.1 . .
loop_
_geom_bond_atom_site_label_1
_geom_bond_atom_site_label_2
_geom_bond_distance
_geom_bond_site_symmetry_2
Cu3 O15 1.951(6) .
Cu3 N6 1.995(6) .
Cu3 O7W 2.004(6) .
Cu3 N9 2.005(7) .
Cu3 O9 2.191(5) .
Cu2 N3 1.943(5) .
Cu2 O3 1.967(5) .
Cu2 N4 1.971(6) .
Cu2 N7 1.981(5) .
Cu2 Cu1 2.8771(13) .
Cu1 O6 1.934(5) .
Cu1 N8 1.993(5) .
Cu1 N1 2.024(6) .
Cu1 N5 2.066(6) .
Cu1 O12 2.186(5) .
O8 C16 1.253(8) .
O8 Sr2 2.547(5) 7_536
O8 Sr2 2.604(5) .
N6 C15 1.340(8) .
N6 C12 1.410(9) .
O10 C22 1.252(8) .
O10 Sr1 2.570(5) .
N9 C24 1.362(11) .
N9 C21 1.392(9) .
O7 C15 1.238(8) .
O7 Sr2 2.547(5) .
O7W H7A 0.9915 .
O7W H7B 0.9898 .
O13 C24 1.188(11) .
C25 O14 1.216(10) .
C25 O15 1.298(11) .
C25 C24 1.525(13) .
C7 O2 1.240(9) 6_546
C7 O3 1.274(9) .
C7 C6 1.543(7) .
C7 Sr1 3.397(9) 6_546
O2 C7 1.240(8) 6_545
O2 Sr1 2.593(6) .
C3 C2 1.353(11) .
C3 C4 1.377(10) .
C3 H3 0.9300 .
C2 C1 1.380(10) .
C2 H2 0.9300 .
N2 C1 1.374(10) .
N2 H1N 0.8600 .
N2 H2N 0.8600 .
C16 O9 1.252(9) .
C16 C15 1.541(10) .
O6 C13 1.282(8) 6_546
C13 O5 1.246(8) .
C13 O6 1.282(8) 6_545
C13 C14 1.528(10) .
C14 O4 1.231(8) .
C14 N5 1.328(8) 6_545
N5 C14 1.328(8) 6_546
N5 C8 1.411(8) .
C8 N4 1.332(9) .
C8 C9 1.382(10) .
N4 C12 1.341(8) .
C12 C11 1.403(10) .
C11 C10 1.388(11) .
C11 H11 0.9300 .
C10 C9 1.362(11) .
C10 H10 0.9300 .
C9 H9 0.9300 .
O4 Sr2 2.574(5) .
O5 Sr2 2.609(5) .
O12 C23 1.257(9) .
C23 O11 1.237(9) .
C23 C22 1.530(10) .
O11 Sr1 2.590(5) .
C22 N8 1.324(9) .
N8 C17 1.402(9) .
C17 N7 1.336(8) .
C17 C18 1.392(10) .
C18 C19 1.340(11) .
C18 H18 0.9300 .
C19 C20 1.410(11) .
C19 H19 0.9300 .
C20 C21 1.339(10) .
C20 H20 0.9300 .
C21 N7 1.339(9) .
N1 C5 1.344(9) .
N1 C1 1.357(9) .
C5 C4 1.393(10) .
C5 N3 1.392(8) .
N3 C6 1.341(8) .
C6 O1 1.246(8) .
C6 Sr1 3.367(7) 6_546
O1 Sr1 2.567(5) 6_546
C4 H4 0.9300 .
Sr1 O3W 2.485(8) .
Sr1 O2W 2.495(9) .
Sr1 O1 2.567(5) 6_545
Sr1 O1W 2.602(8) .
Sr1 O8W 2.684(12) .
Sr1 H3A 2.9060 .
Sr1 H2B 2.8699 .
Sr2 O8 2.547(5) 7_536
Sr2 O6W 2.579(9) .
Sr2 O4W 2.658(6) .
Sr2 O5W 2.680(7) .
Sr2 H5B 2.9389 .
O5W H5B 0.9793 .
O5W H5A 0.9892 .
O4W H4A 0.9930 .
O4W H4B 0.9937 .
O1W H1A 1.0176 .
O1W H1B 0.9849 .
O3W H3A 0.8224 .
O3W H3B 0.8314 .
O2W H2B 1.0114 .
O2W H2A 0.9955 .
O6W H6A 0.9921 .
O6W H6B 0.9962 .
O9W H9A 0.9996 .
O9W H9B 0.9856 .
O10W H10A 0.9016 .
O10W H10B 0.9652 .
O11W H11A 0.9893 .
O11W H11B 1.0145 .
O8W H8A 1.0090 .
O8W H8B 1.0051 .
loop_
_geom_torsion_atom_site_label_1
_geom_torsion_atom_site_label_2
_geom_torsion_atom_site_label_3
_geom_torsion_atom_site_label_4
_geom_torsion
_geom_torsion_site_symmetry_1
_geom_torsion_site_symmetry_4
C4 C3 C2 C1 -0.9(11) . .
Sr2 O8 C16 O9 -7.2(11) 7_536 .
Sr2 O8 C16 O9 165.0(6) . .
Sr2 O8 C16 C15 171.2(4) 7_536 .
Sr2 O8 C16 C15 -16.6(8) . .
Sr2 O7 C15 N6 -170.9(6) . .
Sr2 O7 C15 C16 10.8(10) . .
C12 N6 C15 O7 4.4(12) . .
Cu3 N6 C15 O7 177.3(7) . .
C12 N6 C15 C16 -177.3(6) . .
Cu3 N6 C15 C16 -4.4(8) . .
O9 C16 C15 O7 -177.4(8) . .
O8 C16 C15 O7 4.1(11) . .
O9 C16 C15 N6 4.1(11) . .
O8 C16 C15 N6 -174.4(6) . .
O5 C13 C14 O4 2.0(11) . .
O6 C13 C14 O4 -178.3(7) 6_545 .
O5 C13 C14 N5 -178.2(7) . 6_545
O6 C13 C14 N5 1.5(10) 6_545 6_545
C14 N5 C8 N4 -130.1(7) 6_546 .
Cu1 N5 C8 N4 56.9(8) . .
C14 N5 C8 C9 54.3(10) 6_546 .
Cu1 N5 C8 C9 -118.7(7) . .
C9 C8 N4 C12 3.0(11) . .
N5 C8 N4 C12 -172.7(6) . .
C9 C8 N4 Cu2 -179.5(6) . .
N5 C8 N4 Cu2 4.8(7) . .
C8 N4 C12 N6 178.0(6) . .
Cu2 N4 C12 N6 1.1(9) . .
C8 N4 C12 C11 -4.5(10) . .
Cu2 N4 C12 C11 178.7(6) . .
C15 N6 C12 N4 -148.9(7) . .
Cu3 N6 C12 N4 39.1(8) . .
C15 N6 C12 C11 33.7(11) . .
Cu3 N6 C12 C11 -138.4(7) . .
N4 C12 C11 C10 3.2(12) . .
N6 C12 C11 C10 -179.6(7) . .
C12 C11 C10 C9 -0.4(14) . .
C11 C10 C9 C8 -1.1(14) . .
N4 C8 C9 C10 -0.2(12) . .
N5 C8 C9 C10 175.0(7) . .
N5 C14 O4 Sr2 170.9(6) 6_545 .
C13 C14 O4 Sr2 -9.4(9) . .
O6 C13 O5 Sr2 -173.5(5) 6_545 .
C14 C13 O5 Sr2 6.2(8) . .
Cu1 O12 C23 O11 161.0(7) . .
Cu1 O12 C23 C22 -22.0(8) . .
O12 C23 O11 Sr1 174.2(6) . .
C22 C23 O11 Sr1 -2.8(10) . .
Sr1 O10 C22 N8 165.5(6) . .
Sr1 O10 C22 C23 -16.4(10) . .
O11 C23 C22 O10 13.0(11) . .
O12 C23 C22 O10 -164.3(7) . .
O11 C23 C22 N8 -168.8(7) . .
O12 C23 C22 N8 13.9(10) . .
O10 C22 N8 C17 3.1(12) . .
C23 C22 N8 C17 -175.0(6) . .
O10 C22 N8 Cu1 -178.3(7) . .
C23 C22 N8 Cu1 3.6(8) . .
C22 N8 C17 N7 -146.6(7) . .
Cu1 N8 C17 N7 34.8(9) . .
C22 N8 C17 C18 36.8(11) . .
Cu1 N8 C17 C18 -141.7(7) . .
N7 C17 C18 C19 0.6(13) . .
N8 C17 C18 C19 177.0(9) . .
C17 C18 C19 C20 2.2(16) . .
C18 C19 C20 C21 -3.9(16) . .
C19 C20 C21 N7 2.8(14) . .
C19 C20 C21 N9 178.0(9) . .
C24 N9 C21 N7 -127.1(8) . .
Cu3 N9 C21 N7 66.7(8) . .
C24 N9 C21 C20 57.3(12) . .
Cu3 N9 C21 C20 -108.9(9) . .
C21 N9 C24 O13 2.7(15) . .
Cu3 N9 C24 O13 170.7(10) . .
C21 N9 C24 C25 179.2(7) . .
Cu3 N9 C24 C25 -12.9(9) . .
O14 C25 C24 O13 3.1(15) . .
O15 C25 C24 O13 -174.3(9) . .
O14 C25 C24 N9 -173.8(8) . .
O15 C25 C24 N9 8.9(11) . .
O14 C25 O15 Cu3 -177.5(8) . .
C24 C25 O15 Cu3 -0.2(10) . .
C20 C21 N7 C17 0.0(12) . .
N9 C21 N7 C17 -175.8(6) . .
C20 C21 N7 Cu2 -179.7(7) . .
N9 C21 N7 Cu2 4.5(8) . .
C18 C17 N7 C21 -1.8(11) . .
N8 C17 N7 C21 -178.5(6) . .
C18 C17 N7 Cu2 177.9(6) . .
N8 C17 N7 Cu2 1.2(10) . .
C1 N1 C5 C4 -3.2(10) . .
Cu1 N1 C5 C4 174.7(5) . .
C1 N1 C5 N3 -179.6(6) . .
Cu1 N1 C5 N3 -1.6(8) . .
N1 C5 N3 C6 -137.3(7) . .
C4 C5 N3 C6 46.3(10) . .
N1 C5 N3 Cu2 49.3(8) . .
C4 C5 N3 Cu2 -127.1(6) . .
C5 N3 C6 O1 3.7(12) . .
Cu2 N3 C6 O1 177.9(7) . .
C5 N3 C6 C7 -178.4(6) . .
Cu2 N3 C6 C7 -4.3(8) . .
O2 C7 C6 O1 -5.5(12) 6_546 .
O3 C7 C6 O1 175.1(7) . .
Sr1 C7 C6 O1 -4.0(6) 6_546 .
O2 C7 C6 N3 176.4(7) 6_546 .
O3 C7 C6 N3 -3.1(10) . .
Sr1 C7 C6 N3 177.8(6) 6_546 .
O2 C7 C6 Sr1 -1.5(7) 6_546 6_546
O3 C7 C6 Sr1 179.1(7) . 6_546
N3 C6 O1 Sr1 -176.3(6) . 6_546
C7 C6 O1 Sr1 6.0(10) . 6_546
C2 C3 C4 C5 -1.8(11) . .
N1 C5 C4 C3 4.0(10) . .
N3 C5 C4 C3 -179.9(6) . .
C5 N1 C1 N2 179.8(6) . .
Cu1 N1 C1 N2 1.9(9) . .
C5 N1 C1 C2 0.3(10) . .
Cu1 N1 C1 C2 -177.6(5) . .
C3 C2 C1 N1 1.7(11) . .
C3 C2 C1 N2 -177.8(7) . .
O8 C16 O9 Cu3 176.7(6) . .
C15 C16 O9 Cu3 -1.6(9) . .
O2 C7 O3 Cu2 -170.8(7) 6_546 .
C6 C7 O3 Cu2 8.5(9) . .
Sr1 C7 O3 Cu2 -175(2) 6_546 .
