#------------------------------------------------------------------------------
#$Date: 2019-11-17 10:51:22 +0200 (Sun, 17 Nov 2019) $
#$Revision: 229439 $
#$URL: file:///home/coder/svn-repositories/cod/cif/7/04/75/7047571.cif $
#------------------------------------------------------------------------------
#
# This file is available in the Crystallography Open Database (COD),
# http://www.crystallography.net/
#
# All data on this site have been placed in the public domain by the
# contributors.
#
data_7047571
loop_
_publ_author_name
'Feng, Dan-Dan'
'Dong, Hui-Ming'
'Liu, Zheng-Yu'
'Zhao, Xiao-Jun'
'Yang, En-Cui'
_publ_section_title
;
 Three microporous metal-organic frameworks assembled from dodecanuclear
 {NiLn} subunits: synthesis, structure, gas adsorption and magnetism.
;
_journal_issue                   43
_journal_name_full
'Dalton transactions (Cambridge, England : 2003)'
_journal_page_first              15344
_journal_page_last               15352
_journal_paper_doi               10.1039/c8dt02816h
_journal_volume                  47
_journal_year                    2018
_chemical_formula_moiety         '0.04(C672 H816 N240 Ni24 O336 Tb48)'
_chemical_formula_sum            'C28 H34 N10 Ni O14 Tb2'
_chemical_formula_weight         1111.20
_space_group_crystal_system      cubic
_space_group_IT_number           206
_space_group_name_Hall           '-I 2b 2c 3'
_space_group_name_H-M_alt        'I a -3'
_symmetry_space_group_name_Hall  '-I 2b 2c 3'
_symmetry_space_group_name_H-M   'I a -3'
_atom_sites_solution_hydrogens   mixed
_atom_sites_solution_primary     direct
_audit_creation_date             2018-08-15
_audit_creation_method
;
Olex2 1.2
(compiled 2018.05.29 svn.r3508 for OlexSys, GUI svn.r5506)
;
_audit_update_record
;
2018-09-13 deposited with the CCDC.
2018-09-17 downloaded from the CCDC.
;
_cell_angle_alpha                90
_cell_angle_beta                 90
_cell_angle_gamma                90
_cell_formula_units_Z            24
_cell_length_a                   32.2995(5)
_cell_length_b                   32.2995(5)
_cell_length_c                   32.2995(5)
_cell_measurement_reflns_used    9139
_cell_measurement_temperature    173(2)
_cell_measurement_theta_max      28.21
_cell_measurement_theta_min      2.36
_cell_volume                     33696.7(9)
_computing_cell_refinement       'Bruker SMART'
_computing_data_collection       'Bruker SMART'
_computing_data_reduction        'Bruker SAINT'
_computing_molecular_graphics    'Olex2 (Dolomanov et al., 2009)'
_computing_publication_material  'Olex2 (Dolomanov et al., 2009)'
_computing_structure_refinement  'XL (Sheldrick, 2008)'
_computing_structure_solution    'XS (Sheldrick, 2008)'
_diffrn_ambient_temperature      173.15
_diffrn_measured_fraction_theta_full 1.000
_diffrn_measured_fraction_theta_max 0.999
_diffrn_measurement_device_type  'CCD area detector'
_diffrn_measurement_method       'phi and omega scans'
_diffrn_radiation_type           MoK\a
_diffrn_radiation_wavelength     0.71073
_diffrn_reflns_av_R_equivalents  0.0577
_diffrn_reflns_av_unetI/netI     0.0203
_diffrn_reflns_Laue_measured_fraction_full 1.000
_diffrn_reflns_Laue_measured_fraction_max 0.999
_diffrn_reflns_limit_h_max       43
_diffrn_reflns_limit_h_min       -39
_diffrn_reflns_limit_k_max       25
_diffrn_reflns_limit_k_min       -43
_diffrn_reflns_limit_l_max       43
_diffrn_reflns_limit_l_min       -41
_diffrn_reflns_number            123673
_diffrn_reflns_point_group_measured_fraction_full 1.000
_diffrn_reflns_point_group_measured_fraction_max 0.999
_diffrn_reflns_theta_full        25.242
_diffrn_reflns_theta_max         28.310
_diffrn_reflns_theta_min         1.261
_exptl_absorpt_coefficient_mu    2.875
_exptl_absorpt_correction_T_max  0.7457
_exptl_absorpt_correction_T_min  0.6588
_exptl_absorpt_correction_type   multi-scan
_exptl_absorpt_process_details
'SADABS-2012/1 (Bruker,2012) was used for absorption correction. wR2(int) was 0.1249 before and 0.0534 after correction. The Ratio of minimum to maximum transmission is 0.8835. The \l/2 correction factor is 0.0015.'
_exptl_crystal_colour            red
_exptl_crystal_colour_primary    red
_exptl_crystal_density_diffrn    1.314
_exptl_crystal_description       block
_exptl_crystal_F_000             13008
_exptl_crystal_size_max          0.22
_exptl_crystal_size_mid          0.21
_exptl_crystal_size_min          0.18
_refine_diff_density_max         0.916
_refine_diff_density_min         -0.618
_refine_diff_density_rms         0.077
_refine_ls_extinction_method     none
_refine_ls_goodness_of_fit_ref   1.039
_refine_ls_hydrogen_treatment    constr
_refine_ls_matrix_type           full
_refine_ls_number_parameters     250
_refine_ls_number_reflns         6999
_refine_ls_number_restraints     24
_refine_ls_restrained_S_all      1.073
_refine_ls_R_factor_all          0.0373
_refine_ls_R_factor_gt           0.0252
_refine_ls_shift/su_max          0.003
_refine_ls_shift/su_mean         0.000
_refine_ls_structure_factor_coef Fsqd
_refine_ls_weighting_details
'w=1/[\s^2^(Fo^2^)+(0.0232P)^2^+112.1332P] where P=(Fo^2^+2Fc^2^)/3'
_refine_ls_weighting_scheme      calc
_refine_ls_wR_factor_gt          0.0550
_refine_ls_wR_factor_ref         0.0608
_reflns_Friedel_coverage         0.000
_reflns_number_gt                5702
_reflns_number_total             6999
_reflns_threshold_expression     'I > 2\s(I)'
_cod_data_source_file            c8dt02816h2.cif
_cod_data_source_block           n151022a_sq
_cod_depositor_comments
'Adding full bibliography for 7047570--7047572.cif.'
_cod_original_cell_volume        33696.7(16)
_cod_database_code               7047571
_shelx_shelxl_version_number     2018/3
_shelx_space_group_comment
;
The symmetry employed for this shelxl refinement is uniquely defined
by the following loop, which should always be used as a source of
symmetry information in preference to the above space-group names.
They are only intended as comments.
;
_shelx_estimated_absorpt_t_max   0.626
_shelx_estimated_absorpt_t_min   0.570
_olex2_refinement_description
;
1. Fixed Uiso
 At 1.2 times of:
  All C(H) groups
 At 1.5 times of:
  All C(H,H,H) groups, All O(H) groups
2. Uiso/Uaniso restraints and constraints
Uanis(C12) \\sim Ueq, Uanis(C13) \\sim Ueq: with sigma of 0.005 and sigma for
terminal atoms of 0.005
Uanis(C15) \\sim Ueq, Uanis(C14) \\sim Ueq: with sigma of 0.005 and sigma for
terminal atoms of 0.005
3. Others
 Fixed Sof: H2(0.5) H15A(0.5) H15B(0.5) H15C(0.5)
4.a Riding coordinates:
 O2(H2), C6(H6A,H6B,H6C), C9(H9A,H9B,H9C), C11(H11A,H11B,H11C), C13(H13A,H13B,
 H13C), C15(H15A,H15B,H15C)
4.b Aromatic/amide H refined with riding coordinates:
 C1(H1), C2(H2A), C3(H3)
;
_shelx_res_file
;
TITL N151022A in Ia-3
    n151022a_sq.res
    created by SHELXL-2018/3 at 15:57:31 on 15-Aug-2018
CELL 0.71073 32.2995 32.2995 32.2995 90 90 90
ZERR 24 0.0005 0.0005 0.0005 0 0 0
LATT 2
SYMM 0.5-X,-Y,0.5+Z
SYMM -X,0.5+Y,0.5-Z
SYMM 0.5+X,0.5-Y,-Z
SYMM +Z,+X,+Y
SYMM 0.5+Z,0.5-X,-Y
SYMM 0.5-Z,-X,0.5+Y
SYMM -Z,0.5+X,0.5-Y
SYMM +Y,+Z,+X
SYMM -Y,0.5+Z,0.5-X
SYMM 0.5+Y,0.5-Z,-X
SYMM 0.5-Y,-Z,0.5+X
SFAC C H N Ni O Tb
UNIT 672 816 240 24 336 48
EQIV $1 +X,1-Y,1.5-Z
EQIV $2 1-Y,+Z,0.5+X
ISOR 0.005 0.005 C12 C13
ISOR 0.005 0.005 C15 C14

L.S. 20 0 83
PLAN  10
SIZE 0.22 0.21 0.18
TEMP -100
HTAB C3 O1_$2
HTAB C1 O7
HTAB O2 N5_$1
FREE Tb1 C12
FREE Tb1 C10
BOND $H
CONF
HTAB
ABIN
fmap 2
acta
OMIT 2 0 6
REM <olex2.extras>
REM <HklSrc "%.\\n151022a_sq.hkl">
REM </olex2.extras>

WGHT    0.023200  112.133194
FVAR       0.01012
TB1   6    0.383625    0.550846    0.784111    11.00000    0.02233    0.01577 =
         0.02401   -0.00187   -0.00445    0.00089
NI1   4    0.272932    0.500000    0.750000    10.50000    0.01931    0.01643 =
         0.02081    0.00005    0.00000    0.00000
O1    5    0.310092    0.547198    0.776086    11.00000    0.02281    0.01638 =
         0.01919    0.00019    0.00077    0.00004
O2    5    0.189301    0.531659    0.771593    11.00000    0.01894    0.02950 =
         0.06109   -0.00935    0.00585   -0.00244
PART -1
AFIX   3
H2    2    0.184191    0.515559    0.751603    10.50000   -1.50000
AFIX   0
PART 0
O3    5    0.382577    0.587442    0.717536    11.00000    0.02961    0.01728 =
         0.02763   -0.00190    0.00066   -0.00114
O4    5    0.374248    0.520488    0.711499    11.00000    0.02875    0.01873 =
         0.02265    0.00003    0.00307   -0.00129
O5    5    0.426009    0.542036    0.845517    11.00000    0.05847    0.04509 =
         0.05525    0.00300   -0.03252   -0.00484
O6    5    0.359515    0.551456    0.855790    11.00000    0.07986    0.03702 =
         0.02527   -0.00067    0.00144    0.01280
O7    5    0.448893    0.532958    0.760187    11.00000    0.02363    0.02396 =
         0.07080   -0.01544   -0.00343    0.00145
N1    3    0.426455    0.617482    0.788382    11.00000    0.02340    0.01920 =
         0.03093   -0.00342   -0.00754    0.00050
N2    3    0.468619    0.692128    0.778004    11.00000    0.02191    0.02344 =
         0.02352   -0.00375   -0.00509   -0.00058
N3    3    0.344526    0.616871    0.794454    11.00000    0.02078    0.02021 =
         0.01840   -0.00309    0.00039    0.00012
N4    3    0.301787    0.615307    0.798977    11.00000    0.02308    0.02054 =
         0.02337   -0.00263    0.00338   -0.00239
N5    3    0.230192    0.539543    0.772981    11.00000    0.02084    0.02203 =
         0.03511    0.00077    0.00436   -0.00203
C1    1    0.467340    0.618828    0.783850    11.00000    0.02614    0.02139 =
         0.04387   -0.00751   -0.00735    0.00235
AFIX  43
H1    2    0.482563    0.593663    0.783955    11.00000   -1.20000
AFIX   0
C2    1    0.488395    0.655913    0.778975    11.00000    0.02150    0.02418 =
         0.03769   -0.01032   -0.00451    0.00141
AFIX  43
H2A   2    0.517678    0.655507    0.776255    11.00000   -1.20000
AFIX   0
C3    1    0.427427    0.690809    0.782829    11.00000    0.02307    0.02078 =
         0.02404   -0.00366   -0.00354    0.00046
AFIX  43
H3    2    0.412245    0.715997    0.782379    11.00000   -1.20000
AFIX   0
C4    1    0.406197    0.653838    0.788467    11.00000    0.02253    0.01948 =
         0.02210   -0.00550   -0.00536   -0.00159
C5    1    0.360690    0.653404    0.794278    11.00000    0.02402    0.01756 =
         0.02368   -0.00262   -0.00182    0.00126
C6    1    0.337740    0.693359    0.798469    11.00000    0.02549    0.01883 =
         0.05839   -0.00412   -0.00339    0.00064
AFIX   3
H6A   2    0.307860    0.687799    0.801369    11.00000   -1.50000
H6B   2    0.342550    0.710379    0.773589    11.00000   -1.50000
H6C   2    0.347750    0.708299    0.823129    11.00000   -1.50000
AFIX   0
C7    1    0.287883    0.578510    0.789286    11.00000    0.02423    0.01768 =
         0.02116    0.00044    0.00341    0.00180
C8    1    0.242429    0.573393    0.790568    11.00000    0.02699    0.02105 =
         0.03723   -0.00110    0.00873    0.00048
C9    1    0.214016    0.604866    0.809183    11.00000    0.02735    0.03588 =
         0.09034   -0.02902    0.01595   -0.00104
AFIX   3
H9A   2    0.192116    0.612686    0.789393    11.00000   -1.50000
H9B   2    0.229986    0.629666    0.816993    11.00000   -1.50000
H9C   2    0.201316    0.592656    0.834113    11.00000   -1.50000
AFIX   0
C10   1    0.381649    0.555846    0.695350    11.00000    0.01966    0.02257 =
         0.02800    0.00178    0.00242   -0.00035
C11   1    0.390356    0.558452    0.649736    11.00000    0.04336    0.02774 =
         0.02397    0.00312    0.00320    0.00198
AFIX   3
H11A  2    0.386646    0.587342    0.640557    11.00000   -1.50000
H11B  2    0.370986    0.540382    0.634586    11.00000   -1.50000
H11C  2    0.419026    0.549602    0.644147    11.00000   -1.50000
AFIX   0
C12   1    0.395888    0.544965    0.869300    11.00000    0.08712    0.02702 =
         0.03799    0.00085   -0.02115    0.00272
C13   1    0.402355    0.539707    0.915733    11.00000    0.12425    0.06951 =
         0.04366    0.00143   -0.02924    0.00481
AFIX   3
H13A  2    0.432125    0.537587    0.922143    11.00000   -1.50000
H13B  2    0.388125    0.514307    0.924923    11.00000   -1.50000
H13C  2    0.390515    0.563827    0.930233    11.00000   -1.50000
AFIX   0
C14   1    0.467175    0.500000    0.750000    10.50000    0.02891    0.02976 =
         0.07483   -0.01203    0.00000    0.00000
C15   1    0.513641    0.500000    0.750000    10.50000    0.06062    0.06937 =
         0.13665   -0.02101    0.00000    0.00000
AFIX   3
H15A  2    0.523811    0.489100    0.776640    10.50000   -1.50000
H15B  2    0.523811    0.528520    0.746120    10.50000   -1.50000
H15C  2    0.523811    0.482380    0.727240    10.50000   -1.50000
AFIX   0
HKLF 4




REM  N151022A in Ia-3
REM wR2 = 0.0608, GooF = S = 1.039, Restrained GooF = 1.073 for all data
REM R1 = 0.0252 for 5702 Fo > 4sig(Fo) and 0.0373 for all 6999 data
REM 250 parameters refined using 24 restraints

END

WGHT      0.0231    112.0304

REM Instructions for potential hydrogen bonds
HTAB O2 O2_$1
HTAB O2 N5_$1
HTAB C1 O7
HTAB C3 O1_$2

REM Highest difference peak  0.916,  deepest hole -0.618,  1-sigma level  0.077
Q1    1   0.5099  0.4955  0.7769  11.00000  0.05    0.92
Q2    1   0.3988  0.5307  0.7809  11.00000  0.05    0.50
Q3    1   0.3778  0.5416  0.9194  11.00000  0.05    0.50
Q4    1   0.3992  0.5695  0.7865  11.00000  0.05    0.47
Q5    1   0.3612  0.5514  0.8021  11.00000  0.05    0.43
Q6    1   0.4076  0.5574  0.7934  11.00000  0.05    0.43
Q7    1   0.3775  0.5512  0.8413  11.00000  0.05    0.42
Q8    1   0.2985  0.5000  0.7500  10.50000  0.05    0.42
Q9    1   0.4075  0.5495  0.7699  11.00000  0.05    0.41
Q10   1   0.3851  0.6497  0.7900  11.00000  0.05    0.40
;
_shelx_res_checksum              29799
_shelx_fab_file
;
    0    0    2    580.50      0.00
    1    1    2   -589.75      0.00
    0    2    2    175.28      0.00
    2    2    2    -85.21      0.00
    2    1    3    -64.83      0.00
    1    2    3   -391.07      0.00
    2    3    3   -347.94      0.00
    0    0    4   -252.87      0.00
    2    0    4     22.80      0.00
    1    1    4    -75.68      0.00
    3    1    4    -40.36      0.00
    0    2    4    -18.20      0.00
    2    2    4    190.31      0.00
    1    3    4    -94.73      0.00
    3    3    4    258.05      0.00
    0    4    4   -152.43      0.00
    2    4    4   -109.35      0.00
    4    4    4    171.21      0.00
    2    1    5      2.06      0.00
    4    1    5   -132.13      0.00
    1    2    5    369.97      0.00
    3    2    5   -161.51      0.00
    2    3    5     98.33      0.00
    4    3    5     85.38      0.00
    1    4    5    151.62      0.00
    3    4    5     10.17      0.00
    2    5    5    -33.22      0.00
    4    5    5    -32.65      0.00
    0    0    6    135.47      0.00
    4    0    6   -162.61      0.00
    1    1    6     95.14      0.00
    3    1    6     52.34      0.00
    5    1    6    -48.80      0.00
    0    2    6    292.24      0.00
    2    2    6    121.11      0.00
    4    2    6     38.76      0.00
    1    3    6    137.16      0.00
    3    3    6   -108.57      0.00
    5    3    6      9.40      0.00
    0    4    6    -48.97      0.00
    2    4    6   -116.88      0.00
    4    4    6    -60.65      0.00
    1    5    6    -27.97      0.00
    3    5    6     40.05      0.00
    5    5    6     -8.83      0.00
    2    6    6      7.96      0.00
    4    6    6    -12.75      0.00
    6    6    6   -219.27      0.00
    2    1    7   -158.00      0.00
    4    1    7     -3.26      0.00
    6    1    7   -118.42      0.00
    1    2    7     20.96      0.00
    3    2    7   -235.27      0.00
    5    2    7      3.61      0.00
    2    3    7    -85.94      0.00
    4    3    7   -272.33      0.00
    6    3    7     65.09      0.00
    1    4    7      4.43      0.00
    3    4    7    -40.60      0.00
    5    4    7    -23.63      0.00
    2    5    7    112.72      0.00
    4    5    7    -86.03      0.00
    6    5    7     25.74      0.00
    1    6    7     77.85      0.00
    3    6    7     20.70      0.00
    5    6    7    -16.70      0.00
    2    7    7     98.74      0.00
    4    7    7    -61.16      0.00
    6    7    7     26.90      0.00
    0    0    8     48.46      0.00
    2    0    8     92.96      0.00
    4    0    8    167.82      0.00
    6    0    8     29.65      0.00
    1    1    8    -65.98      0.00
    3    1    8     82.75      0.00
    5    1    8    -61.71      0.00
    7    1    8     91.99      0.00
    0    2    8     59.52      0.00
    2    2    8    102.28      0.00
    4    2    8    -70.50      0.00
    6    2    8    112.37      0.00
    1    3    8   -152.83      0.00
    3    3    8     18.56      0.00
    5    3    8    -66.21      0.00
    7    3    8    114.84      0.00
    0    4    8    185.24      0.00
    2    4    8   -116.19      0.00
    4    4    8     61.17      0.00
    6    4    8    112.45      0.00
    1    5    8     18.01      0.00
    3    5    8   -119.59      0.00
    5    5    8     67.80      0.00
    7    5    8    -66.37      0.00
    0    6    8    205.73      0.00
    2    6    8     18.18      0.00
    4    6    8    -71.45      0.00
    6    6    8     69.74      0.00
    1    7    8     42.89      0.00
    3    7    8    -29.52      0.00
    5    7    8     38.54      0.00
    7    7    8     41.00      0.00
    0    8    8    167.81      0.00
    2    8    8     90.90      0.00
    4    8    8    -65.59      0.00
    6    8    8    -13.29      0.00
    8    8    8     80.25      0.00
    2    1    9    -14.93      0.00
    4    1    9     12.49      0.00
    6    1    9    -37.88      0.00
    8    1    9     52.83      0.00
    1    2    9   -111.08      0.00
    3    2    9    -34.81      0.00
    5    2    9    -86.00      0.00
    7    2    9     18.20      0.00
    2    3    9     11.38      0.00
    4    3    9    -67.78      0.00
    6    3    9    -17.32      0.00
    8    3    9    -39.12      0.00
    1    4    9     67.49      0.00
    3    4    9    103.77      0.00
    5    4    9    107.35      0.00
    7    4    9    -73.11      0.00
    2    5    9   -170.95      0.00
    4    5    9    -47.96      0.00
    6    5    9     51.76      0.00
    8    5    9    -14.81      0.00
    1    6    9   -141.93      0.00
    3    6    9     72.07      0.00
    5    6    9     -0.23      0.00
    7    6    9    -41.12      0.00
    2    7    9    -33.39      0.00
    4    7    9     -3.58      0.00
    6    7    9    -19.22      0.00
    8    7    9    -25.97      0.00
    1    8    9      0.15      0.00
    3    8    9    -57.26      0.00
    5    8    9    -28.83      0.00
    7    8    9    -21.15      0.00
    2    9    9     -9.28      0.00
    4    9    9    -79.20      0.00
    6    9    9     81.16      0.00
    8    9    9     32.60      0.00
    0    0   10    403.40      0.00
    2    0   10    -85.44      0.00
    4    0   10    -37.57      0.00
    6    0   10     69.58      0.00
    8    0   10    -22.71      0.00
    1    1   10     58.41      0.00
    3    1   10     54.49      0.00
    5    1   10    -48.26      0.00
    7    1   10     18.64      0.00
    9    1   10     75.60      0.00
    0    2   10     85.48      0.00
    2    2   10    -98.65      0.00
    4    2   10    -45.41      0.00
    6    2   10     -1.77      0.00
    8    2   10     22.04      0.00
    1    3   10    -12.14      0.00
    3    3   10     43.90      0.00
    5    3   10      0.98      0.00
    7    3   10     -0.25      0.00
    9    3   10     20.48      0.00
    0    4   10   -164.21      0.00
    2    4   10    -23.50      0.00
    4    4   10    -83.94      0.00
    6    4   10     59.38      0.00
    8    4   10      2.74      0.00
    1    5   10    -87.64      0.00
    3    5   10    -46.13      0.00
    5    5   10    -68.92      0.00
    7    5   10      1.16      0.00
    9    5   10    -44.07      0.00
    0    6   10    -33.06      0.00
    2    6   10    -38.29      0.00
    4    6   10     15.05      0.00
    6    6   10     18.50      0.00
    8    6   10     72.19      0.00
    1    7   10    -21.69      0.00
    3    7   10    -11.57      0.00
    5    7   10    -20.88      0.00
    7    7   10    -38.63      0.00
    9    7   10     27.83      0.00
    0    8   10    -34.74      0.00
    2    8   10     37.17      0.00
    4    8   10    -68.65      0.00
    6    8   10     30.30      0.00
    8    8   10      1.27      0.00
    1    9   10     -5.27      0.00
    3    9   10     17.88      0.00
    5    9   10     44.14      0.00
    7    9   10     47.40      0.00
    9    9   10    -39.15      0.00
    0   10   10     54.22      0.00
    2   10   10    -62.72      0.00
    4   10   10    -83.35      0.00
    6   10   10     20.41      0.00
    8   10   10    -17.68      0.00
   10   10   10   -101.23      0.00
    2    1   11   -104.31      0.00
    4    1   11     -9.05      0.00
    6    1   11     21.18      0.00
    8    1   11    -37.20      0.00
   10    1   11     23.53      0.00
    1    2   11   -110.22      0.00
    3    2   11     37.35      0.00
    5    2   11    -41.93      0.00
    7    2   11    -20.00      0.00
    9    2   11     51.14      0.00
    2    3   11     14.34      0.00
    4    3   11     76.00      0.00
    6    3   11     18.29      0.00
    8    3   11      7.96      0.00
   10    3   11    -86.05      0.00
    1    4   11    -49.48      0.00
    3    4   11     68.03      0.00
    5    4   11    -10.01      0.00
    7    4   11     17.60      0.00
    9    4   11    -11.49      0.00
    2    5   11     14.40      0.00
    4    5   11    -15.47      0.00
    6    5   11     33.59      0.00
    8    5   11    -18.31      0.00
   10    5   11     21.55      0.00
    1    6   11     52.32      0.00
    3    6   11     37.52      0.00
    5    6   11     33.80      0.00
    7    6   11    -72.84      0.00
    9    6   11     19.56      0.00
    2    7   11     -9.28      0.00
    4    7   11    106.96      0.00
    6    7   11      6.66      0.00
    8    7   11    -47.29      0.00
   10    7   11    -16.32      0.00
    1    8   11    -54.73      0.00
    3    8   11     33.71      0.00
    5    8   11    -22.98      0.00
    7    8   11     -3.79      0.00
    9    8   11     35.60      0.00
    2    9   11    -54.60      0.00
    4    9   11     57.65      0.00
    6    9   11     19.33      0.00
    8    9   11    -13.97      0.00
   10    9   11     -0.73      0.00
    1   10   11     72.87      0.00
    3   10   11     -4.87      0.00
    5   10   11    -15.61      0.00
    7   10   11    -47.50      0.00
    9   10   11      0.22      0.00
    2   11   11    -82.96      0.00
    4   11   11    -29.15      0.00
    6   11   11     49.31      0.00
    8   11   11    -21.69      0.00
   10   11   11     32.06      0.00
    0    0   12    155.44      0.00
    2    0   12    -26.25      0.00
    4    0   12     53.54      0.00
    6    0   12     52.30      0.00
    8    0   12     39.03      0.00
   10    0   12     26.60      0.00
    1    1   12     36.12      0.00
    3    1   12    -48.18      0.00
    5    1   12     79.18      0.00
    7    1   12    -73.44      0.00
    9    1   12     83.83      0.00
   11    1   12     23.13      0.00
    0    2   12     60.79      0.00
    2    2   12    -51.20      0.00
    4    2   12    -57.09      0.00
    6    2   12      2.75      0.00
    8    2   12    -25.47      0.00
   10    2   12    -10.39      0.00
    1    3   12     42.95      0.00
    3    3   12     -6.02      0.00
    5    3   12     29.01      0.00
    7    3   12      8.01      0.00
    9    3   12    -26.95      0.00
   11    3   12      3.92      0.00
    0    4   12    -18.13      0.00
    2    4   12    -39.97      0.00
    4    4   12    -89.17      0.00
    6    4   12    -40.78      0.00
    8    4   12    -20.95      0.00
   10    4   12    -83.21      0.00
    1    5   12     -7.75      0.00
    3    5   12    -24.24      0.00
    5    5   12    -21.76      0.00
    7    5   12     -4.74      0.00
    9    5   12    -18.56      0.00
   11    5   12    -24.26      0.00
    0    6   12     85.23      0.00
    2    6   12    103.10      0.00
    4    6   12    -56.09      0.00
    6    6   12    -23.41      0.00
    8    6   12      9.58      0.00
   10    6   12     33.04      0.00
    1    7   12    -23.46      0.00
    3    7   12      4.61      0.00
    5    7   12    -32.57      0.00
    7    7   12     11.24      0.00
    9    7   12     27.34      0.00
   11    7   12      2.48      0.00
    0    8   12    -12.77      0.00
    2    8   12     41.23      0.00
    4    8   12     43.24      0.00
    6    8   12    -71.44      0.00
    8    8   12     64.99      0.00
   10    8   12    -17.68      0.00
    1    9   12      2.34      0.00
    3    9   12     39.03      0.00
    5    9   12    -34.70      0.00
    7    9   12     64.94      0.00
    9    9   12     57.45      0.00
   11    9   12    -20.51      0.00
    0   10   12   -163.11      0.00
    2   10   12     -1.07      0.00
    4   10   12    -58.58      0.00
    6   10   12    -35.39      0.00
    8   10   12     10.59      0.00
   10   10   12    -37.03      0.00
    1   11   12     16.82      0.00
    3   11   12    -12.41      0.00
    5   11   12     12.35      0.00
    7   11   12     17.67      0.00
    9   11   12      3.86      0.00
   11   11   12     21.61      0.00
    0   12   12     27.07      0.00
    2   12   12    -57.63      0.00
    4   12   12    -19.50      0.00
    6   12   12    -17.28      0.00
    8   12   12    -10.74      0.00
   10   12   12    -28.07      0.00
   12   12   12    -35.93      0.00
    2    1   13     -2.53      0.00
    4    1   13    -59.58      0.00
    6    1   13     82.69      0.00
    8    1   13    -87.10      0.00
   10    1   13    -14.77      0.00
   12    1   13     29.49      0.00
    1    2   13    -72.89      0.00
    3    2   13    -18.85      0.00
    5    2   13     -2.90      0.00
    7    2   13    -36.97      0.00
    9    2   13     20.30      0.00
   11    2   13      1.21      0.00
    2    3   13    -95.77      0.00
    4    3   13     45.33      0.00
    6    3   13    -34.85      0.00
    8    3   13      4.14      0.00
   10    3   13    -57.63      0.00
   12    3   13    -26.99      0.00
    1    4   13    -29.77      0.00
    3    4   13     18.08      0.00
    5    4   13    -23.42      0.00
    7    4   13    -68.55      0.00
    9    4   13     51.09      0.00
   11    4   13     22.74      0.00
    2    5   13   -140.62      0.00
    4    5   13     -7.19      0.00
    6    5   13    -11.97      0.00
    8    5   13     36.86      0.00
   10    5   13     -6.98      0.00
   12    5   13     10.99      0.00
    1    6   13     31.60      0.00
    3    6   13     17.99      0.00
    5    6   13     30.33      0.00
    7    6   13     22.88      0.00
    9    6   13    -32.97      0.00
   11    6   13      3.90      0.00
    2    7   13    -10.10      0.00
    4    7   13     12.21      0.00
    6    7   13     18.03      0.00
    8    7   13     -0.27      0.00
   10    7   13     -5.52      0.00
   12    7   13     17.89      0.00
    1    8   13     53.39      0.00
    3    8   13     -9.80      0.00
    5    8   13      0.71      0.00
    7    8   13     14.88      0.00
    9    8   13     18.21      0.00
   11    8   13    -28.06      0.00
    2    9   13     15.90      0.00
    4    9   13    -15.91      0.00
    6    9   13     14.27      0.00
    8    9   13     -9.17      0.00
   10    9   13    -37.31      0.00
   12    9   13     -9.97      0.00
    1   10   13      3.42      0.00
    3   10   13     54.57      0.00
    5   10   13    -43.52      0.00
    7   10   13     15.56      0.00
    9   10   13     -9.17      0.00
   11   10   13    -19.21      0.00
    2   11   13     -8.46      0.00
    4   11   13     -8.43      0.00
    6   11   13      3.34      0.00
    8   11   13    -14.38      0.00
   10   11   13    -31.46      0.00
   12   11   13    -11.78      0.00
    1   12   13     29.35      0.00
    3   12   13     -2.30      0.00
    5   12   13     23.45      0.00
    7   12   13    -22.49      0.00
    9   12   13     -4.86      0.00
   11   12   13     17.37      0.00
    2   13   13    -37.78      0.00
    4   13   13     26.58      0.00
    6   13   13     10.48      0.00
    8   13   13    -27.61      0.00
   10   13   13      5.55      0.00
   12   13   13     -5.58      0.00
    0    0   14     82.24      0.00
    2    0   14     76.35      0.00
    4    0   14    -26.03      0.00
    6    0   14     47.95      0.00
    8    0   14     43.07      0.00
   10    0   14     81.69      0.00
   12    0   14     58.61      0.00
    1    1   14     64.92      0.00
    3    1   14    -35.72      0.00
    5    1   14    -36.53      0.00
    7    1   14      6.18      0.00
    9    1   14     60.76      0.00
   11    1   14     57.07      0.00
   13    1   14    -47.69      0.00
    0    2   14     20.90      0.00
    2    2   14      0.95      0.00
    4    2   14     27.68      0.00
    6    2   14     -1.99      0.00
    8    2   14    -14.84      0.00
   10    2   14     -2.33      0.00
   12    2   14      5.01      0.00
    1    3   14      2.77      0.00
    3    3   14    -34.29      0.00
    5    3   14    113.41      0.00
    7    3   14     -2.37      0.00
    9    3   14     75.34      0.00
   11    3   14    -28.36      0.00
   13    3   14     19.39      0.00
    0    4   14    -98.18      0.00
    2    4   14      0.12      0.00
    4    4   14    -12.98      0.00
    6    4   14      3.26      0.00
    8    4   14     28.65      0.00
   10    4   14     -9.96      0.00
   12    4   14    -22.49      0.00
    1    5   14     -0.15      0.00
    3    5   14     -6.19      0.00
    5    5   14     -8.59      0.00
    7    5   14     52.11      0.00
    9    5   14    -24.30      0.00
   11    5   14      6.40      0.00
   13    5   14     -5.88      0.00
    0    6   14      6.59      0.00
    2    6   14     35.54      0.00
    4    6   14     32.47      0.00
    6    6   14     11.56      0.00
    8    6   14     78.17      0.00
   10    6   14     -1.64      0.00
   12    6   14     46.45      0.00
    1    7   14      8.18      0.00
    3    7   14    -29.24      0.00
    5    7   14    -22.61      0.00
    7    7   14     -8.74      0.00
    9    7   14    -35.65      0.00
   11    7   14     -1.28      0.00
   13    7   14     -2.87      0.00
    0    8   14     80.55      0.00
    2    8   14     10.81      0.00
    4    8   14     31.91      0.00
    6    8   14      8.64      0.00
    8    8   14    -20.26      0.00
   10    8   14     42.95      0.00
   12    8   14    -35.57      0.00
    1    9   14     29.82      0.00
    3    9   14     -3.37      0.00
    5    9   14      0.85      0.00
    7    9   14      4.23      0.00
    9    9   14     -2.68      0.00
   11    9   14     -6.09      0.00
   13    9   14      4.72      0.00
    0   10   14     30.91      0.00
    2   10   14    -24.79      0.00
    4   10   14    -13.20      0.00
    6   10   14    -49.35      0.00
    8   10   14      3.28      0.00
   10   10   14    -34.77      0.00
   12   10   14      2.26      0.00
    1   11   14     51.35      0.00
    3   11   14     41.64      0.00
    5   11   14    -44.49      0.00
    7   11   14     36.56      0.00
    9   11   14     25.16      0.00
   11   11   14     -4.43      0.00
   13   11   14     27.25      0.00
    0   12   14     -5.76      0.00
    2   12   14     34.23      0.00
    4   12   14    -27.40      0.00
    6   12   14      9.43      0.00
    8   12   14     14.48      0.00
   10   12   14      3.80      0.00
   12   12   14     -1.22      0.00
    1   13   14    -22.57      0.00
    3   13   14     36.39      0.00
    5   13   14     13.23      0.00
    7   13   14     19.58      0.00
    9   13   14     28.11      0.00
   11   13   14    -15.08      0.00
   13   13   14     11.25      0.00
    0   14   14      1.78      0.00
    2   14   14     12.69      0.00
    4   14   14     35.43      0.00
    6   14   14      4.45      0.00
    8   14   14     36.25      0.00
   10   14   14      9.65      0.00
   12   14   14      2.71      0.00
   14   14   14     11.10      0.00
    2    1   15    -14.64      0.00
    4    1   15    -62.28      0.00
    6    1   15     21.92      0.00
    8    1   15      6.08      0.00
   10    1   15     -4.10      0.00
   12    1   15     27.24      0.00
   14    1   15     -4.19      0.00
    1    2   15     53.63      0.00
    3    2   15    -17.27      0.00
    5    2   15     48.76      0.00
    7    2   15     -4.85      0.00
    9    2   15    -51.97      0.00
   11    2   15      9.14      0.00
   13    2   15    -37.36      0.00
    2    3   15    -18.47      0.00
    4    3   15    -19.04      0.00
    6    3   15     29.77      0.00
    8    3   15    -29.56      0.00
   10    3   15    -33.89      0.00
   12    3   15     -9.23      0.00
   14    3   15     11.03      0.00
    1    4   15    -14.16      0.00
    3    4   15     -7.32      0.00
    5    4   15     32.23      0.00
    7    4   15     13.41      0.00
    9    4   15      8.67      0.00
   11    4   15     -5.37      0.00
   13    4   15      0.18      0.00
    2    5   15    -68.24      0.00
    4    5   15     22.25      0.00
    6    5   15    -15.33      0.00
    8    5   15     30.70      0.00
   10    5   15    -41.40      0.00
   12    5   15     14.66      0.00
   14    5   15     -8.62      0.00
    1    6   15     48.48      0.00
    3    6   15     29.35      0.00
    5    6   15     41.11      0.00
    7    6   15    -39.10      0.00
    9    6   15    -19.88      0.00
   11    6   15     46.49      0.00
   13    6   15     21.54      0.00
    2    7   15     -8.13      0.00
    4    7   15      0.17      0.00
    6    7   15     10.82      0.00
    8    7   15    -40.90      0.00
   10    7   15     18.82      0.00
   12    7   15     33.04      0.00
   14    7   15     26.72      0.00
    1    8   15    -37.79      0.00
    3    8   15    -41.88      0.00
    5    8   15    -24.36      0.00
    7    8   15      8.96      0.00
    9    8   15     -0.26      0.00
   11    8   15     12.54      0.00
   13    8   15     -9.52      0.00
    2    9   15    -36.05      0.00
    4    9   15      7.33      0.00
    6    9   15     -5.32      0.00
    8    9   15     15.75      0.00
   10    9   15    -11.92      0.00
   12    9   15      0.25      0.00
   14    9   15     27.47      0.00
    1   10   15     21.57      0.00
    3   10   15      4.74      0.00
    5   10   15    -34.46      0.00
    7   10   15    -10.34      0.00
    9   10   15     30.21      0.00
   11   10   15    -18.52      0.00
   13   10   15     22.44      0.00
    2   11   15    -46.74      0.00
    4   11   15    -36.44      0.00
    6   11   15     17.94      0.00
    8   11   15     20.39      0.00
   10   11   15    -10.05      0.00
   12   11   15    -10.38      0.00
   14   11   15      0.76      0.00
    1   12   15      2.08      0.00
    3   12   15     45.25      0.00
    5   12   15    -24.81      0.00
    7   12   15     48.60      0.00
    9   12   15     -9.10      0.00
   11   12   15      2.63      0.00
   13   12   15     28.96      0.00
    2   13   15      6.27      0.00
    4   13   15    -17.95      0.00
    6   13   15     24.16      0.00
    8   13   15     -4.76      0.00
   10   13   15    -19.41      0.00
   12   13   15     13.47      0.00
   14   13   15     -9.59      0.00
    1   14   15     22.80      0.00
    3   14   15     13.74      0.00
    5   14   15     11.54      0.00
    7   14   15      5.60      0.00
    9   14   15     20.42      0.00
   11   14   15     -0.48      0.00
   13   14   15     12.32      0.00
    2   15   15      4.95      0.00
    4   15   15      4.84      0.00
    6   15   15     -1.77      0.00
    8   15   15     10.26      0.00
   10   15   15    -18.61      0.00
   12   15   15     -3.61      0.00
   14   15   15      4.45      0.00
    0    0   16     51.17      0.00
    2    0   16     92.61      0.00
    4    0   16    -46.70      0.00
    6    0   16     14.59      0.00
    8    0   16     84.44      0.00
   10    0   16     19.55      0.00
   12    0   16     78.80      0.00
   14    0   16    -47.80      0.00
    1    1   16     43.98      0.00
    3    1   16     -7.41      0.00
    5    1   16    -12.85      0.00
    7    1   16    -40.39      0.00
    9    1   16    -19.37      0.00
   11    1   16      4.36      0.00
   13    1   16     20.82      0.00
   15    1   16    -13.30      0.00
    0    2   16    -96.81      0.00
    2    2   16     -5.20      0.00
    4    2   16     28.60      0.00
    6    2   16     69.76      0.00
    8    2   16     -4.77      0.00
   10    2   16    -27.67      0.00
   12    2   16    -20.48      0.00
   14    2   16      9.48      0.00
    1    3   16     34.70      0.00
    3    3   16    -34.40      0.00
    5    3   16     15.11      0.00
    7    3   16     -2.17      0.00
    9    3   16     -1.16      0.00
   11    3   16     32.51      0.00
   13    3   16    -29.81      0.00
   15    3   16     30.04      0.00
    0    4   16    -19.24      0.00
    2    4   16    -59.61      0.00
    4    4   16     -8.50      0.00
    6    4   16    -42.98      0.00
    8    4   16     -4.78      0.00
   10    4   16     13.12      0.00
   12    4   16    -19.07      0.00
   14    4   16    -17.00      0.00
    1    5   16    -10.89      0.00
    3    5   16     -2.98      0.00
    5    5   16     22.07      0.00
    7    5   16    -29.68      0.00
    9    5   16      7.99      0.00
   11    5   16     -7.56      0.00
   13    5   16     15.89      0.00
   15    5   16     -5.66      0.00
    0    6   16      7.96      0.00
    2    6   16      7.50      0.00
    4    6   16     -2.64      0.00
    6    6   16    -15.22      0.00
    8    6   16      6.19      0.00
   10    6   16     31.80      0.00
   12    6   16      1.47      0.00
   14    6   16     10.85      0.00
    1    7   16    -30.65      0.00
    3    7   16     15.19      0.00
    5    7   16    -39.27      0.00
    7    7   16     14.44      0.00
    9    7   16    -23.72      0.00
   11    7   16    -14.05      0.00
   13    7   16    -22.63      0.00
   15    7   16    -16.78      0.00
    0    8   16     -2.19      0.00
    2    8   16    -14.49      0.00
    4    8   16     51.25      0.00
    6    8   16     29.78      0.00
    8    8   16     31.84      0.00
   10    8   16     14.45      0.00
   12    8   16     -7.74      0.00
   14    8   16    -31.32      0.00
    1    9   16      1.38      0.00
    3    9   16    -28.33      0.00
    5    9   16     20.12      0.00
    7    9   16     13.55      0.00
    9    9   16     38.13      0.00
   11    9   16    -10.97      0.00
   13    9   16    -19.81      0.00
   15    9   16    -12.74      0.00
    0   10   16     28.77      0.00
    2   10   16    -26.90      0.00
    4   10   16     -3.99      0.00
    6   10   16     16.81      0.00
    8   10   16    -17.19      0.00
   10   10   16     28.04      0.00
   12   10   16    -15.08      0.00
   14   10   16      5.53      0.00
    1   11   16     35.52      0.00
    3   11   16     -8.62      0.00
    5   11   16     10.28      0.00
    7   11   16     24.92      0.00
    9   11   16     -1.05      0.00
   11   11   16     12.48      0.00
   13   11   16     13.68      0.00
   15   11   16     -0.53      0.00
    0   12   16      0.45      0.00
    2   12   16    -25.42      0.00
    4   12   16     25.52      0.00
    6   12   16     31.03      0.00
    8   12   16     -3.44      0.00
   10   12   16    -41.20      0.00
   12   12   16     17.77      0.00
   14   12   16     -7.51      0.00
    1   13   16      9.49      0.00
    3   13   16    -27.41      0.00
    5   13   16    -19.70      0.00
    7   13   16     -3.51      0.00
    9   13   16    -31.38      0.00
   11   13   16    -23.65      0.00
   13   13   16     -8.57      0.00
   15   13   16      4.78      0.00
    0   14   16     -6.08      0.00
    2   14   16     35.09      0.00
    4   14   16    -18.85      0.00
    6   14   16     21.96      0.00
    8   14   16      4.41      0.00
   10   14   16      1.47      0.00
   12   14   16     -1.30      0.00
   14   14   16     -1.86      0.00
    1   15   16    -14.42      0.00
    3   15   16     -9.16      0.00
    5   15   16    -31.84      0.00
    7   15   16    -19.84      0.00
    9   15   16    -17.99      0.00
   11   15   16    -22.43      0.00
   13   15   16     -9.17      0.00
   15   15   16     -8.27      0.00
    0   16   16      2.65      0.00
    2   16   16     15.53      0.00
    4   16   16      6.45      0.00
    6   16   16    -25.86      0.00
    8   16   16     18.57      0.00
   10   16   16    -16.73      0.00
   12   16   16      8.38      0.00
   14   16   16      4.49      0.00
   16   16   16      7.22      0.00
    2    1   17     33.62      0.00
    4    1   17     22.48      0.00
    6    1   17     -2.87      0.00
    8    1   17      1.91      0.00
   10    1   17    -17.80      0.00
   12    1   17     31.57      0.00
   14    1   17     35.95      0.00
   16    1   17     12.61      0.00
    1    2   17     -8.37      0.00
    3    2   17    -23.90      0.00
    5    2   17     16.57      0.00
    7    2   17     -8.12      0.00
    9    2   17    -22.18      0.00
   11    2   17      1.11      0.00
   13    2   17     -9.64      0.00
   15    2   17     11.50      0.00
    2    3   17    -36.57      0.00
    4    3   17    -38.45      0.00
    6    3   17     41.86      0.00
    8    3   17     13.71      0.00
   10    3   17    -27.85      0.00
   12    3   17    -14.42      0.00
   14    3   17     -9.70      0.00
   16    3   17     12.32      0.00
    1    4   17     29.68      0.00
    3    4   17    -49.58      0.00
    5    4   17    -11.87      0.00
    7    4   17     -0.45      0.00
    9    4   17     21.88      0.00
   11    4   17     29.10      0.00
   13    4   17    -26.80      0.00
   15    4   17    -11.20      0.00
    2    5   17     14.12      0.00
    4    5   17     13.06      0.00
    6    5   17      5.66      0.00
    8    5   17    -25.13      0.00
   10    5   17     -1.89      0.00
   12    5   17    -15.06      0.00
   14    5   17     14.42      0.00
   16    5   17    -30.32      0.00
    1    6   17     17.32      0.00
    3    6   17     61.32      0.00
    5    6   17      1.80      0.00
    7    6   17      4.09      0.00
    9    6   17    -30.09      0.00
   11    6   17      4.67      0.00
   13    6   17     34.77      0.00
   15    6   17     -2.38      0.00
    2    7   17    -17.39      0.00
    4    7   17     12.27      0.00
    6    7   17     24.87      0.00
    8    7   17     11.63      0.00
   10    7   17    -28.49      0.00
   12    7   17      8.55      0.00
   14    7   17      0.79      0.00
   16    7   17     30.73      0.00
    1    8   17     42.02      0.00
    3    8   17     -9.37      0.00
    5    8   17     18.35      0.00
    7    8   17     19.88      0.00
    9    8   17     -5.53      0.00
   11    8   17     -0.80      0.00
   13    8   17    -21.02      0.00
   15    8   17    -19.78      0.00
    2    9   17     17.66      0.00
    4    9   17     17.66      0.00
    6    9   17     25.23      0.00
    8    9   17    -37.55      0.00
   10    9   17     14.25      0.00
   12    9   17     -4.27      0.00
   14    9   17     -0.30      0.00
   16    9   17     19.59      0.00
    1   10   17    -28.25      0.00
    3   10   17     17.15      0.00
    5   10   17     -9.07      0.00
    7   10   17     -7.06      0.00
    9   10   17      2.73      0.00
   11   10   17     -7.21      0.00
   13   10   17      9.26      0.00
   15   10   17      4.99      0.00
    2   11   17    -38.22      0.00
    4   11   17     26.73      0.00
    6   11   17    -18.73      0.00
    8   11   17      8.41      0.00
   10   11   17    -12.01      0.00
   12   11   17     -3.16      0.00
   14   11   17     11.10      0.00
   16   11   17      9.95      0.00
    1   12   17    -22.52      0.00
    3   12   17     21.87      0.00
    5   12   17     13.64      0.00
    7   12   17    -37.55      0.00
    9   12   17     24.36      0.00
   11   12   17    -17.54      0.00
   13   12   17     27.84      0.00
   15   12   17     14.98      0.00
    2   13   17     -9.91      0.00
    4   13   17     -5.45      0.00
    6   13   17     -1.38      0.00
    8   13   17    -10.98      0.00
   10   13   17     -0.07      0.00
   12   13   17     11.43      0.00
   14   13   17      5.49      0.00
   16   13   17      1.65      0.00
    1   14   17    -20.09      0.00
    3   14   17    -12.10      0.00
    5   14   17     -7.72      0.00
    7   14   17     12.91      0.00
    9   14   17      4.81      0.00
   11   14   17     23.15      0.00
   13   14   17     -9.68      0.00
   15   14   17      4.04      0.00
    2   15   17      5.51      0.00
    4   15   17    -12.05      0.00
    6   15   17     -4.35      0.00
    8   15   17     -0.71      0.00
   10   15   17    -20.92      0.00
   12   15   17     14.06      0.00
   14   15   17     12.92      0.00
   16   15   17     -6.62      0.00
    1   16   17     21.98      0.00
    3   16   17     -0.21      0.00
    5   16   17     -6.44      0.00
    7   16   17     -6.84      0.00
    9   16   17     -5.04      0.00
   11   16   17      3.14      0.00
   13   16   17     22.51      0.00
   15   16   17     -1.07      0.00
    2   17   17      0.33      0.00
    4   17   17    -16.26      0.00
    6   17   17     10.52      0.00
    8   17   17     16.33      0.00
   10   17   17    -27.78      0.00
   12   17   17     -7.91      0.00
   14   17   17      4.22      0.00
   16   17   17     -6.63      0.00
    0    0   18     67.05      0.00
    2    0   18     13.94      0.00
    4    0   18    -45.52      0.00
    6    0   18    -38.03      0.00
    8    0   18    -23.35      0.00
   10    0   18      2.23      0.00
   12    0   18     -5.64      0.00
   14    0   18      6.43      0.00
   16    0   18    -46.91      0.00
    1    1   18    -36.40      0.00
    3    1   18      8.99      0.00
    5    1   18    -27.82      0.00
    7    1   18     48.45      0.00
    9    1   18    -31.68      0.00
   11    1   18    -21.44      0.00
   13    1   18    -12.88      0.00
   15    1   18     -8.74      0.00
   17    1   18      4.61      0.00
    0    2   18    -51.98      0.00
    2    2   18    -12.62      0.00
    4    2   18    -18.13      0.00
    6    2   18     18.85      0.00
    8    2   18     36.15      0.00
   10    2   18    -34.38      0.00
   12    2   18     -0.28      0.00
   14    2   18    -38.25      0.00
   16    2   18     18.41      0.00
    1    3   18     -9.43      0.00
    3    3   18      1.74      0.00
    5    3   18    -41.40      0.00
    7    3   18     19.35      0.00
    9    3   18     -7.03      0.00
   11    3   18     12.50      0.00
   13    3   18      6.00      0.00
   15    3   18    -38.19      0.00
   17    3   18     -1.18      0.00
    0    4   18      1.21      0.00
    2    4   18    -18.07      0.00
    4    4   18      2.30      0.00
    6    4   18     -6.38      0.00
    8    4   18    -30.57      0.00
   10    4   18      9.46      0.00
   12    4   18      0.68      0.00
   14    4   18     10.06      0.00
   16    4   18    -12.10      0.00
    1    5   18      7.43      0.00
    3    5   18     -5.85      0.00
    5    5   18     24.69      0.00
    7    5   18     -0.59      0.00
    9    5   18    -20.29      0.00
   11    5   18     -4.24      0.00
   13    5   18     -5.72      0.00
   15    5   18     17.79      0.00
   17    5   18     -8.45      0.00
    0    6   18     44.87      0.00
    2    6   18     -2.30      0.00
    4    6   18     10.69      0.00
    6    6   18     -9.60      0.00
    8    6   18    -22.96      0.00
   10    6   18     -3.33      0.00
   12    6   18     -0.94      0.00
   14    6   18     -2.59      0.00
   16    6   18     17.42      0.00
    1    7   18      4.68      0.00
    3    7   18    -23.52      0.00
    5    7   18     18.97      0.00
    7    7   18     -5.16      0.00
    9    7   18     15.85      0.00
   11    7   18    -21.63      0.00
   13    7   18    -17.41      0.00
   15    7   18    -21.13      0.00
   17    7   18     31.18      0.00
    0    8   18    -25.22      0.00
    2    8   18     16.20      0.00
    4    8   18     -7.25      0.00
    6    8   18      6.07      0.00
    8    8   18     -7.24      0.00
   10    8   18     16.97      0.00
   12    8   18    -21.14      0.00
   14    8   18    -11.40      0.00
   16    8   18     13.81      0.00
    1    9   18     30.82      0.00
    3    9   18      3.20      0.00
    5    9   18    -25.22      0.00
    7    9   18    -18.48      0.00
    9    9   18      4.76      0.00
   11    9   18     37.12      0.00
   13    9   18     -4.85      0.00
   15    9   18      3.64      0.00
   17    9   18     -5.10      0.00
    0   10   18     16.27      0.00
    2   10   18    -23.34      0.00
    4   10   18      3.58      0.00
    6   10   18    -39.03      0.00
    8   10   18    -23.43      0.00
   10   10   18      5.90      0.00
   12   10   18     -5.30      0.00
   14   10   18      5.87      0.00
   16   10   18      5.53      0.00
    1   11   18     -2.72      0.00
    3   11   18      8.09      0.00
    5   11   18     16.59      0.00
    7   11   18     -4.80      0.00
    9   11   18     14.72      0.00
   11   11   18    -19.07      0.00
   13   11   18      0.94      0.00
   15   11   18     -1.77      0.00
   17   11   18     -2.22      0.00
    0   12   18    -36.24      0.00
    2   12   18     -3.10      0.00
    4   12   18    -26.72      0.00
    6   12   18     10.01      0.00
    8   12   18      0.61      0.00
   10   12   18    -20.32      0.00
   12   12   18    -21.75      0.00
   14   12   18    -13.30      0.00
   16   12   18    -15.23      0.00
    1   13   18    -26.72      0.00
    3   13   18    -24.31      0.00
    5   13   18    -22.97      0.00
    7   13   18      3.33      0.00
    9   13   18     -3.81      0.00
   11   13   18     -5.76      0.00
   13   13   18    -18.53      0.00
   15   13   18    -17.21      0.00
   17   13   18     -8.16      0.00
    0   14   18     14.06      0.00
    2   14   18    -11.85      0.00
    4   14   18     20.38      0.00
    6   14   18      9.72      0.00
    8   14   18     18.46      0.00
   10   14   18    -11.59      0.00
   12   14   18     27.31      0.00
   14   14   18    -11.31      0.00
   16   14   18    -18.03      0.00
    1   15   18     -3.53      0.00
    3   15   18    -32.11      0.00
    5   15   18      2.01      0.00
    7   15   18    -10.78      0.00
    9   15   18    -11.28      0.00
   11   15   18     -2.40      0.00
   13   15   18     -7.88      0.00
   15   15   18      9.02      0.00
   17   15   18     -1.62      0.00
    0   16   18     24.46      0.00
    2   16   18     22.01      0.00
    4   16   18      2.31      0.00
    6   16   18     29.20      0.00
    8   16   18     -0.40      0.00
   10   16   18     10.39      0.00
   12   16   18     11.95      0.00
   14   16   18      9.37      0.00
   16   16   18      3.56      0.00
    1   17   18     14.98      0.00
    3   17   18    -10.16      0.00
    5   17   18      7.80      0.00
    7   17   18     16.77      0.00
    9   17   18     -5.46      0.00
   11   17   18      7.64      0.00
   13   17   18      2.52      0.00
   15   17   18    -12.18      0.00
   17   17   18      7.21      0.00
    0   18   18     -2.44      0.00
    2   18   18      2.47      0.00
    4   18   18     13.30      0.00
    6   18   18     -9.63      0.00
    8   18   18      4.38      0.00
   10   18   18    -27.94      0.00
   12   18   18      8.89      0.00
   14   18   18    -12.73      0.00
   16   18   18      4.37      0.00
   18   18   18     13.52      0.00
    2    1   19    -16.44      0.00
    4    1   19     40.63      0.00
    6    1   19     -8.03      0.00
    8    1   19     13.65      0.00
   10    1   19    -38.49      0.00
   12    1   19      1.65      0.00
   14    1   19     32.99      0.00
   16    1   19      3.07      0.00
   18    1   19      2.08      0.00
    1    2   19     -2.48      0.00
    3    2   19    -11.35      0.00
    5    2   19     -8.16      0.00
    7    2   19     -5.05      0.00
    9    2   19    -25.86      0.00
   11    2   19    -14.25      0.00
   13    2   19     -7.95      0.00
   15    2   19    -25.04      0.00
   17    2   19      4.89      0.00
    2    3   19    -37.60      0.00
    4    3   19    -39.63      0.00
    6    3   19     19.39      0.00
    8    3   19     -7.12      0.00
   10    3   19      1.70      0.00
   12    3   19    -27.55      0.00
   14    3   19    -32.54      0.00
   16    3   19     -3.59      0.00
   18    3   19     -4.78      0.00
    1    4   19     22.83      0.00
    3    4   19     24.34      0.00
    5    4   19     -5.54      0.00
    7    4   19      3.64      0.00
    9    4   19    -40.63      0.00
   11    4   19     15.90      0.00
   13    4   19     -7.54      0.00
   15    4   19    -15.64      0.00
   17    4   19      7.39      0.00
    2    5   19     17.80      0.00
    4    5   19      2.47      0.00
    6    5   19     23.33      0.00
    8    5   19    -40.10      0.00
   10    5   19     -0.75      0.00
   12    5   19      3.15      0.00
   14    5   19     11.16      0.00
   16    5   19     16.59      0.00
   18    5   19    -30.66      0.00
    1    6   19     -6.19      0.00
    3    6   19     15.28      0.00
    5    6   19      1.55      0.00
    7    6   19     -8.29      0.00
    9    6   19     14.85      0.00
   11    6   19     -8.78      0.00
   13    6   19     20.91      0.00
   15    6   19     11.74      0.00
   17    6   19      7.71      0.00
    2    7   19    -16.71      0.00
    4    7   19     -7.46      0.00
    6    7   19      1.01      0.00
    8    7   19     14.39      0.00
   10    7   19     27.68      0.00
   12    7   19      3.30      0.00
   14    7   19     -0.28      0.00
   16    7   19     -3.62      0.00
   18    7   19     10.34      0.00
    1    8   19    -16.98      0.00
    3    8   19      4.14      0.00
    5    8   19    -17.92      0.00
    7    8   19      2.54      0.00
    9    8   19     12.90      0.00
   11    8   19      3.51      0.00
   13    8   19     -0.33      0.00
   15    8   19     -5.05      0.00
   17    8   19     -6.04      0.00
    2    9   19     -3.93      0.00
    4    9   19     -3.34      0.00
    6    9   19     -2.85      0.00
    8    9   19     -3.34      0.00
   10    9   19    -30.50      0.00
   12    9   19     19.77      0.00
   14    9   19      6.46      0.00
   16    9   19     14.31      0.00
   18    9   19    -23.85      0.00
    1   10   19     34.48      0.00
    3   10   19    -13.99      0.00
    5   10   19      0.52      0.00
    7   10   19     -4.51      0.00
    9   10   19      4.84      0.00
   11   10   19    -10.96      0.00
   13   10   19    -13.70      0.00
   15   10   19     13.27      0.00
   17   10   19     -6.52      0.00
    2   11   19     14.97      0.00
    4   11   19    -13.79      0.00
    6   11   19     22.03      0.00
    8   11   19    -13.65      0.00
   10   11   19    -14.27      0.00
   12   11   19    -26.25      0.00
   14   11   19     -7.63      0.00
   16   11   19      5.19      0.00
   18   11   19      2.80      0.00
    1   12   19      0.04      0.00
    3   12   19     23.63      0.00
    5   12   19      5.48      0.00
    7   12   19     -6.86      0.00
    9   12   19      3.06      0.00
   11   12   19     -8.05      0.00
   13   12   19     -6.32      0.00
   15   12   19      4.32      0.00
   17   12   19    -11.01      0.00
    2   13   19    -23.59      0.00
    4   13   19     17.52      0.00
    6   13   19     -4.43      0.00
    8   13   19     14.82      0.00
   10   13   19     -5.41      0.00
   12   13   19      3.35      0.00
   14   13   19    -14.26      0.00
   16   13   19     -9.16      0.00
   18   13   19     16.35      0.00
    1   14   19     -5.35      0.00
    3   14   19     -4.89      0.00
    5   14   19     18.96      0.00
    7   14   19    -13.17      0.00
    9   14   19     10.82      0.00
   11   14   19     -5.73      0.00
   13   14   19     -9.60      0.00
   15   14   19     -2.36      0.00
   17   14   19     -2.84      0.00
    2   15   19      0.05      0.00
    4   15   19     18.82      0.00
    6   15   19     -4.31      0.00
    8   15   19    -28.23      0.00
   10   15   19     14.24      0.00
   12   15   19      2.64      0.00
   14   15   19     27.90      0.00
   16   15   19     14.49      0.00
   18   15   19    -10.83      0.00
    1   16   19    -15.85      0.00
    3   16   19     20.19      0.00
    5   16   19      9.36      0.00
    7   16   19    -13.45      0.00
    9   16   19     -5.95      0.00
   11   16   19      8.83      0.00
   13   16   19    -12.55      0.00
   15   16   19     -2.78      0.00
   17   16   19    -11.87      0.00
    2   17   19    -26.01      0.00
    4   17   19     10.16      0.00
    6   17   19    -13.36      0.00
    8   17   19     13.14      0.00
   10   17   19      1.62      0.00
   12   17   19     -6.27      0.00
   14   17   19      1.96      0.00
   16   17   19     -1.21      0.00
   18   17   19      5.85      0.00
    1   18   19      6.15      0.00
    3   18   19     -7.44      0.00
    5   18   19     -5.87      0.00
    7   18   19     -8.76      0.00
    9   18   19     -7.60      0.00
   11   18   19     15.07      0.00
   13   18   19     -5.72      0.00
   15   18   19     -6.28      0.00
   17   18   19      8.06      0.00
    2   19   19     -5.16      0.00
    4   19   19     -5.83      0.00
    6   19   19     -2.92      0.00
    8   19   19      1.57      0.00
   10   19   19    -16.40      0.00
   12   19   19      3.63      0.00
   14   19   19     -2.77      0.00
   16   19   19     -9.21      0.00
   18   19   19    -13.85      0.00
    0    0   20     21.05      0.00
    2    0   20    -28.02      0.00
    4    0   20    -16.54      0.00
    6    0   20    -16.17      0.00
    8    0   20    -13.90      0.00
   10    0   20    -15.72      0.00
   12    0   20    -15.25      0.00
   14    0   20     -4.63      0.00
   16    0   20      3.56      0.00
   18    0   20    -21.34      0.00
    1    1   20     -2.65      0.00
    3    1   20      3.75      0.00
    5    1   20     23.98      0.00
    7    1   20     31.95      0.00
    9    1   20     18.20      0.00
   11    1   20      1.29      0.00
   13    1   20     -0.38      0.00
   15    1   20     -2.32      0.00
   17    1   20     21.20      0.00
   19    1   20      6.90      0.00
    0    2   20      9.51      0.00
    2    2   20     -9.90      0.00
    4    2   20     22.06      0.00
    6    2   20     -6.02      0.00
    8    2   20     -8.21      0.00
   10    2   20     -3.81      0.00
   12    2   20      0.72      0.00
   14    2   20     30.44      0.00
   16    2   20    -22.96      0.00
   18    2   20     11.73      0.00
    1    3   20     46.99      0.00
    3    3   20     30.58      0.00
    5    3   20    -42.83      0.00
    7    3   20     24.29      0.00
    9    3   20      0.83      0.00
   11    3   20     45.61      0.00
   13    3   20     20.06      0.00
   15    3   20     -6.71      0.00
   17    3   20      0.29      0.00
   19    3   20      0.97      0.00
    0    4   20      5.23      0.00
    2    4   20     23.76      0.00
    4    4   20     -0.31      0.00
    6    4   20      5.40      0.00
    8    4   20     19.25      0.00
   10    4   20     -7.79      0.00
   12    4   20      3.42      0.00
   14    4   20      0.08      0.00
   16    4   20     29.33      0.00
   18    4   20    -10.96      0.00
    1    5   20     -7.32      0.00
    3    5   20     -5.36      0.00
    5    5   20      9.49      0.00
    7    5   20      8.86      0.00
    9    5   20     -9.17      0.00
   11    5   20    -18.05      0.00
   13    5   20      4.85      0.00
   15    5   20     -8.60      0.00
   17    5   20     15.40      0.00
   19    5   20    -14.56      0.00
    0    6   20     -5.68      0.00
    2    6   20     -3.11      0.00
    4    6   20    -15.01      0.00
    6    6   20     17.47      0.00
    8    6   20      9.74      0.00
   10    6   20     21.93      0.00
   12    6   20    -26.54      0.00
   14    6   20     -0.87      0.00
   16    6   20     -3.41      0.00
   18    6   20     -4.34      0.00
    1    7   20    -18.41      0.00
    3    7   20    -33.62      0.00
    5    7   20     -0.67      0.00
    7    7   20      0.10      0.00
    9    7   20      4.54      0.00
   11    7   20    -15.24      0.00
   13    7   20    -20.59      0.00
   15    7   20    -14.08      0.00
   17    7   20     -0.26      0.00
   19    7   20      8.60      0.00
    0    8   20      1.47      0.00
    2    8   20      8.65      0.00
    4    8   20     -6.02      0.00
    6    8   20    -10.39      0.00
    8    8   20     -1.89      0.00
   10    8   20    -13.35      0.00
   12    8   20     17.92      0.00
   14    8   20     -1.12      0.00
   16    8   20      7.10      0.00
   18    8   20    -18.98      0.00
    1    9   20     25.28      0.00
    3    9   20     12.29      0.00
    5    9   20    -19.62      0.00
    7    9   20     -3.74      0.00
    9    9   20      4.06      0.00
   11    9   20     14.36      0.00
   13    9   20     18.71      0.00
   15    9   20     -2.71      0.00
   17    9   20     -0.74      0.00
   19    9   20    -15.43      0.00
    0   10   20    -10.52      0.00
    2   10   20     12.19      0.00
    4   10   20    -23.68      0.00
    6   10   20     12.77      0.00
    8   10   20    -21.33      0.00
   10   10   20     -4.78      0.00
   12   10   20     -9.67      0.00
   14   10   20     -5.67      0.00
   16   10   20     14.73      0.00
   18   10   20      4.41      0.00
    1   11   20     14.17      0.00
    3   11   20      7.31      0.00
    5   11   20     33.00      0.00
    7   11   20     14.85      0.00
    9   11   20     10.21      0.00
   11   11   20      5.92      0.00
   13   11   20    -16.98      0.00
   15   11   20     27.39      0.00
   17   11   20     -0.80      0.00
   19   11   20      7.00      0.00
    0   12   20     22.93      0.00
    2   12   20    -27.61      0.00
    4   12   20     -2.71      0.00
    6   12   20    -23.66      0.00
    8   12   20     -4.40      0.00
   10   12   20     -9.45      0.00
   12   12   20     -3.62      0.00
   14   12   20      3.57      0.00
   16   12   20     -4.99      0.00
   18   12   20     -8.29      0.00
    1   13   20     16.27      0.00
    3   13   20      1.17      0.00
    5   13   20     -5.93      0.00
    7   13   20    -14.47      0.00
    9   13   20      7.94      0.00
   11   13   20      8.77      0.00
   13   13   20     10.49      0.00
   15   13   20      7.35      0.00
   17   13   20      1.09      0.00
   19   13   20     -5.92      0.00
    0   14   20     -7.53      0.00
    2   14   20     26.72      0.00
    4   14   20     -0.71      0.00
    6   14   20     -1.00      0.00
    8   14   20      7.41      0.00
   10   14   20     -3.46      0.00
   12   14   20     -0.58      0.00
   14   14   20     18.54      0.00
   16   14   20      4.15      0.00
   18   14   20      8.87      0.00
    1   15   20      2.82      0.00
    3   15   20      6.39      0.00
    5   15   20    -11.19      0.00
    7   15   20      3.28      0.00
    9   15   20      0.90      0.00
   11   15   20     -2.74      0.00
   13   15   20     -3.38      0.00
   15   15   20     -0.50      0.00
   17   15   20      7.46      0.00
   19   15   20      3.15      0.00
    0   16   20     -1.33      0.00
    2   16   20     -5.73      0.00
    4   16   20     34.54      0.00
    6   16   20     -7.29      0.00
    8   16   20     22.41      0.00
   10   16   20     -4.43      0.00
   12   16   20      2.67      0.00
   14   16   20     -0.98      0.00
   16   16   20    -13.50      0.00
   18   16   20      6.93      0.00
    1   17   20      5.18      0.00
    3   17   20    -19.35      0.00
    5   17   20      4.32      0.00
    7   17   20     -4.53      0.00
    9   17   20     28.90      0.00
   11   17   20     -6.91      0.00
   13   17   20     -1.49      0.00
   15   17   20    -10.54      0.00
   17   17   20    -14.20      0.00
   19   17   20     15.22      0.00
    0   18   20    -12.70      0.00
    2   18   20     -8.77      0.00
    4   18   20    -16.60      0.00
    6   18   20     -1.08      0.00
    8   18   20    -12.87      0.00
   10   18   20      4.43      0.00
   12   18   20    -14.41      0.00
   14   18   20      5.04      0.00
   16   18   20    -13.24      0.00
   18   18   20    -10.52      0.00
    1   19   20      0.15      0.00
    3   19   20    -10.68      0.00
    5   19   20    -24.79      0.00
    7   19   20     11.69      0.00
    9   19   20     -8.38      0.00
   11   19   20      6.89      0.00
   13   19   20     22.51      0.00
   15   19   20      2.00      0.00
   17   19   20      9.30      0.00
   19   19   20      1.47      0.00
    0   20   20      9.80      0.00
    2   20   20    -12.37      0.00
    4   20   20     11.55      0.00
    6   20   20      2.88      0.00
    8   20   20     -6.07      0.00
   10   20   20     -1.34      0.00
   12   20   20      0.75      0.00
   14   20   20    -11.27      0.00
   16   20   20     12.27      0.00
   18   20   20     -1.75      0.00
   20   20   20      3.23      0.00
    2    1   21    -16.67      0.00
    4    1   21     16.22      0.00
    6    1   21    -22.07      0.00
    8    1   21     -6.50      0.00
   10    1   21     10.91      0.00
   12    1   21     11.07      0.00
   14    1   21     16.33      0.00
   16    1   21    -17.22      0.00
   18    1   21    -20.94      0.00
   20    1   21     -0.79      0.00
    1    2   21    -39.52      0.00
    3    2   21     -4.07      0.00
    5    2   21    -12.21      0.00
    7    2   21      1.02      0.00
    9    2   21      8.58      0.00
   11    2   21    -16.23      0.00
   13    2   21     -3.53      0.00
   15    2   21    -16.39      0.00
   17    2   21      1.88      0.00
   19    2   21     11.81      0.00
    2    3   21    -45.49      0.00
    4    3   21      0.92      0.00
    6    3   21     17.20      0.00
    8    3   21     15.02      0.00
   10    3   21    -17.72      0.00
   12    3   21    -17.43      0.00
   14    3   21     -5.59      0.00
   16    3   21    -13.11      0.00
   18    3   21     -0.20      0.00
   20    3   21     -4.81      0.00
    1    4   21    -10.40      0.00
    3    4   21     31.12      0.00
    5    4   21      9.18      0.00
    7    4   21      1.02      0.00
    9    4   21     -8.67      0.00
   11    4   21      1.15      0.00
   13    4   21     21.09      0.00
   15    4   21     -4.14      0.00
   17    4   21     17.48      0.00
   19    4   21    -20.68      0.00
    2    5   21     11.61      0.00
    4    5   21    -27.40      0.00
    6    5   21     31.92      0.00
    8    5   21    -35.26      0.00
   10    5   21     -5.52      0.00
   12    5   21     23.75      0.00
   14    5   21      0.87      0.00
   16    5   21      2.39      0.00
   18    5   21    -13.19      0.00
   20    5   21     -4.42      0.00
    1    6   21     -3.80      0.00
    3    6   21    -12.97      0.00
    5    6   21      4.64      0.00
    7    6   21     10.49      0.00
    9    6   21     -1.72      0.00
   11    6   21     12.32      0.00
   13    6   21    -24.51      0.00
   15    6   21      7.23      0.00
   17    6   21      9.62      0.00
   19    6   21     10.99      0.00
    2    7   21    -29.48      0.00
    4    7   21      6.64      0.00
    6    7   21     15.77      0.00
    8    7   21     10.19      0.00
   10    7   21    -13.44      0.00
   12    7   21     13.53      0.00
   14    7   21     -4.05      0.00
   16    7   21     -3.08      0.00
   18    7   21      4.65      0.00
   20    7   21     14.36      0.00
    1    8   21     -1.52      0.00
    3    8   21     18.26      0.00
    5    8   21      3.85      0.00
    7    8   21    -25.41      0.00
    9    8   21     -5.62      0.00
   11    8   21    -14.17      0.00
   13    8   21     14.39      0.00
   15    8   21      4.46      0.00
   17    8   21      0.27      0.00
   19    8   21     -3.75      0.00
    2    9   21     -5.75      0.00
    4    9   21     14.21      0.00
    6    9   21      3.45      0.00
    8    9   21    -11.53      0.00
   10    9   21     -6.19      0.00
   12    9   21      1.23      0.00
   14    9   21      3.27      0.00
   16    9   21     -6.78      0.00
   18    9   21     -8.42      0.00
   20    9   21    -16.24      0.00
    1   10   21     11.21      0.00
    3   10   21      3.27      0.00
    5   10   21    -12.28      0.00
    7   10   21      4.40      0.00
    9   10   21     12.34      0.00
   11   10   21      6.12      0.00
   13   10   21    -11.56      0.00
   15   10   21      0.54      0.00
   17   10   21    -10.08      0.00
   19   10   21      0.12      0.00
    2   11   21    -23.46      0.00
    4   11   21    -22.68      0.00
    6   11   21      5.13      0.00
    8   11   21      7.11      0.00
   10   11   21     -3.48      0.00
   12   11   21      9.86      0.00
   14   11   21    -16.64      0.00
   16   11   21    -12.49      0.00
   18   11   21    -12.60      0.00
   20   11   21      1.30      0.00
    1   12   21     24.93      0.00
    3   12   21    -19.91      0.00
    5   12   21     -6.30      0.00
    7   12   21     -2.59      0.00
    9   12   21     15.81      0.00
   11   12   21     13.59      0.00
   13   12   21      3.43      0.00
   15   12   21      4.40      0.00
   17   12   21    -11.62      0.00
   19   12   21      9.34      0.00
    2   13   21     -9.49      0.00
    4   13   21    -27.67      0.00
    6   13   21     10.57      0.00
    8   13   21      7.34      0.00
   10   13   21      9.41      0.00
   12   13   21     -3.39      0.00
   14   13   21     15.42      0.00
   16   13   21     -9.30      0.00
   18   13   21      1.22      0.00
   20   13   21      2.46      0.00
    1   14   21     -0.01      0.00
    3   14   21     -3.11      0.00
    5   14   21    -14.32      0.00
    7   14   21      4.01      0.00
    9   14   21     -5.45      0.00
   11   14   21     -4.54      0.00
   13   14   21      2.06      0.00
   15   14   21     12.98      0.00
   17   14   21     10.14      0.00
   19   14   21     -8.05      0.00
    2   15   21     20.45      0.00
    4   15   21     11.18      0.00
    6   15   21      8.73      0.00
    8   15   21     -5.76      0.00
   10   15   21     -7.90      0.00
   12   15   21     15.09      0.00
   14   15   21      9.12      0.00
   16   15   21     11.18      0.00
   18   15   21    -12.90      0.00
   20   15   21      1.45      0.00
    1   16   21      9.01      0.00
    3   16   21     -8.60      0.00
    5   16   21     10.22      0.00
    7   16   21      1.02      0.00
    9   16   21     -1.63      0.00
   11   16   21     -1.59      0.00
   13   16   21    -26.30      0.00
   15   16   21    -10.86      0.00
   17   16   21      2.01      0.00
   19   16   21      3.62      0.00
    2   17   21    -13.81      0.00
    4   17   21      6.36      0.00
    6   17   21     -3.93      0.00
    8   17   21      7.40      0.00
   10   17   21      8.45      0.00
   12   17   21    -14.33      0.00
   14   17   21      6.46      0.00
   16   17   21     -0.02      0.00
   18   17   21      9.27      0.00
   20   17   21     15.09      0.00
    1   18   21    -16.05      0.00
    3   18   21     18.20      0.00
    5   18   21      2.30      0.00
    7   18   21    -11.13      0.00
    9   18   21     -6.44      0.00
   11   18   21     -0.85      0.00
   13   18   21    -12.30      0.00
   15   18   21     -6.02      0.00
   17   18   21      7.49      0.00
   19   18   21     -1.85      0.00
    2   19   21    -17.77      0.00
    4   19   21     22.48      0.00
    6   19   21    -15.74      0.00
    8   19   21      3.69      0.00
   10   19   21     -6.30      0.00
   12   19   21      5.43      0.00
   14   19   21      1.51      0.00
   16   19   21     -2.45      0.00
   18   19   21      7.64      0.00
   20   19   21      8.42      0.00
    1   20   21    -11.38      0.00
    3   20   21     -2.99      0.00
    5   20   21      2.19      0.00
    7   20   21     -6.35      0.00
    9   20   21     13.28      0.00
   11   20   21      4.49      0.00
   13   20   21     -4.47      0.00
   15   20   21     -1.22      0.00
   17   20   21     22.32      0.00
   19   20   21      0.83      0.00
    2   21   21    -10.42      0.00
    4   21   21     -2.94      0.00
    6   21   21     13.03      0.00
    8   21   21     -2.39      0.00
   10   21   21      4.46      0.00
   12   21   21     13.20      0.00
   14   21   21     -2.23      0.00
   16   21   21      9.43      0.00
   18   21   21     -5.25      0.00
   20   21   21     -3.33      0.00
    0    0   22     -3.82      0.00
    2    0   22     -9.72      0.00
    4    0   22     39.25      0.00
    6    0   22     30.67      0.00
    8    0   22     37.65      0.00
   10    0   22      2.30      0.00
   12    0   22    -35.90      0.00
   14    0   22     18.86      0.00
   16    0   22    -10.31      0.00
   18    0   22      9.11      0.00
   20    0   22      6.53      0.00
    1    1   22     14.61      0.00
    3    1   22     21.54      0.00
    5    1   22     22.87      0.00
    7    1   22     17.12      0.00
    9    1   22      1.57      0.00
   11    1   22      6.80      0.00
   13    1   22      3.23      0.00
   15    1   22      8.13      0.00
   17    1   22     -0.60      0.00
   19    1   22     10.78      0.00
   21    1   22      3.90      0.00
    0    2   22     29.65      0.00
    2    2   22      8.44      0.00
    4    2   22     -2.53      0.00
    6    2   22     -5.61      0.00
    8    2   22     23.51      0.00
   10    2   22     17.82      0.00
   12    2   22     -6.00      0.00
   14    2   22     -0.43      0.00
   16    2   22      0.70      0.00
   18    2   22     -8.95      0.00
   20    2   22     24.53      0.00
    1    3   22     24.83      0.00
    3    3   22     20.28      0.00
    5    3   22    -13.54      0.00
    7    3   22      7.75      0.00
    9    3   22     18.52      0.00
   11    3   22     -0.39      0.00
   13    3   22     18.79      0.00
   15    3   22    -14.31      0.00
   17    3   22      8.09      0.00
   19    3   22      0.70      0.00
   21    3   22      7.06      0.00
    0    4   22    -37.50      0.00
    2    4   22    -11.61      0.00
    4    4   22      7.13      0.00
    6    4   22     11.97      0.00
    8    4   22     -6.89      0.00
   10    4   22     -4.84      0.00
   12    4   22    -14.28      0.00
   14    4   22     -2.95      0.00
   16    4   22      7.33      0.00
   18    4   22     11.60      0.00
   20    4   22    -10.25      0.00
    1    5   22    -36.56      0.00
    3    5   22     -0.43      0.00
    5    5   22     -2.00      0.00
    7    5   22     -1.82      0.00
    9    5   22    -14.33      0.00
   11    5   22     -9.17      0.00
   13    5   22      1.39      0.00
   15    5   22      7.78      0.00
   17    5   22    -14.59      0.00
   19    5   22     -9.28      0.00
   21    5   22     -9.78      0.00
    0    6   22    -10.09      0.00
    2    6   22     -2.22      0.00
    4    6   22     -8.21      0.00
    6    6   22    -10.24      0.00
    8    6   22    -10.23      0.00
   10    6   22     -3.30      0.00
   12    6   22      2.42      0.00
   14    6   22    -20.15      0.00
   16    6   22     15.02      0.00
   18    6   22    -12.31      0.00
   20    6   22     10.08      0.00
    1    7   22      6.99      0.00
    3    7   22    -10.67      0.00
    5    7   22     -0.32      0.00
    7    7   22    -21.04      0.00
    9    7   22      3.10      0.00
   11    7   22     -1.55      0.00
   13    7   22     -4.76      0.00
   15    7   22     14.91      0.00
   17    7   22     -3.84      0.00
   19    7   22     -1.65      0.00
   21    7   22     -5.15      0.00
    0    8   22      8.21      0.00
    2    8   22     23.00      0.00
    4    8   22     12.87      0.00
    6    8   22      6.10      0.00
    8    8   22      3.50      0.00
   10    8   22     16.29      0.00
   12    8   22     -1.97      0.00
   14    8   22     18.50      0.00
   16    8   22     -2.08      0.00
   18    8   22      7.48      0.00
   20    8   22     -5.52      0.00
    1    9   22     19.07      0.00
    3    9   22     11.55      0.00
    5    9   22    -15.84      0.00
    7    9   22     21.69      0.00
    9    9   22     27.94      0.00
   11    9   22     12.65      0.00
   13    9   22     -0.54      0.00
   15    9   22     -1.96      0.00
   17    9   22      4.88      0.00
   19    9   22      5.59      0.00
   21    9   22     -4.71      0.00
    0   10   22    -40.38      0.00
    2   10   22     13.89      0.00
    4   10   22     22.80      0.00
    6   10   22     23.23      0.00
    8   10   22     44.58      0.00
   10   10   22    -18.00      0.00
   12   10   22      8.26      0.00
   14   10   22    -10.28      0.00
   16   10   22     10.94      0.00
   18   10   22      3.66      0.00
   20   10   22      5.04      0.00
    1   11   22     -0.95      0.00
    3   11   22      1.09      0.00
    5   11   22     -4.99      0.00
    7   11   22     26.56      0.00
    9   11   22      1.12      0.00
   11   11   22      1.24      0.00
   13   11   22     -6.50      0.00
   15   11   22     -4.74      0.00
   17   11   22      1.29      0.00
   19   11   22    -15.56      0.00
   21   11   22      9.42      0.00
    0   12   22     10.13      0.00
    2   12   22      0.56      0.00
    4   12   22    -25.54      0.00
    6   12   22      3.79      0.00
    8   12   22     -6.53      0.00
   10   12   22     14.71      0.00
   12   12   22     -8.50      0.00
   14   12   22     -1.68      0.00
   16   12   22     -9.71      0.00
   18   12   22     -7.66      0.00
   20   12   22      0.38      0.00
    1   13   22      6.90      0.00
    3   13   22    -23.01      0.00
    5   13   22      1.62      0.00
    7   13   22      4.00      0.00
    9   13   22    -12.32      0.00
   11   13   22     -0.15      0.00
   13   13   22    -10.87      0.00
   15   13   22     10.57      0.00
   17   13   22     13.83      0.00
   19   13   22     -5.95      0.00
   21   13   22     -2.46      0.00
    0   14   22     12.00      0.00
    2   14   22    -30.71      0.00
    4   14   22     15.60      0.00
    6   14   22     17.51      0.00
    8   14   22     -0.73      0.00
   10   14   22    -11.08      0.00
   12   14   22    -10.95      0.00
   14   14   22     -2.77      0.00
   16   14   22     -0.64      0.00
   18   14   22     -3.69      0.00
   20   14   22      1.25      0.00
    1   15   22     -0.24      0.00
    3   15   22    -15.40      0.00
    5   15   22     18.51      0.00
    7   15   22     -3.22      0.00
    9   15   22     -3.79      0.00
   11   15   22     -4.42      0.00
   13   15   22      3.10      0.00
   15   15   22     -0.51      0.00
   17   15   22      4.53      0.00
   19   15   22     -2.36      0.00
   21   15   22     10.18      0.00
    0   16   22     -4.77      0.00
    2   16   22      5.75      0.00
    4   16   22    -10.23      0.00
    6   16   22      8.13      0.00
    8   16   22     -7.80      0.00
   10   16   22      2.36      0.00
   12   16   22      2.77      0.00
   14   16   22      6.98      0.00
   16   16   22     -0.63      0.00
   18   16   22      1.74      0.00
   20   16   22     15.28      0.00
    1   17   22     16.88      0.00
    3   17   22     -1.59      0.00
    5   17   22    -17.18      0.00
    7   17   22     -5.87      0.00
    9   17   22      7.06      0.00
   11   17   22     -6.12      0.00
   13   17   22      7.67      0.00
   15   17   22     24.11      0.00
   17   17   22    -10.05      0.00
   19   17   22     -8.27      0.00
   21   17   22     -6.69      0.00
    0   18   22     10.15      0.00
    2   18   22     -7.85      0.00
    4   18   22     14.06      0.00
    6   18   22    -27.60      0.00
    8   18   22     -7.01      0.00
   10   18   22     -5.64      0.00
   12   18   22     -8.90      0.00
   14   18   22     12.42      0.00
   16   18   22      5.23      0.00
   18   18   22     16.79      0.00
   20   18   22      5.71      0.00
    1   19   22     14.79      0.00
    3   19   22     10.80      0.00
    5   19   22    -10.91      0.00
    7   19   22     -9.05      0.00
    9   19   22     17.73      0.00
   11   19   22    -18.50      0.00
   13   19   22     15.45      0.00
   15   19   22     11.65      0.00
   17   19   22     -0.38      0.00
   19   19   22     11.89      0.00
   21   19   22     -6.04      0.00
    0   20   22    -27.56      0.00
    2   20   22     10.74      0.00
    4   20   22      6.36      0.00
    6   20   22      9.80      0.00
    8   20   22      8.07      0.00
   10   20   22      1.85      0.00
   12   20   22    -18.21      0.00
   14   20   22     -9.69      0.00
   16   20   22     -2.20      0.00
   18   20   22     -2.98      0.00
   20   20   22     -4.34      0.00
    1   21   22     -6.01      0.00
    3   21   22      0.01      0.00
    5   21   22     -5.62      0.00
    7   21   22     10.31      0.00
    9   21   22      7.66      0.00
   11   21   22     -2.10      0.00
   13   21   22     -7.10      0.00
   15   21   22     12.28      0.00
   17   21   22     -6.55      0.00
   19   21   22      6.69      0.00
   21   21   22      3.64      0.00
    0   22   22      8.40      0.00
    2   22   22     -3.08      0.00
    4   22   22      2.92      0.00
    6   22   22     -7.11      0.00
    8   22   22      5.33      0.00
   10   22   22      4.49      0.00
   12   22   22      7.54      0.00
   14   22   22     -8.68      0.00
   16   22   22      5.16      0.00
   18   22   22    -17.61      0.00
   20   22   22      4.32      0.00
   22   22   22      6.73      0.00
    2    1   23      3.74      0.00
    4    1   23      9.50      0.00
    6    1   23     35.42      0.00
    8    1   23     -7.83      0.00
   10    1   23    -18.92      0.00
   12    1   23     16.02      0.00
   14    1   23     33.93      0.00
   16    1   23      5.38      0.00
   18    1   23      3.64      0.00
   20    1   23     19.03      0.00
   22    1   23      6.82      0.00
    1    2   23     -7.03      0.00
    3    2   23     -2.72      0.00
    5    2   23      8.45      0.00
    7    2   23     13.65      0.00
    9    2   23     -0.13      0.00
   11    2   23     -6.33      0.00
   13    2   23     -6.49      0.00
   15    2   23     -2.70      0.00
   17    2   23     16.84      0.00
   19    2   23     15.90      0.00
   21    2   23      5.45      0.00
    2    3   23    -20.45      0.00
    4    3   23      4.35      0.00
    6    3   23     14.21      0.00
    8    3   23     -4.09      0.00
   10    3   23    -13.90      0.00
   12    3   23     -3.27      0.00
   14    3   23     16.19      0.00
   16    3   23    -12.69      0.00
   18    3   23    -16.11      0.00
   20    3   23      0.98      0.00
   22    3   23    -14.69      0.00
    1    4   23      0.22      0.00
    3    4   23     18.12      0.00
    5    4   23    -10.45      0.00
    7    4   23    -37.72      0.00
    9    4   23      3.84      0.00
   11    4   23     16.64      0.00
   13    4   23     22.94      0.00
   15    4   23      1.98      0.00
   17    4   23    -17.11      0.00
   19    4   23      9.57      0.00
   21    4   23    -12.99      0.00
    2    5   23    -33.95      0.00
    4    5   23      7.52      0.00
    6    5   23      1.29      0.00
    8    5   23      7.03      0.00
   10    5   23    -32.35      0.00
   12    5   23      1.00      0.00
   14    5   23     -7.12      0.00
   16    5   23     -6.49      0.00
   18    5   23     -3.98      0.00
   20    5   23    -12.44      0.00
   22    5   23     -0.04      0.00
    1    6   23     -6.65      0.00
    3    6   23    -14.10      0.00
    5    6   23      4.35      0.00
    7    6   23     15.20      0.00
    9    6   23     13.88      0.00
   11    6   23    -13.64      0.00
   13    6   23    -15.86      0.00
   15    6   23     -4.67      0.00
   17    6   23      1.94      0.00
   19    6   23      7.07      0.00
   21    6   23      2.70      0.00
    2    7   23     10.69      0.00
    4    7   23      8.27      0.00
    6    7   23     12.86      0.00
    8    7   23    -23.47      0.00
   10    7   23     12.01      0.00
   12    7   23     18.61      0.00
   14    7   23     13.02      0.00
   16    7   23     -3.94      0.00
   18    7   23      1.80      0.00
   20    7   23      3.55      0.00
   22    7   23      3.67      0.00
    1    8   23     12.78      0.00
    3    8   23     20.98      0.00
    5    8   23     -1.01      0.00
    7    8   23    -14.06      0.00
    9    8   23     -7.95      0.00
   11    8   23      4.28      0.00
   13    8   23      1.92      0.00
   15    8   23     10.39      0.00
   17    8   23    -11.66      0.00
   19    8   23     -2.10      0.00
   21    8   23     -0.38      0.00
    2    9   23    -18.30      0.00
    4    9   23     11.54      0.00
    6    9   23      8.61      0.00
    8    9   23      9.21      0.00
   10    9   23    -14.05      0.00
   12    9   23     16.76      0.00
   14    9   23     -1.97      0.00
   16    9   23     -1.35      0.00
   18    9   23      7.86      0.00
   20    9   23     -1.99      0.00
   22    9   23      8.70      0.00
    1   10   23     -6.97      0.00
    3   10   23    -14.15      0.00
    5   10   23     -5.68      0.00
    7   10   23     15.49      0.00
    9   10   23      4.69      0.00
   11   10   23     -3.69      0.00
   13   10   23      4.40      0.00
   15   10   23     -8.18      0.00
   17   10   23      9.50      0.00
   19   10   23     -7.00      0.00
   21   10   23      5.90      0.00
    2   11   23     -3.12      0.00
    4   11   23     -5.02      0.00
    6   11   23     15.56      0.00
    8   11   23    -12.42      0.00
   10   11   23    -22.80      0.00
   12   11   23     -3.08      0.00
   14   11   23      0.66      0.00
   16   11   23    -11.98      0.00
   18   11   23     13.10      0.00
   20   11   23      8.70      0.00
   22   11   23      4.86      0.00
    1   12   23     18.16      0.00
    3   12   23      1.57      0.00
    5   12   23      4.44      0.00
    7   12   23      9.75      0.00
    9   12   23    -17.51      0.00
   11   12   23     17.89      0.00
   13   12   23     -8.08      0.00
   15   12   23     14.05      0.00
   17   12   23      7.57      0.00
   19   12   23      0.27      0.00
   21   12   23     10.51      0.00
    2   13   23    -12.92      0.00
    4   13   23     -4.56      0.00
    6   13   23     14.97      0.00
    8   13   23     -1.63      0.00
   10   13   23    -12.99      0.00
   12   13   23     -0.04      0.00
   14   13   23      6.60      0.00
   16   13   23     -5.08      0.00
   18   13   23     -6.89      0.00
   20   13   23      7.73      0.00
   22   13   23     -7.18      0.00
    1   14   23      2.29      0.00
    3   14   23      6.14      0.00
    5   14   23     11.94      0.00
    7   14   23    -11.99      0.00
    9   14   23      3.08      0.00
   11   14   23     -1.11      0.00
   13   14   23      8.81      0.00
   15   14   23      7.52      0.00
   17   14   23     -8.56      0.00
   19   14   23     -1.51      0.00
   21   14   23      7.01      0.00
    2   15   23     -1.51      0.00
    4   15   23     13.00      0.00
    6   15   23     13.41      0.00
    8   15   23     -2.89      0.00
   10   15   23      4.34      0.00
   12   15   23      2.42      0.00
   14   15   23     13.12      0.00
   16   15   23    -11.43      0.00
   18   15   23    -10.09      0.00
   20   15   23      1.67      0.00
   22   15   23     -4.59      0.00
    1   16   23     -3.52      0.00
    3   16   23    -11.34      0.00
    5   16   23    -10.21      0.00
    7   16   23      7.39      0.00
    9   16   23      5.78      0.00
   11   16   23     13.81      0.00
   13   16   23     -2.09      0.00
   15   16   23     -5.38      0.00
   17   16   23     -6.50      0.00
   19   16   23      0.17      0.00
   21   16   23     15.41      0.00
    2   17   23     -0.47      0.00
    4   17   23     -3.40      0.00
    6   17   23      0.55      0.00
    8   17   23    -10.84      0.00
   10   17   23      0.20      0.00
   12   17   23      8.55      0.00
   14   17   23      2.22      0.00
   16   17   23     12.44      0.00
   18   17   23     -5.80      0.00
   20   17   23     -2.70      0.00
   22   17   23    -12.24      0.00
    1   18   23     13.64      0.00
    3   18   23     -4.46      0.00
    5   18   23     -5.37      0.00
    7   18   23     -9.60      0.00
    9   18   23     -1.57      0.00
   11   18   23      6.34      0.00
   13   18   23     14.14      0.00
   15   18   23     -2.30      0.00
   17   18   23     -3.16      0.00
   19   18   23      6.57      0.00
   21   18   23     -3.65      0.00
    2   19   23     -7.88      0.00
    4   19   23     -9.22      0.00
    6   19   23      5.23      0.00
    8   19   23      3.22      0.00
   10   19   23     -2.27      0.00
   12   19   23     -2.31      0.00
   14   19   23      8.47      0.00
   16   19   23      4.23      0.00
   18   19   23      1.54      0.00
   20   19   23     -1.50      0.00
   22   19   23     -9.28      0.00
    1   20   23    -17.71      0.00
    3   20   23      0.44      0.00
    5   20   23     -7.42      0.00
    7   20   23     15.49      0.00
    9   20   23     16.55      0.00
   11   20   23    -12.15      0.00
   13   20   23     11.26      0.00
   15   20   23     -4.79      0.00
   17   20   23     11.62      0.00
   19   20   23      3.92      0.00
   21   20   23    -10.81      0.00
    2   21   23      2.96      0.00
    4   21   23     19.87      0.00
    6   21   23     -6.39      0.00
    8   21   23     -4.36      0.00
   10   21   23    -17.86      0.00
   12   21   23      2.22      0.00
   14   21   23      2.95      0.00
   16   21   23     -7.39      0.00
   18   21   23     -1.95      0.00
   20   21   23     -9.90      0.00
   22   21   23     -0.18      0.00
    1   22   23      8.31      0.00
    3   22   23      8.26      0.00
    5   22   23      0.52      0.00
    7   22   23     -6.46      0.00
    9   22   23     13.43      0.00
   11   22   23     -1.18      0.00
   13   22   23     -3.30      0.00
   15   22   23      4.38      0.00
   17   22   23      2.20      0.00
   19   22   23     -0.21      0.00
   21   22   23      9.93      0.00
    2   23   23    -11.20      0.00
    4   23   23     -2.09      0.00
    6   23   23      4.36      0.00
    8   23   23      2.13      0.00
   10   23   23     -0.83      0.00
   12   23   23    -10.91      0.00
   14   23   23      4.66      0.00
   16   23   23     -2.32      0.00
   18   23   23      5.11      0.00
   20   23   23      3.89      0.00
   22   23   23      1.97      0.00
    0    0   24     -2.34      0.00
    2    0   24     12.23      0.00
    4    0   24     14.40      0.00
    6    0   24     15.59      0.00
    8    0   24     -5.00      0.00
   10    0   24     -6.12      0.00
   12    0   24      2.85      0.00
   14    0   24    -16.91      0.00
   16    0   24     -0.71      0.00
   18    0   24     -0.86      0.00
   20    0   24     16.22      0.00
   22    0   24    -14.08      0.00
    1    1   24     26.51      0.00
    3    1   24     -5.43      0.00
    5    1   24    -15.63      0.00
    7    1   24      0.86      0.00
    9    1   24     26.48      0.00
   11    1   24      6.57      0.00
   13    1   24     -4.29      0.00
   15    1   24     -5.97      0.00
   17    1   24      4.98      0.00
   19    1   24     -1.84      0.00
   21    1   24      5.15      0.00
   23    1   24     -7.04      0.00
    0    2   24     11.82      0.00
    2    2   24     -1.33      0.00
    4    2   24     -3.65      0.00
    6    2   24     -9.98      0.00
    8    2   24    -29.18      0.00
   10    2   24     22.81      0.00
   12    2   24      7.14      0.00
   14    2   24    -10.16      0.00
   16    2   24    -15.41      0.00
   18    2   24     -2.45      0.00
   20    2   24      6.16      0.00
   22    2   24      1.98      0.00
    1    3   24      2.15      0.00
    3    3   24     -8.15      0.00
    5    3   24     14.31      0.00
    7    3   24    -10.96      0.00
    9    3   24     12.31      0.00
   11    3   24    -14.70      0.00
   13    3   24     -5.82      0.00
   15    3   24      3.21      0.00
   17    3   24    -17.93      0.00
   19    3   24      3.55      0.00
   21    3   24    -21.30      0.00
   23    3   24     10.85      0.00
    0    4   24    -37.49      0.00
    2    4   24    -11.58      0.00
    4    4   24     13.71      0.00
    6    4   24      2.89      0.00
    8    4   24     -4.09      0.00
   10    4   24     -8.69      0.00
   12    4   24      2.72      0.00
   14    4   24    -11.34      0.00
   16    4   24      1.63      0.00
   18    4   24    -10.52      0.00
   20    4   24      4.15      0.00
   22    4   24     -6.44      0.00
    1    5   24     -8.87      0.00
    3    5   24     -7.29      0.00
    5    5   24    -13.88      0.00
    7    5   24     -1.88      0.00
    9    5   24     -6.39      0.00
   11    5   24    -16.82      0.00
   13    5   24     -4.02      0.00
   15    5   24     -8.48      0.00
   17    5   24     -7.07      0.00
   19    5   24     -4.37      0.00
   21    5   24     -6.76      0.00
   23    5   24      8.97      0.00
    0    6   24     -6.22      0.00
    2    6   24     15.82      0.00
    4    6   24     11.34      0.00
    6    6   24    -13.97      0.00
    8    6   24     10.59      0.00
   10    6   24      1.70      0.00
   12    6   24     -8.01      0.00
   14    6   24     -5.44      0.00
   16    6   24     -6.79      0.00
   18    6   24     20.04      0.00
   20    6   24     -6.05      0.00
   22    6   24     16.05      0.00
    1    7   24      8.17      0.00
    3    7   24      5.92      0.00
    5    7   24      1.62      0.00
    7    7   24     19.13      0.00
    9    7   24      6.73      0.00
   11    7   24      9.57      0.00
   13    7   24     -1.61      0.00
   15    7   24      5.84      0.00
   17    7   24      6.14      0.00
   19    7   24      2.02      0.00
   21    7   24      2.15      0.00
   23    7   24     -5.07      0.00
    0    8   24      2.28      0.00
    2    8   24     -1.06      0.00
    4    8   24     16.37      0.00
    6    8   24    -11.36      0.00
    8    8   24     10.26      0.00
   10    8   24      9.79      0.00
   12    8   24     -5.75      0.00
   14    8   24      1.12      0.00
   16    8   24      3.99      0.00
   18    8   24     -9.16      0.00
   20    8   24      2.24      0.00
   22    8   24     -9.52      0.00
    1    9   24     11.76      0.00
    3    9   24      0.43      0.00
    5    9   24     15.93      0.00
    7    9   24     -3.16      0.00
    9    9   24     23.11      0.00
   11    9   24      5.75      0.00
   13    9   24      8.14      0.00
   15    9   24     12.72      0.00
   17    9   24     -6.95      0.00
   19    9   24     -7.34      0.00
   21    9   24     -4.65      0.00
   23    9   24     -2.58      0.00
    0   10   24    -20.95      0.00
    2   10   24      2.72      0.00
    4   10   24      3.34      0.00
    6   10   24     -3.86      0.00
    8   10   24     -5.08      0.00
   10   10   24     -2.71      0.00
   12   10   24    -18.91      0.00
   14   10   24     -1.95      0.00
   16   10   24     -6.02      0.00
   18   10   24      4.38      0.00
   20   10   24    -14.87      0.00
   22   10   24    -12.82      0.00
    1   11   24      0.91      0.00
    3   11   24     -2.73      0.00
    5   11   24    -44.52      0.00
    7   11   24    -11.18      0.00
    9   11   24     -4.14      0.00
   11   11   24     -4.76      0.00
   13   11   24    -15.51      0.00
   15   11   24      3.98      0.00
   17   11   24      1.86      0.00
   19   11   24    -15.82      0.00
   21   11   24     -2.10      0.00
   23   11   24    -10.65      0.00
    0   12   24     -4.38      0.00
    2   12   24      9.80      0.00
    4   12   24      0.59      0.00
    6   12   24    -12.06      0.00
    8   12   24     -7.51      0.00
   10   12   24     -3.22      0.00
   12   12   24     14.49      0.00
   14   12   24    -12.68      0.00
   16   12   24     13.27      0.00
   18   12   24      1.44      0.00
   20   12   24      2.41      0.00
   22   12   24    -11.92      0.00
    1   13   24    -23.25      0.00
    3   13   24    -11.37      0.00
    5   13   24     -5.41      0.00
    7   13   24      3.62      0.00
    9   13   24     -6.57      0.00
   11   13   24    -23.76      0.00
   13   13   24    -12.90      0.00
   15   13   24     -1.50      0.00
   17   13   24      4.75      0.00
   19   13   24     -9.01      0.00
   21   13   24      2.58      0.00
   23   13   24     -8.73      0.00
    0   14   24    -19.31      0.00
    2   14   24      1.37      0.00
    4   14   24     13.43      0.00
    6   14   24     31.02      0.00
    8   14   24     -4.35      0.00
   10   14   24      5.72      0.00
   12   14   24      1.48      0.00
   14   14   24      0.57      0.00
   16   14   24     -7.37      0.00
   18   14   24      6.31      0.00
   20   14   24      1.74      0.00
   22   14   24      1.13      0.00
    1   15   24     10.22      0.00
    3   15   24    -16.32      0.00
    5   15   24    -11.68      0.00
    7   15   24      5.94      0.00
    9   15   24      1.49      0.00
   11   15   24     10.14      0.00
   13   15   24      0.09      0.00
   15   15   24      0.38      0.00
   17   15   24     -6.84      0.00
   19   15   24      5.38      0.00
   21   15   24      4.70      0.00
   23   15   24     13.11      0.00
    0   16   24     11.23      0.00
    2   16   24     -6.96      0.00
    4   16   24     -1.28      0.00
    6   16   24     -0.88      0.00
    8   16   24     -4.91      0.00
   10   16   24     -1.00      0.00
   12   16   24     14.69      0.00
   14   16   24     -5.32      0.00
   16   16   24     -4.87      0.00
   18   16   24    -10.71      0.00
   20   16   24     -9.92      0.00
   22   16   24     -0.97      0.00
    1   17   24     10.89      0.00
    3   17   24    -16.09      0.00
    5   17   24      6.30      0.00
    7   17   24     -0.24      0.00
    9   17   24     -4.01      0.00
   11   17   24     -0.82      0.00
   13   17   24     -6.35      0.00
   15   17   24     -0.51      0.00
   17   17   24      6.87      0.00
   19   17   24     -2.14      0.00
   21   17   24     -2.07      0.00
   23   17   24     -2.08      0.00
    0   18   24      5.78      0.00
    2   18   24     -0.78      0.00
    4   18   24     -9.37      0.00
    6   18   24      0.35      0.00
    8   18   24    -24.91      0.00
   10   18   24      7.90      0.00
   12   18   24     -7.24      0.00
   14   18   24     -9.62      0.00
   16   18   24     -9.67      0.00
   18   18   24     -7.61      0.00
   20   18   24      5.79      0.00
   22   18   24     -0.37      0.00
    1   19   24      3.42      0.00
    3   19   24    -18.61      0.00
    5   19   24      6.40      0.00
    7   19   24      9.20      0.00
    9   19   24      8.74      0.00
   11   19   24     -4.12      0.00
   13   19   24    -15.67      0.00
   15   19   24      7.95      0.00
   17   19   24    -20.36      0.00
   19   19   24     -1.87      0.00
   21   19   24      0.81      0.00
   23   19   24      3.82      0.00
    0   20   24    -22.43      0.00
    2   20   24    -13.66      0.00
    4   20   24     16.09      0.00
    6   20   24     -4.61      0.00
    8   20   24      2.87      0.00
   10   20   24     -9.12      0.00
   12   20   24      3.56      0.00
   14   20   24     -1.63      0.00
   16   20   24     -1.66      0.00
   18   20   24     -5.55      0.00
   20   20   24     -9.49      0.00
   22   20   24     10.57      0.00
    1   21   24      9.44      0.00
    3   21   24    -12.66      0.00
    5   21   24    -17.46      0.00
    7   21   24    -10.86      0.00
    9   21   24      8.23      0.00
   11   21   24    -15.16      0.00
   13   21   24     10.95      0.00
   15   21   24      4.73      0.00
   17   21   24     -3.33      0.00
   19   21   24     -7.69      0.00
   21   21   24     -7.17      0.00
   23   21   24      3.47      0.00
    0   22   24     -5.70      0.00
    2   22   24     16.34      0.00
    4   22   24     -7.08      0.00
    6   22   24     -7.74      0.00
    8   22   24     -6.36      0.00
   10   22   24     -3.71      0.00
   12   22   24      1.06      0.00
   14   22   24      3.54      0.00
   16   22   24      3.93      0.00
   18   22   24     -9.90      0.00
   20   22   24     -3.95      0.00
   22   22   24      2.68      0.00
    1   23   24      4.70      0.00
    3   23   24      1.50      0.00
    5   23   24     -7.07      0.00
    7   23   24     -1.21      0.00
    9   23   24     -3.93      0.00
   11   23   24    -22.58      0.00
   13   23   24      0.65      0.00
   15   23   24      7.65      0.00
   17   23   24     -7.54      0.00
   19   23   24    -10.18      0.00
   21   23   24     -6.21      0.00
   23   23   24     -8.28      0.00
    0   24   24      9.90      0.00
    2   24   24     -3.15      0.00
    4   24   24      8.18      0.00
    6   24   24     -3.93      0.00
    8   24   24     13.39      0.00
   10   24   24    -16.68      0.00
   12   24   24     -6.26      0.00
   14   24   24     -9.22      0.00
   16   24   24      4.51      0.00
   18   24   24     -4.57      0.00
   20   24   24      4.68      0.00
   22   24   24    -16.23      0.00
   24   24   24     -3.68      0.00
    2    1   25      0.99      0.00
    4    1   25      6.34      0.00
    6    1   25     22.78      0.00
    8    1   25      3.57      0.00
   10    1   25      6.20      0.00
   12    1   25      1.32      0.00
   14    1   25     14.57      0.00
   16    1   25     19.25      0.00
   18    1   25     15.24      0.00
   20    1   25      9.40      0.00
   22    1   25      9.56      0.00
   24    1   25      9.22      0.00
    1    2   25     11.09      0.00
    3    2   25    -18.79      0.00
    5    2   25     -3.84      0.00
    7    2   25     -0.58      0.00
    9    2   25    -13.56      0.00
   11    2   25     -2.18      0.00
   13    2   25     -1.37      0.00
   15    2   25     -7.61      0.00
   17    2   25     -6.68      0.00
   19    2   25      4.05      0.00
   21    2   25      2.20      0.00
   23    2   25      4.81      0.00
    2    3   25    -10.15      0.00
    4    3   25    -14.54      0.00
    6    3   25     -9.46      0.00
    8    3   25    -13.79      0.00
   10    3   25    -17.13      0.00
   12    3   25      8.60      0.00
   14    3   25      3.17      0.00
   16    3   25     -3.83      0.00
   18    3   25    -14.36      0.00
   20    3   25     -0.17      0.00
   22    3   25     -6.42      0.00
   24    3   25    -14.08      0.00
    1    4   25     -0.49      0.00
    3    4   25     -6.17      0.00
    5    4   25     18.26      0.00
    7    4   25     -9.51      0.00
    9    4   25     -9.23      0.00
   11    4   25    -25.34      0.00
   13    4   25      0.03      0.00
   15    4   25     10.17      0.00
   17    4   25     -8.07      0.00
   19    4   25      7.42      0.00
   21    4   25     -3.92      0.00
   23    4   25      4.46      0.00
    2    5   25    -16.56      0.00
    4    5   25     11.15      0.00
    6    5   25     17.19      0.00
    8    5   25      7.10      0.00
   10    5   25    -27.44      0.00
   12    5   25    -21.96      0.00
   14    5   25      0.69      0.00
   16    5   25     -9.37      0.00
   18    5   25     10.20      0.00
   20    5   25      6.32      0.00
   22    5   25      4.17      0.00
   24    5   25     -7.31      0.00
    1    6   25     -0.10      0.00
    3    6   25      7.73      0.00
    5    6   25      0.59      0.00
    7    6   25     -6.90      0.00
    9    6   25     11.45      0.00
   11    6   25     12.64      0.00
   13    6   25     -1.25      0.00
   15    6   25      0.31      0.00
   17    6   25     -4.34      0.00
   19    6   25     20.30      0.00
   21    6   25      3.37      0.00
   23    6   25     -8.72      0.00
    2    7   25     10.24      0.00
    4    7   25     17.03      0.00
    6    7   25      2.16      0.00
    8    7   25    -16.10      0.00
   10    7   25    -10.39      0.00
   12    7   25     33.44      0.00
   14    7   25     20.52      0.00
   16    7   25     -6.42      0.00
   18    7   25     -1.61      0.00
   20    7   25     11.03      0.00
   22    7   25      6.27      0.00
   24    7   25      4.88      0.00
    1    8   25     -5.95      0.00
    3    8   25     -3.38      0.00
    5    8   25     -0.75      0.00
    7    8   25     -0.80      0.00
    9    8   25     -1.97      0.00
   11    8   25      1.51      0.00
   13    8   25      9.23      0.00
   15    8   25      5.21      0.00
   17    8   25      1.40      0.00
   19    8   25    -10.51      0.00
   21    8   25     -0.80      0.00
   23    8   25      2.90      0.00
    2    9   25    -27.00      0.00
    4    9   25     -7.10      0.00
    6    9   25     18.52      0.00
    8    9   25      7.69      0.00
   10    9   25      0.65      0.00
   12    9   25    -13.47      0.00
   14    9   25     13.06      0.00
   16    9   25    -11.94      0.00
   18    9   25     -1.25      0.00
   20    9   25     -0.44      0.00
   22    9   25      0.13      0.00
   24    9   25     14.01      0.00
    1   10   25     -2.48      0.00
    3   10   25      2.77      0.00
    5   10   25     -7.19      0.00
    7   10   25      8.77      0.00
    9   10   25     -9.95      0.00
   11   10   25     -2.61      0.00
   13   10   25      3.27      0.00
   15   10   25     -7.67      0.00
   17   10   25    -10.21      0.00
   19   10   25     -4.07      0.00
   21   10   25     -1.47      0.00
   23   10   25     -0.13      0.00
    2   11   25      1.56      0.00
    4   11   25     16.11      0.00
    6   11   25     -7.72      0.00
    8   11   25      3.39      0.00
   10   11   25    -23.63      0.00
   12   11   25     -2.38      0.00
   14   11   25     -0.07      0.00
   16   11   25    -10.53      0.00
   18   11   25      0.28      0.00
   20   11   25     -1.29      0.00
   22   11   25      3.38      0.00
   24   11   25      4.07      0.00
    1   12   25      1.37      0.00
    3   12   25     -7.99      0.00
    5   12   25     -4.01      0.00
    7   12   25     18.23      0.00
    9   12   25     -4.70      0.00
   11   12   25     -6.87      0.00
   13   12   25     12.16      0.00
   15   12   25     -9.56      0.00
   17   12   25    -13.11      0.00
   19   12   25    -14.45      0.00
   21   12   25      6.25      0.00
   23   12   25      3.90      0.00
    2   13   25      5.78      0.00
    4   13   25    -14.52      0.00
    6   13   25     20.38      0.00
    8   13   25     -2.22      0.00
   10   13   25     -6.55      0.00
   12   13   25     -2.51      0.00
   14   13   25      6.19      0.00
   16   13   25      1.60      0.00
   18   13   25    -12.05      0.00
   20   13   25      0.63      0.00
   22   13   25      3.68      0.00
   24   13   25     11.81      0.00
    1   14   25      8.48      0.00
    3   14   25      2.06      0.00
    5   14   25      8.29      0.00
    7   14   25     13.08      0.00
    9   14   25    -20.42      0.00
   11   14   25     -9.34      0.00
   13   14   25      2.90      0.00
   15   14   25     11.09      0.00
   17   14   25     -8.16      0.00
   19   14   25     -1.56      0.00
   21   14   25      3.42      0.00
   23   14   25     -4.58      0.00
    2   15   25     -1.13      0.00
    4   15   25     10.81      0.00
    6   15   25     17.07      0.00
    8   15   25     -3.00      0.00
   10   15   25     -4.41      0.00
   12   15   25      9.09      0.00
   14   15   25     -5.29      0.00
   16   15   25      2.87      0.00
   18   15   25     -0.18      0.00
   20   15   25      7.22      0.00
   22   15   25     -3.52      0.00
   24   15   25     -1.05      0.00
    1   16   25     -8.62      0.00
    3   16   25      4.10      0.00
    5   16   25      7.00      0.00
    7   16   25    -12.73      0.00
    9   16   25     -0.23      0.00
   11   16   25     -1.85      0.00
   13   16   25      8.40      0.00
   15   16   25     -8.03      0.00
   17   16   25     -1.54      0.00
   19   16   25     11.33      0.00
   21   16   25     -0.63      0.00
   23   16   25      1.58      0.00
    2   17   25      0.84      0.00
    4   17   25      6.40      0.00
    6   17   25      3.91      0.00
    8   17   25    -24.03      0.00
   10   17   25      2.34      0.00
   12   17   25     -3.79      0.00
   14   17   25     -9.23      0.00
   16   17   25      1.83      0.00
   18   17   25     -3.51      0.00
   20   17   25      1.53      0.00
   22   17   25     -1.46      0.00
   24   17   25    -17.06      0.00
    1   18   25    -13.17      0.00
    3   18   25     -4.17      0.00
    5   18   25     11.23      0.00
    7   18   25     -0.51      0.00
    9   18   25     12.66      0.00
   11   18   25      3.30      0.00
   13   18   25     -1.37      0.00
   15   18   25      0.93      0.00
   17   18   25    -13.44      0.00
   19   18   25     -0.43      0.00
   21   18   25      1.58      0.00
   23   18   25      2.37      0.00
    2   19   25    -12.37      0.00
    4   19   25    -10.16      0.00
    6   19   25      5.67      0.00
    8   19   25      1.36      0.00
   10   19   25     13.78      0.00
   12   19   25     -4.90      0.00
   14   19   25     -4.91      0.00
   16   19   25     -5.58      0.00
   18   19   25    -11.26      0.00
   20   19   25      7.09      0.00
   22   19   25     -2.34      0.00
   24   19   25     -9.05      0.00
    1   20   25      2.18      0.00
    3   20   25     -4.66      0.00
    5   20   25      5.65      0.00
    7   20   25     -3.41      0.00
    9   20   25     -3.09      0.00
   11   20   25    -14.33      0.00
   13   20   25     -0.15      0.00
   15   20   25      2.81      0.00
   17   20   25     -5.74      0.00
   19   20   25      2.00      0.00
   21   20   25     -2.20      0.00
   23   20   25      6.50      0.00
    2   21   25     10.75      0.00
    4   21   25     -3.28      0.00
    6   21   25    -11.44      0.00
    8   21   25    -10.28      0.00
   10   21   25      4.88      0.00
   12   21   25      5.09      0.00
   14   21   25     12.26      0.00
   16   21   25    -18.37      0.00
   18   21   25      9.39      0.00
   20   21   25      6.24      0.00
   22   21   25    -12.13      0.00
   24   21   25     -6.94      0.00
    1   22   25    -10.79      0.00
    3   22   25     -8.34      0.00
    5   22   25    -12.34      0.00
    7   22   25      3.64      0.00
    9   22   25      2.50      0.00
   11   22   25     -8.77      0.00
   13   22   25     14.14      0.00
   15   22   25     -7.84      0.00
   17   22   25      0.77      0.00
   19   22   25      9.33      0.00
   21   22   25     25.37      0.00
   23   22   25     -2.43      0.00
    2   23   25     -7.60      0.00
    4   23   25     -0.03      0.00
    6   23   25     -5.38      0.00
    8   23   25     -6.82      0.00
   10   23   25    -26.53      0.00
   12   23   25      4.74      0.00
   14   23   25      4.78      0.00
   16   23   25      2.67      0.00
   18   23   25      4.10      0.00
   20   23   25      6.59      0.00
   22   23   25    -11.49      0.00
   24   23   25    -11.75      0.00
    1   24   25      5.16      0.00
    3   24   25      1.66      0.00
    5   24   25     -1.31      0.00
    7   24   25     -6.67      0.00
    9   24   25     -2.06      0.00
   11   24   25     -6.29      0.00
   13   24   25      4.95      0.00
   15   24   25      2.60      0.00
   17   24   25     -5.74      0.00
   19   24   25      6.16      0.00
   21   24   25      0.32      0.00
   23   24   25     -7.63      0.00
    2   25   25    -19.48      0.00
    4   25   25      4.14      0.00
    6   25   25     -0.85      0.00
    8   25   25    -12.24      0.00
   10   25   25     -7.80      0.00
   12   25   25     -3.76      0.00
   14   25   25      3.95      0.00
   16   25   25     -4.98      0.00
   18   25   25     -3.30      0.00
   20   25   25      8.72      0.00
   22   25   25      5.14      0.00
   24   25   25     -4.86      0.00
    0    0   26    -23.26      0.00
    2    0   26     15.78      0.00
    4    0   26     -7.39      0.00
    6    0   26      1.54      0.00
    8    0   26      8.26      0.00
   10    0   26      0.67      0.00
   12    0   26      2.84      0.00
   14    0   26     -3.42      0.00
   16    0   26     -4.36      0.00
   18    0   26      3.94      0.00
   20    0   26    -10.70      0.00
   22    0   26     10.59      0.00
   24    0   26      2.10      0.00
    1    1   26     17.67      0.00
    3    1   26      7.56      0.00
    5    1   26      6.97      0.00
    7    1   26    -11.55      0.00
    9    1   26      5.91      0.00
   11    1   26     13.19      0.00
   13    1   26     11.94      0.00
   15    1   26     -0.09      0.00
   17    1   26     -4.17      0.00
   19    1   26      1.43      0.00
   21    1   26      1.04      0.00
   23    1   26      6.42      0.00
   25    1   26    -18.65      0.00
    0    2   26    -20.25      0.00
    2    2   26      4.03      0.00
    4    2   26     -2.21      0.00
    6    2   26     -5.54      0.00
    8    2   26    -26.57      0.00
   10    2   26    -11.52      0.00
   12    2   26     12.74      0.00
   14    2   26    -12.09      0.00
   16    2   26      3.11      0.00
   18    2   26    -18.72      0.00
   20    2   26      6.12      0.00
   22    2   26     -3.06      0.00
   24    2   26      0.90      0.00
    1    3   26     16.39      0.00
    3    3   26     -6.32      0.00
    5    3   26     23.57      0.00
    7    3   26      7.83      0.00
    9    3   26      2.80      0.00
   11    3   26     11.23      0.00
   13    3   26     -5.93      0.00
   15    3   26      4.62      0.00
   17    3   26      4.75      0.00
   19    3   26     -8.43      0.00
   21    3   26      2.29      0.00
   23    3   26    -17.18      0.00
   25    3   26     -1.86      0.00
    0    4   26      5.49      0.00
    2    4   26    -19.62      0.00
    4    4   26      3.70      0.00
    6    4   26    -10.28      0.00
    8    4   26    -25.88      0.00
   10    4   26     11.12      0.00
   12    4   26     -5.94      0.00
   14    4   26     -1.66      0.00
   16    4   26     -3.08      0.00
   18    4   26      8.37      0.00
   20    4   26      2.77      0.00
   22    4   26     -8.05      0.00
   24    4   26    -13.44      0.00
    1    5   26      7.27      0.00
    3    5   26    -14.30      0.00
    5    5   26     -4.20      0.00
    7    5   26    -13.94      0.00
    9    5   26     -7.22      0.00
   11    5   26      3.08      0.00
   13    5   26     -0.32      0.00
   15    5   26      0.08      0.00
   17    5   26     -4.75      0.00
   19    5   26     -0.11      0.00
   21    5   26     -5.00      0.00
   23    5   26     -2.00      0.00
   25    5   26      0.85      0.00
    0    6   26     -2.05      0.00
    2    6   26      1.70      0.00
    4    6   26     22.76      0.00
    6    6   26    -12.77      0.00
    8    6   26      0.37      0.00
   10    6   26     12.16      0.00
   12    6   26     15.72      0.00
   14    6   26     -3.07      0.00
   16    6   26     -3.95      0.00
   18    6   26     17.44      0.00
   20    6   26      7.16      0.00
   22    6   26    -20.56      0.00
   24    6   26     -0.10      0.00
    1    7   26     -9.76      0.00
    3    7   26      4.98      0.00
    5    7   26    -10.33      0.00
    7    7   26      4.23      0.00
    9    7   26      0.73      0.00
   11    7   26     -0.83      0.00
   13    7   26      4.18      0.00
   15    7   26     -5.79      0.00
   17    7   26      2.92      0.00
   19    7   26    -12.51      0.00
   21    7   26     -3.42      0.00
   23    7   26      5.29      0.00
   25    7   26      5.13      0.00
    0    8   26    -25.76      0.00
    2    8   26      4.44      0.00
    4    8   26      1.90      0.00
    6    8   26    -21.12      0.00
    8    8   26    -12.35      0.00
   10    8   26     -7.40      0.00
   12    8   26      9.87      0.00
   14    8   26      1.31      0.00
   16    8   26    -13.60      0.00
   18    8   26     13.46      0.00
   20    8   26    -16.73      0.00
   22    8   26      2.55      0.00
   24    8   26      0.78      0.00
    1    9   26      9.80      0.00
    3    9   26      7.54      0.00
    5    9   26      2.40      0.00
    7    9   26      2.86      0.00
    9    9   26     20.60      0.00
   11    9   26      8.46      0.00
   13    9   26    -21.00      0.00
   15    9   26     -0.25      0.00
   17    9   26      1.38      0.00
   19    9   26     -0.04      0.00
   21    9   26     -2.33      0.00
   23    9   26    -10.42      0.00
   25    9   26    -11.12      0.00
    0   10   26    -12.90      0.00
    2   10   26    -19.70      0.00
    4   10   26     -4.41      0.00
    6   10   26    -19.36      0.00
    8   10   26    -11.91      0.00
   10   10   26    -14.98      0.00
   12   10   26    -15.45      0.00
   14   10   26    -14.28      0.00
   16   10   26     -4.19      0.00
   18   10   26      5.38      0.00
   20   10   26      6.08      0.00
   22   10   26     -3.48      0.00
   24   10   26     -3.80      0.00
    1   11   26      1.58      0.00
    3   11   26      2.67      0.00
    5   11   26      1.26      0.00
    7   11   26    -23.95      0.00
    9   11   26     15.39      0.00
   11   11   26      4.70      0.00
   13   11   26     12.50      0.00
   15   11   26      4.44      0.00
   17   11   26      0.54      0.00
   19   11   26      2.58      0.00
   21   11   26      4.30      0.00
   23   11   26      5.23      0.00
   25   11   26     -8.02      0.00
    0   12   26     -6.89      0.00
    2   12   26      7.14      0.00
    4   12   26     12.01      0.00
    6   12   26     12.28      0.00
    8   12   26    -11.94      0.00
   10   12   26      7.38      0.00
   12   12   26      4.89      0.00
   14   12   26     -1.14      0.00
   16   12   26     -9.43      0.00
   18   12   26     -1.17      0.00
   20   12   26     -2.09      0.00
   22   12   26      6.66      0.00
   24   12   26     -4.43      0.00
    1   13   26    -17.37      0.00
    3   13   26     -1.75      0.00
    5   13   26     -4.28      0.00
    7   13   26      6.57      0.00
    9   13   26     -9.20      0.00
   11   13   26      2.43      0.00
   13   13   26     -5.31      0.00
   15   13   26     -0.17      0.00
   17   13   26     -5.54      0.00
   19   13   26      5.04      0.00
   21   13   26      0.42      0.00
   23   13   26     -6.30      0.00
   25   13   26      3.40      0.00
    0   14   26     13.03      0.00
    2   14   26      7.44      0.00
    4   14   26     14.51      0.00
    6   14   26     -7.42      0.00
    8   14   26    -10.94      0.00
   10   14   26      5.43      0.00
   12   14   26     21.74      0.00
   14   14   26     10.24      0.00
   16   14   26      2.21      0.00
   18   14   26    -10.73      0.00
   20   14   26      7.39      0.00
   22   14   26    -10.12      0.00
   24   14   26      2.15      0.00
    1   15   26      8.87      0.00
    3   15   26     -6.43      0.00
    5   15   26    -18.33      0.00
    7   15   26    -22.51      0.00
    9   15   26     -4.65      0.00
   11   15   26      0.87      0.00
   13   15   26     11.42      0.00
   15   15   26    -20.16      0.00
   17   15   26    -12.28      0.00
   19   15   26     -3.59      0.00
   21   15   26    -14.23      0.00
   23   15   26      5.51      0.00
   25   15   26     10.20      0.00
    0   16   26    -19.41      0.00
    2   16   26     -2.22      0.00
    4   16   26     -0.86      0.00
    6   16   26     -3.19      0.00
    8   16   26    -25.47      0.00
   10   16   26      0.07      0.00
   12   16   26     -3.88      0.00
   14   16   26      6.59      0.00
   16   16   26     -2.42      0.00
   18   16   26      1.14      0.00
   20   16   26     -1.22      0.00
   22   16   26     -6.31      0.00
   24   16   26     -8.56      0.00
    1   17   26      3.62      0.00
    3   17   26      8.48      0.00
    5   17   26    -14.48      0.00
    7   17   26      2.51      0.00
    9   17   26     -9.14      0.00
   11   17   26     -4.28      0.00
   13   17   26    -16.20      0.00
   15   17   26     -8.84      0.00
   17   17   26     -1.76      0.00
   19   17   26      1.68      0.00
   21   17   26     -0.05      0.00
   23   17   26     11.12      0.00
   25   17   26     -8.26      0.00
    0   18   26     -6.08      0.00
    2   18   26      3.91      0.00
    4   18   26     -5.94      0.00
    6   18   26    -12.73      0.00
    8   18   26      3.82      0.00
   10   18   26      3.05      0.00
   12   18   26      4.50      0.00
   14   18   26    -23.45      0.00
   16   18   26     -4.62      0.00
   18   18   26     -2.22      0.00
   20   18   26      2.52      0.00
   22   18   26     -5.08      0.00
   24   18   26     -4.00      0.00
    1   19   26     -4.03      0.00
    3   19   26    -12.50      0.00
    5   19   26     12.98      0.00
    7   19   26      5.90      0.00
    9   19   26      6.92      0.00
   11   19   26      1.28      0.00
   13   19   26     -0.91      0.00
   15   19   26      6.75      0.00
   17   19   26     -3.91      0.00
   19   19   26     -0.49      0.00
   21   19   26     11.82      0.00
   23   19   26      3.33      0.00
   25   19   26      3.22      0.00
    0   20   26      0.35      0.00
    2   20   26     -6.36      0.00
    4   20   26     -3.47      0.00
    6   20   26      5.93      0.00
    8   20   26     -8.65      0.00
   10   20   26      6.94      0.00
   12   20   26    -11.74      0.00
   14   20   26      1.33      0.00
   16   20   26      2.46      0.00
   18   20   26      2.21      0.00
   20   20   26    -16.02      0.00
   22   20   26     -7.11      0.00
   24   20   26     -6.19      0.00
    1   21   26     16.23      0.00
    3   21   26    -15.06      0.00
    5   21   26     -8.34      0.00
    7   21   26      5.03      0.00
    9   21   26     -1.22      0.00
   11   21   26     -6.33      0.00
   13   21   26      6.45      0.00
   15   21   26      3.04      0.00
   17   21   26     -2.51      0.00
   19   21   26     -1.66      0.00
   21   21   26     -1.53      0.00
   23   21   26     -8.99      0.00
   25   21   26     -4.77      0.00
    0   22   26      5.99      0.00
    2   22   26     -6.75      0.00
    4   22   26      8.73      0.00
    6   22   26      0.58      0.00
    8   22   26      1.77      0.00
   10   22   26     -1.24      0.00
   12   22   26      1.40      0.00
   14   22   26    -13.89      0.00
   16   22   26     -0.23      0.00
   18   22   26      5.28      0.00
   20   22   26    -11.78      0.00
   22   22   26     -5.64      0.00
   24   22   26      0.85      0.00
    1   23   26      3.80      0.00
    3   23   26     -7.17      0.00
    5   23   26     -2.27      0.00
    7   23   26      8.70      0.00
    9   23   26      4.30      0.00
   11   23   26     -2.38      0.00
   13   23   26     -0.34      0.00
   15   23   26    -13.33      0.00
   17   23   26     12.53      0.00
   19   23   26     -8.53      0.00
   21   23   26     -9.03      0.00
   23   23   26     -3.39      0.00
   25   23   26     -6.25      0.00
    0   24   26     -7.91      0.00
    2   24   26     10.23      0.00
    4   24   26      1.50      0.00
    6   24   26     -0.18      0.00
    8   24   26     12.17      0.00
   10   24   26      3.92      0.00
   12   24   26      3.88      0.00
   14   24   26     -9.00      0.00
   16   24   26     -1.24      0.00
   18   24   26      6.23      0.00
   20   24   26     -3.44      0.00
   22   24   26     -6.69      0.00
   24   24   26      0.97      0.00
    1   25   26     -2.20      0.00
    3   25   26     -6.48      0.00
    5   25   26    -11.80      0.00
    7   25   26      1.04      0.00
    9   25   26     -0.92      0.00
   11   25   26      5.27      0.00
   13   25   26      6.65      0.00
   15   25   26      0.38      0.00
   17   25   26     -2.01      0.00
   19   25   26     -4.64      0.00
   21   25   26     -9.23      0.00
   23   25   26     -2.27      0.00
    0   26   26     19.53      0.00
    2   26   26      4.46      0.00
    4   26   26      8.72      0.00
    6   26   26    -24.86      0.00
    8   26   26     -1.14      0.00
   10   26   26    -12.28      0.00
   12   26   26     -2.56      0.00
   14   26   26      3.98      0.00
   16   26   26     -1.27      0.00
   18   26   26      6.45      0.00
   20   26   26      7.24      0.00
   22   26   26    -14.92      0.00
    2    1   27     10.34      0.00
    4    1   27     -7.10      0.00
    6    1   27      4.26      0.00
    8    1   27     -1.26      0.00
   10    1   27      3.87      0.00
   12    1   27     14.57      0.00
   14    1   27     -0.87      0.00
   16    1   27     -2.81      0.00
   18    1   27     -2.97      0.00
   20    1   27      6.72      0.00
   22    1   27     12.30      0.00
   24    1   27      4.80      0.00
   26    1   27     -6.30      0.00
    1    2   27      1.24      0.00
    3    2   27    -19.39      0.00
    5    2   27     -1.10      0.00
    7    2   27     -9.41      0.00
    9    2   27     -2.95      0.00
   11    2   27      7.74      0.00
   13    2   27     -1.90      0.00
   15    2   27     -2.72      0.00
   17    2   27     -4.88      0.00
   19    2   27     -7.58      0.00
   21    2   27      4.42      0.00
   23    2   27     -9.45      0.00
   25    2   27      0.89      0.00
    2    3   27     -0.16      0.00
    4    3   27     -2.96      0.00
    6    3   27      2.31      0.00
    8    3   27     -3.30      0.00
   10    3   27    -15.75      0.00
   12    3   27     -7.73      0.00
   14    3   27      3.33      0.00
   16    3   27     -3.09      0.00
   18    3   27     -6.89      0.00
   20    3   27    -13.02      0.00
   22    3   27      8.25      0.00
   24    3   27     -3.53      0.00
   26    3   27      5.19      0.00
    1    4   27      2.56      0.00
    3    4   27     -1.36      0.00
    5    4   27     16.60      0.00
    7    4   27      1.46      0.00
    9    4   27      2.00      0.00
   11    4   27      3.87      0.00
   13    4   27    -17.99      0.00
   15    4   27      8.09      0.00
   17    4   27     -4.13      0.00
   19    4   27     -0.32      0.00
   21    4   27      5.01      0.00
   23    4   27     -0.70      0.00
   25    4   27     11.49      0.00
    2    5   27    -17.76      0.00
    4    5   27     -2.52      0.00
    6    5   27    -10.64      0.00
    8    5   27     10.12      0.00
   10    5   27     15.19      0.00
   12    5   27     -4.73      0.00
   14    5   27      2.66      0.00
   16    5   27     -6.50      0.00
   18    5   27      7.37      0.00
   20    5   27      8.09      0.00
   22    5   27    -15.45      0.00
   24    5   27      0.17      0.00
   26    5   27    -11.22      0.00
    1    6   27    -15.71      0.00
    3    6   27     -0.91      0.00
    5    6   27      0.99      0.00
    7    6   27     -3.98      0.00
    9    6   27     14.52      0.00
   11    6   27     -1.79      0.00
   13    6   27     10.53      0.00
   15    6   27     -3.70      0.00
   17    6   27     -3.28      0.00
   19    6   27     -0.10      0.00
   21    6   27      2.70      0.00
   23    6   27      2.63      0.00
   25    6   27      2.57      0.00
    2    7   27     -1.50      0.00
    4    7   27     11.49      0.00
    6    7   27      0.45      0.00
    8    7   27     -5.05      0.00
   10    7   27     -1.35      0.00
   12    7   27     12.75      0.00
   14    7   27     13.81      0.00
   16    7   27      0.93      0.00
   18    7   27      0.59      0.00
   20    7   27     -1.75      0.00
   22    7   27      5.85      0.00
   24    7   27      8.01      0.00
   26    7   27      4.13      0.00
    1    8   27      5.16      0.00
    3    8   27     -3.57      0.00
    5    8   27     -6.59      0.00
    7    8   27     18.28      0.00
    9    8   27     -0.98      0.00
   11    8   27     -5.86      0.00
   13    8   27     -7.51      0.00
   15    8   27      1.71      0.00
   17    8   27      1.89      0.00
   19    8   27     -2.24      0.00
   21    8   27      5.50      0.00
   23    8   27      2.52      0.00
   25    8   27     -3.46      0.00
    2    9   27      2.13      0.00
    4    9   27     -2.31      0.00
    6    9   27     11.46      0.00
    8    9   27     -5.86      0.00
   10    9   27      0.81      0.00
   12    9   27     -7.58      0.00
   14    9   27    -20.29      0.00
   16    9   27      0.01      0.00
   18    9   27     -7.31      0.00
   20    9   27      5.29      0.00
   22    9   27      0.52      0.00
   24    9   27      6.49      0.00
   26    9   27      1.37      0.00
    1   10   27      9.87      0.00
    3   10   27     10.38      0.00
    5   10   27     -2.41      0.00
    7   10   27     -0.21      0.00
    9   10   27     -6.48      0.00
   11   10   27     -4.84      0.00
   13   10   27     11.71      0.00
   15   10   27      2.45      0.00
   17   10   27     -0.94      0.00
   19   10   27      3.44      0.00
   21   10   27      0.74      0.00
   23   10   27     -6.34      0.00
   25   10   27     -0.42      0.00
    2   11   27    -12.02      0.00
    4   11   27     -2.37      0.00
    6   11   27     -6.75      0.00
    8   11   27     -5.15      0.00
   10   11   27      5.44      0.00
   12   11   27    -11.16      0.00
   14   11   27      2.13      0.00
   16   11   27    -13.49      0.00
   18   11   27    -11.12      0.00
   20   11   27     -3.88      0.00
   22   11   27      0.11      0.00
   24   11   27      5.36      0.00
   26   11   27     -5.95      0.00
    1   12   27    -12.67      0.00
    3   12   27     -6.11      0.00
    5   12   27    -14.21      0.00
    7   12   27      7.21      0.00
    9   12   27     22.95      0.00
   11   12   27     -9.88      0.00
   13   12   27      6.22      0.00
   15   12   27     -1.59      0.00
   17   12   27    -10.04      0.00
   19   12   27     -7.95      0.00
   21   12   27     -4.09      0.00
   23   12   27      2.50      0.00
   25   12   27     -2.34      0.00
    2   13   27     -1.37      0.00
    4   13   27      5.31      0.00
    6   13   27     -8.76      0.00
    8   13   27     10.45      0.00
   10   13   27     -6.24      0.00
   12   13   27      5.42      0.00
   14   13   27     10.67      0.00
   16   13   27     -1.75      0.00
   18   13   27     -4.55      0.00
   20   13   27      5.72      0.00
   22   13   27      2.04      0.00
   24   13   27     -6.62      0.00
   26   13   27     -0.82      0.00
    1   14   27      1.37      0.00
    3   14   27      2.82      0.00
    5   14   27     -7.68      0.00
    7   14   27      0.76      0.00
    9   14   27      4.93      0.00
   11   14   27     -5.51      0.00
   13   14   27      3.13      0.00
   15   14   27     -3.09      0.00
   17   14   27     -1.37      0.00
   19   14   27     -0.24      0.00
   21   14   27     -8.09      0.00
   23   14   27      2.00      0.00
   25   14   27    -23.23      0.00
    2   15   27      5.35      0.00
    4   15   27    -13.02      0.00
    6   15   27      4.74      0.00
    8   15   27     10.86      0.00
   10   15   27     21.99      0.00
   12   15   27     14.89      0.00
   14   15   27     -4.74      0.00
   16   15   27    -16.48      0.00
   18   15   27      9.93      0.00
   20   15   27      8.40      0.00
   22   15   27     -0.79      0.00
   24   15   27     10.67      0.00
   26   15   27      0.91      0.00
    1   16   27      1.01      0.00
    3   16   27     -2.61      0.00
    5   16   27    -15.96      0.00
    7   16   27     -1.29      0.00
    9   16   27     -6.23      0.00
   11   16   27     -1.22      0.00
   13   16   27      2.93      0.00
   15   16   27     -8.30      0.00
   17   16   27      2.55      0.00
   19   16   27      4.46      0.00
   21   16   27      0.53      0.00
   23   16   27      0.55      0.00
   25   16   27      0.96      0.00
    2   17   27      0.61      0.00
    4   17   27    -10.17      0.00
    6   17   27      8.24      0.00
    8   17   27     15.24      0.00
   10   17   27      1.03      0.00
   12   17   27     18.06      0.00
   14   17   27    -17.52      0.00
   16   17   27     -5.81      0.00
   18   17   27     -1.79      0.00
   20   17   27    -14.07      0.00
   22   17   27      8.82      0.00
   24   17   27      5.41      0.00
   26   17   27     -8.16      0.00
    1   18   27     -8.82      0.00
    3   18   27    -11.98      0.00
    5   18   27      4.12      0.00
    7   18   27      7.42      0.00
    9   18   27      2.53      0.00
   11   18   27      4.58      0.00
   13   18   27      5.45      0.00
   15   18   27     -5.09      0.00
   17   18   27     -0.40      0.00
   19   18   27      5.28      0.00
   21   18   27      9.66      0.00
   23   18   27     11.50      0.00
   25   18   27     -0.67      0.00
    2   19   27      0.77      0.00
    4   19   27     -2.93      0.00
    6   19   27      4.08      0.00
    8   19   27    -13.05      0.00
   10   19   27     -4.19      0.00
   12   19   27    -20.85      0.00
   14   19   27      6.58      0.00
   16   19   27      6.45      0.00
   18   19   27      2.45      0.00
   20   19   27     -3.42      0.00
   22   19   27      7.15      0.00
   24   19   27     -0.92      0.00
   26   19   27      0.47      0.00
    1   20   27     -2.46      0.00
    3   20   27     -2.63      0.00
    5   20   27      4.79      0.00
    7   20   27     -7.39      0.00
    9   20   27    -13.60      0.00
   11   20   27     -2.79      0.00
   13   20   27     -1.88      0.00
   15   20   27     11.82      0.00
   17   20   27      0.46      0.00
   19   20   27     11.42      0.00
   21   20   27      2.76      0.00
   23   20   27     -6.75      0.00
   25   20   27      6.65      0.00
    2   21   27    -11.15      0.00
    4   21   27     10.74      0.00
    6   21   27     -8.60      0.00
    8   21   27     -9.35      0.00
   10   21   27      3.26      0.00
   12   21   27     -1.29      0.00
   14   21   27      6.31      0.00
   16   21   27      2.60      0.00
   18   21   27      4.67      0.00
   20   21   27     16.75      0.00
   22   21   27      3.62      0.00
   24   21   27     -0.85      0.00
   26   21   27     -4.35      0.00
    1   22   27     -3.77      0.00
    3   22   27     -6.38      0.00
    5   22   27     11.04      0.00
    7   22   27     -5.29      0.00
    9   22   27     -7.98      0.00
   11   22   27    -19.08      0.00
   13   22   27      7.07      0.00
   15   22   27      0.91      0.00
   17   22   27     -9.49      0.00
   19   22   27      3.34      0.00
   21   22   27      0.60      0.00
   23   22   27     -1.82      0.00
   25   22   27     10.37      0.00
    2   23   27     -3.11      0.00
    4   23   27     -1.17      0.00
    6   23   27      9.56      0.00
    8   23   27    -13.18      0.00
   10   23   27     -4.94      0.00
   12   23   27     -1.34      0.00
   14   23   27      3.35      0.00
   16   23   27      7.06      0.00
   18   23   27     -4.46      0.00
   20   23   27     -1.87      0.00
   22   23   27     -3.16      0.00
   24   23   27     -4.92      0.00
    1   24   27     -6.22      0.00
    3   24   27     -2.89      0.00
    5   24   27      4.25      0.00
    7   24   27     12.98      0.00
    9   24   27     -4.94      0.00
   11   24   27    -19.25      0.00
   13   24   27      2.84      0.00
   15   24   27      5.33      0.00
   17   24   27    -13.40      0.00
   19   24   27    -15.03      0.00
   21   24   27      8.28      0.00
   23   24   27     -5.11      0.00
    2   25   27     -8.65      0.00
    4   25   27     -8.40      0.00
    6   25   27     -3.35      0.00
    8   25   27     -2.92      0.00
   10   25   27    -11.94      0.00
   12   25   27     16.70      0.00
   14   25   27      3.33      0.00
   16   25   27     13.54      0.00
   18   25   27     -9.38      0.00
   20   25   27     -0.15      0.00
   22   25   27      8.90      0.00
    1   26   27      1.86      0.00
    3   26   27      5.49      0.00
    5   26   27      1.20      0.00
    7   26   27      9.16      0.00
    9   26   27     -3.72      0.00
   11   26   27     -6.09      0.00
   13   26   27     -6.67      0.00
   15   26   27      7.10      0.00
   17   26   27     -5.74      0.00
   19   26   27      3.84      0.00
   21   26   27     -2.05      0.00
    2   27   27      0.82      0.00
    4   27   27     -7.28      0.00
    6   27   27      5.71      0.00
    8   27   27     -7.16      0.00
   10   27   27      0.22      0.00
   12   27   27     -0.40      0.00
   14   27   27      5.56      0.00
   16   27   27      4.11      0.00
   18   27   27      5.45      0.00
    0    0   28     15.07      0.00
    2    0   28     26.00      0.00
    4    0   28     10.42      0.00
    6    0   28     11.95      0.00
    8    0   28      1.89      0.00
   10    0   28     -0.61      0.00
   12    0   28     13.34      0.00
   14    0   28      3.61      0.00
   16    0   28      5.92      0.00
   18    0   28     10.08      0.00
   20    0   28     15.31      0.00
   22    0   28      8.70      0.00
   24    0   28     -5.32      0.00
   26    0   28    -12.89      0.00
    1    1   28      7.43      0.00
    3    1   28      6.81      0.00
    5    1   28     -6.32      0.00
    7    1   28     -4.07      0.00
    9    1   28     -2.23      0.00
   11    1   28      4.47      0.00
   13    1   28     -1.32      0.00
   15    1   28     -5.85      0.00
   17    1   28     -8.62      0.00
   19    1   28     -2.53      0.00
   21    1   28      7.55      0.00
   23    1   28      0.10      0.00
   25    1   28    -19.03      0.00
   27    1   28    -16.41      0.00
    0    2   28     -2.20      0.00
    2    2   28      0.99      0.00
    4    2   28     -6.10      0.00
    6    2   28     -6.65      0.00
    8    2   28      7.82      0.00
   10    2   28      4.94      0.00
   12    2   28     -2.68      0.00
   14    2   28     -7.87      0.00
   16    2   28     -7.87      0.00
   18    2   28     18.33      0.00
   20    2   28     -4.69      0.00
   22    2   28      2.80      0.00
   24    2   28     -9.45      0.00
   26    2   28      6.92      0.00
    1    3   28      0.31      0.00
    3    3   28      3.06      0.00
    5    3   28      9.32      0.00
    7    3   28     12.34      0.00
    9    3   28      3.57      0.00
   11    3   28     -1.16      0.00
   13    3   28     -9.97      0.00
   15    3   28      4.18      0.00
   17    3   28      3.89      0.00
   19    3   28     -8.79      0.00
   21    3   28      1.69      0.00
   23    3   28     -3.48      0.00
   25    3   28     -9.96      0.00
   27    3   28    -18.33      0.00
    0    4   28    -12.46      0.00
    2    4   28    -18.32      0.00
    4    4   28    -10.29      0.00
    6    4   28    -15.91      0.00
    8    4   28    -13.22      0.00
   10    4   28      3.00      0.00
   12    4   28      6.73      0.00
   14    4   28     -8.83      0.00
   16    4   28      0.64      0.00
   18    4   28     -5.51      0.00
   20    4   28      2.82      0.00
   22    4   28     -1.82      0.00
   24    4   28      6.59      0.00
   26    4   28     -2.54      0.00
    1    5   28      0.71      0.00
    3    5   28     -1.00      0.00
    5    5   28      7.45      0.00
    7    5   28     -4.25      0.00
    9    5   28     -3.71      0.00
   11    5   28      5.14      0.00
   13    5   28      6.91      0.00
   15    5   28      4.88      0.00
   17    5   28     -3.88      0.00
   19    5   28    -11.96      0.00
   21    5   28     14.52      0.00
   23    5   28    -21.71      0.00
   25    5   28     -0.07      0.00
   27    5   28      8.50      0.00
    0    6   28    -11.82      0.00
    2    6   28     -6.57      0.00
    4    6   28      9.31      0.00
    6    6   28      6.39      0.00
    8    6   28      1.62      0.00
   10    6   28      9.03      0.00
   12    6   28      3.38      0.00
   14    6   28      4.14      0.00
   16    6   28     -3.63      0.00
   18    6   28     16.64      0.00
   20    6   28      1.77      0.00
   22    6   28      4.66      0.00
   24    6   28     -0.44      0.00
   26    6   28      9.97      0.00
    1    7   28     -9.08      0.00
    3    7   28     -4.49      0.00
    5    7   28     -4.93      0.00
    7    7   28    -12.49      0.00
    9    7   28     -8.99      0.00
   11    7   28      1.71      0.00
   13    7   28      1.18      0.00
   15    7   28      7.13      0.00
   17    7   28      0.34      0.00
   19    7   28     -8.01      0.00
   21    7   28     -5.24      0.00
   23    7   28      5.96      0.00
   25    7   28     10.25      0.00
   27    7   28     11.68      0.00
    0    8   28     -3.96      0.00
    2    8   28      4.91      0.00
    4    8   28      3.33      0.00
    6    8   28     -8.26      0.00
    8    8   28      4.94      0.00
   10    8   28     -2.29      0.00
   12    8   28      5.56      0.00
   14    8   28     -9.61      0.00
   16    8   28      9.67      0.00
   18    8   28      9.76      0.00
   20    8   28      9.93      0.00
   22    8   28     -7.35      0.00
   24    8   28      3.04      0.00
   26    8   28    -11.05      0.00
    1    9   28      7.80      0.00
    3    9   28      7.03      0.00
    5    9   28      4.03      0.00
    7    9   28      7.48      0.00
    9    9   28      1.86      0.00
   11    9   28      7.52      0.00
   13    9   28    -10.16      0.00
   15    9   28     -4.69      0.00
   17    9   28      7.23      0.00
   19    9   28     -0.15      0.00
   21    9   28     -4.25      0.00
   23    9   28     -6.02      0.00
   25    9   28     -3.39      0.00
   27    9   28     -9.36      0.00
    0   10   28    -16.19      0.00
    2   10   28     -8.11      0.00
    4   10   28     -5.19      0.00
    6   10   28     -2.55      0.00
    8   10   28    -19.69      0.00
   10   10   28      8.07      0.00
   12   10   28     -1.16      0.00
   14   10   28      3.09      0.00
   16   10   28     -5.92      0.00
   18   10   28      0.94      0.00
   20   10   28      1.81      0.00
   22   10   28     13.90      0.00
   24   10   28     -3.19      0.00
   26   10   28     -5.08      0.00
    1   11   28     12.36      0.00
    3   11   28      8.22      0.00
    5   11   28      4.89      0.00
    7   11   28      7.42      0.00
    9   11   28     16.18      0.00
   11   11   28     15.32      0.00
   13   11   28      1.41      0.00
   15   11   28     -0.41      0.00
   17   11   28    -12.02      0.00
   19   11   28     -6.16      0.00
   21   11   28     -4.25      0.00
   23   11   28      8.63      0.00
   25   11   28     -2.49      0.00
   27   11   28      1.36      0.00
    0   12   28      0.45      0.00
    2   12   28    -11.56      0.00
    4   12   28     12.10      0.00
    6   12   28      3.25      0.00
    8   12   28     15.44      0.00
   10   12   28      6.53      0.00
   12   12   28     -8.63      0.00
   14   12   28    -10.71      0.00
   16   12   28    -10.03      0.00
   18   12   28     -1.62      0.00
   20   12   28      7.95      0.00
   22   12   28     -5.64      0.00
   24   12   28      0.82      0.00
   26   12   28    -21.11      0.00
    1   13   28    -12.84      0.00
    3   13   28     -9.94      0.00
    5   13   28     -7.79      0.00
    7   13   28      4.83      0.00
    9   13   28      4.80      0.00
   11   13   28    -16.81      0.00
   13   13   28     14.07      0.00
   15   13   28     -9.06      0.00
   17   13   28      4.42      0.00
   19   13   28     -1.01      0.00
   21   13   28      0.66      0.00
   23   13   28     14.23      0.00
   25   13   28     -0.01      0.00
   27   13   28      7.13      0.00
    0   14   28      0.97      0.00
    2   14   28      5.31      0.00
    4   14   28      0.15      0.00
    6   14   28      4.97      0.00
    8   14   28     -5.13      0.00
   10   14   28     -2.12      0.00
   12   14   28      3.10      0.00
   14   14   28     -2.63      0.00
   16   14   28    -13.22      0.00
   18   14   28      4.23      0.00
   20   14   28      5.85      0.00
   22   14   28     -0.34      0.00
   24   14   28    -10.18      0.00
   26   14   28     10.12      0.00
    1   15   28     -7.20      0.00
    3   15   28     -9.05      0.00
    5   15   28    -10.82      0.00
    7   15   28      5.62      0.00
    9   15   28     -5.17      0.00
   11   15   28     -4.65      0.00
   13   15   28      7.28      0.00
   15   15   28     -7.60      0.00
   17   15   28     -9.95      0.00
   19   15   28      8.34      0.00
   21   15   28     -1.94      0.00
   23   15   28      0.36      0.00
   25   15   28      9.36      0.00
   27   15   28     -0.85      0.00
    0   16   28     -4.72      0.00
    2   16   28    -12.81      0.00
    4   16   28     10.24      0.00
    6   16   28     13.02      0.00
    8   16   28      5.12      0.00
   10   16   28    -11.41      0.00
   12   16   28     -6.64      0.00
   14   16   28     -7.35      0.00
   16   16   28      1.14      0.00
   18   16   28      6.13      0.00
   20   16   28     15.43      0.00
   22   16   28      4.82      0.00
   24   16   28     -5.79      0.00
   26   16   28      5.58      0.00
    1   17   28     13.57      0.00
    3   17   28      3.70      0.00
    5   17   28      7.03      0.00
    7   17   28     -4.64      0.00
    9   17   28      6.58      0.00
   11   17   28      8.34      0.00
   13   17   28     -6.47      0.00
   15   17   28     -9.77      0.00
   17   17   28      1.98      0.00
   19   17   28     -3.51      0.00
   21   17   28     -6.84      0.00
   23   17   28      4.80      0.00
   25   17   28     -6.18      0.00
   27   17   28     -1.02      0.00
    0   18   28      1.14      0.00
    2   18   28      5.82      0.00
    4   18   28      3.90      0.00
    6   18   28      3.88      0.00
    8   18   28      6.12      0.00
   10   18   28     13.65      0.00
   12   18   28      1.26      0.00
   14   18   28     -1.29      0.00
   16   18   28      3.70      0.00
   18   18   28      2.63      0.00
   20   18   28      1.91      0.00
   22   18   28      6.22      0.00
   24   18   28     -1.18      0.00
   26   18   28     11.77      0.00
    1   19   28     -2.86      0.00
    3   19   28      4.75      0.00
    5   19   28     -1.33      0.00
    7   19   28      4.99      0.00
    9   19   28    -16.15      0.00
   11   19   28      5.89      0.00
   13   19   28     -7.54      0.00
   15   19   28      5.88      0.00
   17   19   28      4.58      0.00
   19   19   28    -10.27      0.00
   21   19   28      6.25      0.00
   23   19   28      1.64      0.00
   25   19   28     -0.75      0.00
    0   20   28     -3.25      0.00
    2   20   28     11.21      0.00
    4   20   28      5.37      0.00
    6   20   28     -3.77      0.00
    8   20   28      2.12      0.00
   10   20   28     -4.97      0.00
   12   20   28    -16.66      0.00
   14   20   28      7.48      0.00
   16   20   28     10.82      0.00
   18   20   28     -2.02      0.00
   20   20   28     -0.17      0.00
   22   20   28    -10.65      0.00
   24   20   28    -10.24      0.00
    1   21   28     13.76      0.00
    3   21   28      1.06      0.00
    5   21   28     -5.30      0.00
    7   21   28     -3.40      0.00
    9   21   28     -2.38      0.00
   11   21   28      5.52      0.00
   13   21   28      7.42      0.00
   15   21   28    -21.12      0.00
   17   21   28     -0.83      0.00
   19   21   28     -0.31      0.00
   21   21   28     11.69      0.00
   23   21   28      5.97      0.00
   25   21   28     -2.06      0.00
    0   22   28      2.51      0.00
    2   22   28      0.87      0.00
    4   22   28      0.91      0.00
    6   22   28    -10.00      0.00
    8   22   28     -1.40      0.00
   10   22   28     19.71      0.00
   12   22   28     -3.38      0.00
   14   22   28      3.67      0.00
   16   22   28    -11.12      0.00
   18   22   28     14.18      0.00
   20   22   28      4.33      0.00
   22   22   28      0.36      0.00
   24   22   28     -6.67      0.00
    1   23   28     10.49      0.00
    3   23   28      3.89      0.00
    5   23   28      4.86      0.00
    7   23   28     16.77      0.00
    9   23   28      0.13      0.00
   11   23   28      3.99      0.00
   13   23   28      8.63      0.00
   15   23   28     -5.96      0.00
   17   23   28      1.45      0.00
   19   23   28     -6.98      0.00
   21   23   28     -9.80      0.00
   23   23   28     13.08      0.00
    0   24   28     10.28      0.00
    2   24   28     -8.20      0.00
    4   24   28     10.03      0.00
    6   24   28     -3.60      0.00
    8   24   28     -6.38      0.00
   10   24   28      1.20      0.00
   12   24   28      9.71      0.00
   14   24   28    -10.07      0.00
   16   24   28      0.62      0.00
   18   24   28      2.15      0.00
   20   24   28      1.84      0.00
   22   24   28     -3.91      0.00
    1   25   28      5.25      0.00
    3   25   28     10.18      0.00
    5   25   28     -9.16      0.00
    7   25   28    -11.41      0.00
    9   25   28    -17.03      0.00
   11   25   28     13.63      0.00
   13   25   28     19.84      0.00
   15   25   28     -6.40      0.00
   17   25   28      1.35      0.00
   19   25   28      0.39      0.00
   21   25   28    -13.43      0.00
    0   26   28      1.38      0.00
    2   26   28      1.66      0.00
    4   26   28    -14.47      0.00
    6   26   28      7.79      0.00
    8   26   28     -9.52      0.00
   10   26   28      6.46      0.00
   12   26   28      5.99      0.00
   14   26   28    -10.55      0.00
   16   26   28     -8.66      0.00
   18   26   28     -5.21      0.00
    1   27   28     -6.21      0.00
    3   27   28      5.71      0.00
    5   27   28     12.71      0.00
    7   27   28      0.20      0.00
    9   27   28     -0.86      0.00
   11   27   28     -5.22      0.00
   13   27   28     11.13      0.00
   15   27   28     10.74      0.00
   17   27   28     -1.94      0.00
    0   28   28     -3.05      0.00
    2   28   28     -2.71      0.00
    4   28   28     -4.26      0.00
    6   28   28    -15.20      0.00
    8   28   28     -4.65      0.00
   10   28   28     11.13      0.00
   12   28   28     13.07      0.00
   14   28   28      3.04      0.00
   16   28   28      5.94      0.00
    2    1   29     -6.30      0.00
    4    1   29     -6.03      0.00
    6    1   29     -0.36      0.00
    8    1   29     10.23      0.00
   10    1   29     -8.21      0.00
   12    1   29      7.15      0.00
   14    1   29      7.54      0.00
   16    1   29     -1.89      0.00
   18    1   29      4.81      0.00
   20    1   29     -5.86      0.00
   22    1   29      7.85      0.00
   24    1   29      7.73      0.00
   26    1   29     -1.82      0.00
   28    1   29      7.58      0.00
    1    2   29      9.19      0.00
    3    2   29      4.73      0.00
    5    2   29      1.44      0.00
    7    2   29     -0.95      0.00
    9    2   29     -9.67      0.00
   11    2   29      5.17      0.00
   13    2   29      3.75      0.00
   15    2   29      2.69      0.00
   17    2   29      3.43      0.00
   19    2   29      1.39      0.00
   21    2   29     14.35      0.00
   23    2   29     -5.76      0.00
   25    2   29      4.04      0.00
   27    2   29      4.03      0.00
    2    3   29     13.06      0.00
    4    3   29      0.77      0.00
    6    3   29      2.78      0.00
    8    3   29    -12.03      0.00
   10    3   29    -16.56      0.00
   12    3   29    -15.97      0.00
   14    3   29     -3.46      0.00
   16    3   29     -6.54      0.00
   18    3   29     -9.23      0.00
   20    3   29     -6.12      0.00
   22    3   29      6.64      0.00
   24    3   29     -1.40      0.00
   26    3   29      3.69      0.00
   28    3   29     11.55      0.00
    1    4   29      6.02      0.00
    3    4   29     -5.53      0.00
    5    4   29    -15.53      0.00
    7    4   29     10.58      0.00
    9    4   29      7.94      0.00
   11    4   29     10.12      0.00
   13    4   29      8.72      0.00
   15    4   29     -4.02      0.00
   17    4   29     13.00      0.00
   19    4   29      0.13      0.00
   21    4   29      5.04      0.00
   23    4   29    -16.79      0.00
   25    4   29    -12.72      0.00
   27    4   29     19.34      0.00
    2    5   29    -18.75      0.00
    4    5   29     -7.11      0.00
    6    5   29     11.38      0.00
    8    5   29      1.15      0.00
   10    5   29      1.16      0.00
   12    5   29    -12.03      0.00
   14    5   29    -12.13      0.00
   16    5   29      5.09      0.00
   18    5   29     -9.49      0.00
   20    5   29     -0.73      0.00
   22    5   29      0.84      0.00
   24    5   29     -2.25      0.00
   26    5   29      1.36      0.00
   28    5   29     11.35      0.00
    1    6   29      4.14      0.00
    3    6   29      5.07      0.00
    5    6   29      2.93      0.00
    7    6   29     -4.12      0.00
    9    6   29      2.36      0.00
   11    6   29      6.35      0.00
   13    6   29      7.20      0.00
   15    6   29      4.72      0.00
   17    6   29    -20.27      0.00
   19    6   29     -4.17      0.00
   21    6   29      8.38      0.00
   23    6   29     -0.77      0.00
   25    6   29     12.90      0.00
   27    6   29     -8.10      0.00
    2    7   29      6.56      0.00
    4    7   29     15.74      0.00
    6    7   29     -3.93      0.00
    8    7   29     -3.97      0.00
   10    7   29      4.88      0.00
   12    7   29      8.30      0.00
   14    7   29     -4.63      0.00
   16    7   29      2.99      0.00
   18    7   29     -0.81      0.00
   20    7   29     11.15      0.00
   22    7   29      0.76      0.00
   24    7   29     11.01      0.00
   26    7   29    -11.83      0.00
   28    7   29      6.16      0.00
    1    8   29     -7.79      0.00
    3    8   29      4.36      0.00
    5    8   29    -10.51      0.00
    7    8   29      4.16      0.00
    9    8   29     17.90      0.00
   11    8   29     -4.30      0.00
   13    8   29     -4.71      0.00
   15    8   29     -9.46      0.00
   17    8   29     -3.65      0.00
   19    8   29     -1.79      0.00
   21    8   29    -10.23      0.00
   23    8   29      1.93      0.00
   25    8   29      9.01      0.00
   27    8   29    -11.03      0.00
    2    9   29     -3.35      0.00
    4    9   29     -1.33      0.00
    6    9   29     -4.67      0.00
    8    9   29     -7.89      0.00
   10    9   29     -6.72      0.00
   12    9   29     -3.38      0.00
   14    9   29      0.01      0.00
   16    9   29      5.89      0.00
   18    9   29      1.23      0.00
   20    9   29     -2.82      0.00
   22    9   29      2.18      0.00
   24    9   29    -15.58      0.00
   26    9   29     -0.42      0.00
   28    9   29     11.02      0.00
    1   10   29      8.23      0.00
    3   10   29    -12.41      0.00
    5   10   29     -5.59      0.00
    7   10   29     -1.98      0.00
    9   10   29      3.07      0.00
   11   10   29     11.76      0.00
   13   10   29      3.07      0.00
   15   10   29     17.62      0.00
   17   10   29     -7.14      0.00
   19   10   29    -10.35      0.00
   21   10   29     -1.63      0.00
   23   10   29     -5.45      0.00
   25   10   29     -5.77      0.00
   27   10   29    -22.37      0.00
    2   11   29     -6.05      0.00
    4   11   29    -12.49      0.00
    6   11   29     -1.07      0.00
    8   11   29     -0.41      0.00
   10   11   29      2.46      0.00
   12   11   29    -14.92      0.00
   14   11   29     -7.65      0.00
   16   11   29    -12.49      0.00
   18   11   29     -7.04      0.00
   20   11   29      5.15      0.00
   22   11   29     -8.54      0.00
   24   11   29     -5.81      0.00
   26   11   29     -9.16      0.00
   28   11   29     -0.11      0.00
    1   12   29      0.15      0.00
    3   12   29      3.26      0.00
    5   12   29     10.89      0.00
    7   12   29      1.69      0.00
    9   12   29      1.92      0.00
   11   12   29     -5.53      0.00
   13   12   29      0.20      0.00
   15   12   29      4.01      0.00
   17   12   29     -1.98      0.00
   19   12   29      1.36      0.00
   21   12   29     14.78      0.00
   23   12   29      0.06      0.00
   25   12   29    -17.87      0.00
   27   12   29      0.02      0.00
    2   13   29      4.95      0.00
    4   13   29     22.56      0.00
    6   13   29      7.26      0.00
    8   13   29     -3.95      0.00
   10   13   29     -3.01      0.00
   12   13   29     -9.02      0.00
   14   13   29     12.99      0.00
   16   13   29     -5.98      0.00
   18   13   29     12.67      0.00
   20   13   29      5.81      0.00
   22   13   29     -7.00      0.00
   24   13   29    -15.44      0.00
   26   13   29     12.46      0.00
   28   13   29      9.04      0.00
    1   14   29    -11.40      0.00
    3   14   29      0.68      0.00
    5   14   29      1.80      0.00
    7   14   29      7.30      0.00
    9   14   29     10.90      0.00
   11   14   29     -3.63      0.00
   13   14   29      0.37      0.00
   15   14   29     -2.04      0.00
   17   14   29      4.94      0.00
   19   14   29     -4.97      0.00
   21   14   29     13.24      0.00
   23   14   29      6.85      0.00
   25   14   29     -7.79      0.00
   27   14   29     13.67      0.00
    2   15   29     -7.36      0.00
    4   15   29      8.43      0.00
    6   15   29      2.63      0.00
    8   15   29      6.64      0.00
   10   15   29     -3.47      0.00
   12   15   29     13.58      0.00
   14   15   29     -8.75      0.00
   16   15   29      7.40      0.00
   18   15   29     16.65      0.00
   20   15   29      4.30      0.00
   22   15   29      2.05      0.00
   24   15   29     11.10      0.00
   26   15   29     10.83      0.00
   28   15   29      3.86      0.00
    1   16   29     -1.18      0.00
    3   16   29     -0.63      0.00
    5   16   29     -0.75      0.00
    7   16   29    -10.92      0.00
    9   16   29     10.16      0.00
   11   16   29     11.40      0.00
   13   16   29      7.93      0.00
   15   16   29     -0.86      0.00
   17   16   29     -3.11      0.00
   19   16   29     -0.37      0.00
   21   16   29     -2.31      0.00
   23   16   29      1.74      0.00
   25   16   29     -7.01      0.00
   27   16   29     -0.04      0.00
    2   17   29      0.85      0.00
    4   17   29      2.77      0.00
    6   17   29     -1.29      0.00
    8   17   29      2.03      0.00
   10   17   29     -4.93      0.00
   12   17   29     12.76      0.00
   14   17   29      5.78      0.00
   16   17   29    -10.79      0.00
   18   17   29      9.42      0.00
   20   17   29     -8.08      0.00
   22   17   29      6.25      0.00
   24   17   29     19.87      0.00
   26   17   29     -7.42      0.00
    1   18   29     -1.36      0.00
    3   18   29      5.32      0.00
    5   18   29    -18.99      0.00
    7   18   29      2.13      0.00
    9   18   29     -4.96      0.00
   11   18   29      3.84      0.00
   13   18   29     -4.74      0.00
   15   18   29      0.32      0.00
   17   18   29     12.06      0.00
   19   18   29     11.82      0.00
   21   18   29      1.90      0.00
   23   18   29     -7.00      0.00
   25   18   29      2.68      0.00
    2   19   29      0.71      0.00
    4   19   29     -3.64      0.00
    6   19   29     -7.68      0.00
    8   19   29      5.11      0.00
   10   19   29    -22.39      0.00
   12   19   29      5.09      0.00
   14   19   29     13.45      0.00
   16   19   29      1.52      0.00
   18   19   29      0.74      0.00
   20   19   29    -11.00      0.00
   22   19   29     -2.38      0.00
   24   19   29     -9.60      0.00
    1   20   29      8.25      0.00
    3   20   29    -13.69      0.00
    5   20   29     -9.59      0.00
    7   20   29      4.76      0.00
    9   20   29     -4.56      0.00
   11   20   29      1.42      0.00
   13   20   29      5.69      0.00
   15   20   29      5.86      0.00
   17   20   29     -3.12      0.00
   19   20   29     10.81      0.00
   21   20   29     10.71      0.00
   23   20   29     -0.55      0.00
    2   21   29     -0.60      0.00
    4   21   29     -7.90      0.00
    6   21   29      9.11      0.00
    8   21   29     -2.75      0.00
   10   21   29      0.08      0.00
   12   21   29     -0.78      0.00
   14   21   29      6.29      0.00
   16   21   29     -0.89      0.00
   18   21   29      0.58      0.00
   20   21   29     -4.04      0.00
   22   21   29    -11.20      0.00
    1   22   29     -0.84      0.00
    3   22   29    -13.15      0.00
    5   22   29      1.83      0.00
    7   22   29      8.96      0.00
    9   22   29     -4.24      0.00
   11   22   29    -12.05      0.00
   13   22   29      4.54      0.00
   15   22   29      9.50      0.00
   17   22   29     -6.57      0.00
   19   22   29     -5.36      0.00
   21   22   29      6.13      0.00
   23   22   29      2.32      0.00
    2   23   29    -23.25      0.00
    4   23   29      9.90      0.00
    6   23   29      3.48      0.00
    8   23   29      5.04      0.00
   10   23   29     -9.79      0.00
   12   23   29     -3.32      0.00
   14   23   29     -5.14      0.00
   16   23   29      7.25      0.00
   18   23   29      2.39      0.00
   20   23   29     -7.02      0.00
   22   23   29     -8.97      0.00
    1   24   29      0.65      0.00
    3   24   29    -11.12      0.00
    5   24   29     -9.79      0.00
    7   24   29     -1.07      0.00
    9   24   29     -4.98      0.00
   11   24   29      1.69      0.00
   13   24   29      3.39      0.00
   15   24   29      9.84      0.00
   17   24   29      9.41      0.00
   19   24   29    -12.83      0.00
    2   25   29     -2.54      0.00
    4   25   29     -0.62      0.00
    6   25   29      5.26      0.00
    8   25   29     -6.33      0.00
   10   25   29     12.55      0.00
   12   25   29     -8.31      0.00
   14   25   29     -3.52      0.00
   16   25   29      7.70      0.00
   18   25   29      8.56      0.00
    1   26   29      5.62      0.00
    3   26   29      6.23      0.00
    5   26   29     -1.32      0.00
    7   26   29     -8.81      0.00
    9   26   29     -9.76      0.00
   11   26   29      4.30      0.00
   13   26   29     -4.40      0.00
   15   26   29      0.65      0.00
   17   26   29     10.53      0.00
    2   27   29     -7.51      0.00
    4   27   29     -0.97      0.00
    6   27   29      2.82      0.00
    8   27   29      5.45      0.00
   10   27   29     -1.37      0.00
   12   27   29     -5.48      0.00
   14   27   29      2.61      0.00
   16   27   29      8.24      0.00
    1   28   29      5.54      0.00
    3   28   29     -9.59      0.00
    5   28   29      7.33      0.00
    7   28   29      6.84      0.00
    9   28   29     -5.66      0.00
   11   28   29      4.23      0.00
   13   28   29     -0.96      0.00
   15   28   29     -3.75      0.00
    2   29   29      1.24      0.00
    4   29   29     -0.63      0.00
    6   29   29     -2.46      0.00
    8   29   29     -5.76      0.00
   10   29   29     -1.45      0.00
   12   29   29     -3.55      0.00
    0    0   30     17.20      0.00
    2    0   30      1.25      0.00
    4    0   30     -3.34      0.00
    6    0   30      1.57      0.00
    8    0   30      2.58      0.00
   10    0   30      7.80      0.00
   12    0   30     18.14      0.00
   14    0   30     -3.08      0.00
   16    0   30    -14.97      0.00
   18    0   30     11.26      0.00
   20    0   30      0.36      0.00
   22    0   30     22.62      0.00
   24    0   30    -21.04      0.00
   26    0   30     -8.49      0.00
   28    0   30      3.73      0.00
    1    1   30     -4.10      0.00
    3    1   30    -10.76      0.00
    5    1   30    -14.53      0.00
    7    1   30      4.26      0.00
    9    1   30      2.55      0.00
   11    1   30      5.24      0.00
   13    1   30    -12.11      0.00
   15    1   30    -10.39      0.00
   17    1   30     -6.31      0.00
   19    1   30     -8.08      0.00
   21    1   30     -6.52      0.00
   23    1   30     -1.95      0.00
   25    1   30      5.10      0.00
   27    1   30     11.33      0.00
   29    1   30      2.03      0.00
    0    2   30     -0.61      0.00
    2    2   30      0.16      0.00
    4    2   30     12.30      0.00
    6    2   30      2.39      0.00
    8    2   30      1.85      0.00
   10    2   30     -2.76      0.00
   12    2   30      5.35      0.00
   14    2   30      3.64      0.00
   16    2   30      2.07      0.00
   18    2   30     17.83      0.00
   20    2   30      0.02      0.00
   22    2   30      1.55      0.00
   24    2   30     14.99      0.00
   26    2   30     -8.22      0.00
   28    2   30     15.86      0.00
    1    3   30      4.67      0.00
    3    3   30    -15.46      0.00
    5    3   30     -6.98      0.00
    7    3   30     11.21      0.00
    9    3   30     -7.36      0.00
   11    3   30     -1.21      0.00
   13    3   30     -4.51      0.00
   15    3   30     -8.44      0.00
   17    3   30      3.38      0.00
   19    3   30     -8.48      0.00
   21    3   30     -3.43      0.00
   23    3   30     -0.04      0.00
   25    3   30      7.98      0.00
   27    3   30     -2.28      0.00
   29    3   30     -2.01      0.00
    0    4   30      5.39      0.00
    2    4   30     12.78      0.00
    4    4   30    -10.51      0.00
    6    4   30    -12.75      0.00
    8    4   30     -2.99      0.00
   10    4   30      3.62      0.00
   12    4   30      9.47      0.00
   14    4   30      4.30      0.00
   16    4   30     -4.83      0.00
   18    4   30     16.36      0.00
   20    4   30      9.24      0.00
   22    4   30     11.16      0.00
   24    4   30      0.58      0.00
   26    4   30     15.53      0.00
   28    4   30     17.57      0.00
    1    5   30      8.86      0.00
    3    5   30     -9.25      0.00
    5    5   30      4.40      0.00
    7    5   30      3.78      0.00
    9    5   30      4.97      0.00
   11    5   30      2.75      0.00
   13    5   30      2.24      0.00
   15    5   30     -9.29      0.00
   17    5   30      0.89      0.00
   19    5   30      5.32      0.00
   21    5   30      5.54      0.00
   23    5   30      0.97      0.00
   25    5   30      7.55      0.00
   27    5   30     -5.65      0.00
   29    5   30     -4.36      0.00
    0    6   30     -1.90      0.00
    2    6   30    -11.54      0.00
    4    6   30     -3.98      0.00
    6    6   30      0.52      0.00
    8    6   30      2.25      0.00
   10    6   30      1.95      0.00
   12    6   30      0.08      0.00
   14    6   30     -0.85      0.00
   16    6   30     17.66      0.00
   18    6   30     -7.17      0.00
   20    6   30     19.79      0.00
   22    6   30      7.93      0.00
   24    6   30     10.91      0.00
   26    6   30     28.34      0.00
   28    6   30     -5.44      0.00
    1    7   30     -8.64      0.00
    3    7   30     -4.38      0.00
    5    7   30      0.44      0.00
    7    7   30      1.57      0.00
    9    7   30      1.57      0.00
   11    7   30    -12.55      0.00
   13    7   30     -7.24      0.00
   15    7   30     -4.48      0.00
   17    7   30     -6.95      0.00
   19    7   30    -11.95      0.00
   21    7   30     -4.50      0.00
   23    7   30     16.44      0.00
   25    7   30     -6.97      0.00
   27    7   30     -5.44      0.00
   29    7   30      8.53      0.00
    0    8   30     -2.32      0.00
    2    8   30      4.06      0.00
    4    8   30      3.65      0.00
    6    8   30      8.27      0.00
    8    8   30     -2.10      0.00
   10    8   30      3.66      0.00
   12    8   30     -8.28      0.00
   14    8   30     -0.04      0.00
   16    8   30      1.41      0.00
   18    8   30      7.64      0.00
   20    8   30      5.03      0.00
   22    8   30      2.13      0.00
   24    8   30     -9.93      0.00
   26    8   30      7.60      0.00
   28    8   30     -1.62      0.00
    1    9   30     -0.03      0.00
    3    9   30      3.89      0.00
    5    9   30     -2.98      0.00
    7    9   30     11.82      0.00
    9    9   30      3.34      0.00
   11    9   30     -1.42      0.00
   13    9   30    -14.61      0.00
   15    9   30     -7.45      0.00
   17    9   30    -10.72      0.00
   19    9   30     -3.65      0.00
   21    9   30     -3.16      0.00
   23    9   30      1.24      0.00
   25    9   30     -7.51      0.00
   27    9   30     -2.58      0.00
   29    9   30     12.11      0.00
    0   10   30      3.12      0.00
    2   10   30     -1.06      0.00
    4   10   30     -8.47      0.00
    6   10   30     -1.87      0.00
    8   10   30      8.07      0.00
   10   10   30      6.82      0.00
   12   10   30      6.58      0.00
   14   10   30    -11.42      0.00
   16   10   30      1.29      0.00
   18   10   30     -2.98      0.00
   20   10   30      5.42      0.00
   22   10   30     -3.57      0.00
   24   10   30     12.72      0.00
   26   10   30     13.14      0.00
   28   10   30     17.24      0.00
    1   11   30      8.62      0.00
    3   11   30     -0.16      0.00
    5   11   30      1.83      0.00
    7   11   30      5.37      0.00
    9   11   30      3.71      0.00
   11   11   30      5.74      0.00
   13   11   30     -0.03      0.00
   15   11   30      3.76      0.00
   17   11   30     -6.64      0.00
   19   11   30     -3.90      0.00
   21   11   30      5.93      0.00
   23   11   30     -6.93      0.00
   25   11   30     -9.87      0.00
   27   11   30     -0.08      0.00
    0   12   30      2.94      0.00
    2   12   30     -2.71      0.00
    4   12   30      4.09      0.00
    6   12   30      4.98      0.00
    8   12   30     -3.87      0.00
   10   12   30      7.74      0.00
   12   12   30     -5.93      0.00
   14   12   30      6.70      0.00
   16   12   30     -3.12      0.00
   18   12   30     18.60      0.00
   20   12   30     -3.27      0.00
   22   12   30      4.79      0.00
   24   12   30      5.89      0.00
   26   12   30     -0.42      0.00
   28   12   30     -1.18      0.00
    1   13   30     -5.26      0.00
    3   13   30     -7.30      0.00
    5   13   30     -2.41      0.00
    7   13   30    -10.44      0.00
    9   13   30     -3.71      0.00
   11   13   30     -5.45      0.00
   13   13   30      9.11      0.00
   15   13   30      0.54      0.00
   17   13   30     -5.31      0.00
   19   13   30     14.86      0.00
   21   13   30      9.08      0.00
   23   13   30     -2.06      0.00
   25   13   30      2.93      0.00
   27   13   30     11.86      0.00
    0   14   30      4.23      0.00
    2   14   30     11.46      0.00
    4   14   30      4.50      0.00
    6   14   30     -9.67      0.00
    8   14   30      5.01      0.00
   10   14   30      0.44      0.00
   12   14   30      9.35      0.00
   14   14   30     -1.73      0.00
   16   14   30      0.87      0.00
   18   14   30     -1.05      0.00
   20   14   30      1.19      0.00
   22   14   30      1.49      0.00
   24   14   30     -6.23      0.00
   26   14   30     -8.16      0.00
    1   15   30     -2.93      0.00
    3   15   30      4.30      0.00
    5   15   30     -0.74      0.00
    7   15   30     10.34      0.00
    9   15   30     14.50      0.00
   11   15   30     -7.49      0.00
   13   15   30      4.47      0.00
   15   15   30     -8.80      0.00
   17   15   30     -1.21      0.00
   19   15   30      0.11      0.00
   21   15   30      8.10      0.00
   23   15   30     -5.64      0.00
   25   15   30     16.22      0.00
   27   15   30      5.49      0.00
    0   16   30    -10.04      0.00
    2   16   30      1.07      0.00
    4   16   30     12.21      0.00
    6   16   30     -4.68      0.00
    8   16   30      3.29      0.00
   10   16   30     -5.43      0.00
   12   16   30      2.74      0.00
   14   16   30     -6.61      0.00
   16   16   30    -15.33      0.00
   18   16   30    -11.11      0.00
   20   16   30      4.10      0.00
   22   16   30      4.51      0.00
   24   16   30    -14.67      0.00
   26   16   30      8.98      0.00
    1   17   30     10.97      0.00
    3   17   30      2.60      0.00
    5   17   30     -1.08      0.00
    7   17   30     18.12      0.00
    9   17   30     12.53      0.00
   11   17   30      9.93      0.00
   13   17   30     -7.58      0.00
   15   17   30      4.18      0.00
   17   17   30     -1.01      0.00
   19   17   30    -11.77      0.00
   21   17   30    -11.30      0.00
   23   17   30      6.37      0.00
   25   17   30      4.54      0.00
    0   18   30     -1.93      0.00
    2   18   30      0.87      0.00
    4   18   30     -4.63      0.00
    6   18   30     -5.53      0.00
    8   18   30     13.46      0.00
   10   18   30     -0.02      0.00
   12   18   30     -1.41      0.00
   14   18   30     -2.32      0.00
   16   18   30     -8.81      0.00
   18   18   30     -8.25      0.00
   20   18   30      1.27      0.00
   22   18   30      5.00      0.00
   24   18   30      7.04      0.00
    1   19   30     -4.21      0.00
    3   19   30    -15.52      0.00
    5   19   30      2.57      0.00
    7   19   30     10.07      0.00
    9   19   30    -12.34      0.00
   11   19   30     -2.33      0.00
   13   19   30     -5.85      0.00
   15   19   30    -11.69      0.00
   17   19   30     16.14      0.00
   19   19   30     -4.48      0.00
   21   19   30      1.36      0.00
   23   19   30      1.18      0.00
    0   20   30      3.40      0.00
    2   20   30      6.70      0.00
    4   20   30      0.15      0.00
    6   20   30      8.45      0.00
    8   20   30     -0.04      0.00
   10   20   30     16.23      0.00
   12   20   30      5.77      0.00
   14   20   30     -2.93      0.00
   16   20   30     -2.93      0.00
   18   20   30     -3.15      0.00
   20   20   30     -2.94      0.00
   22   20   30      3.92      0.00
    1   21   30      9.05      0.00
    3   21   30    -13.92      0.00
    5   21   30     -8.89      0.00
    7   21   30     -0.16      0.00
    9   21   30    -10.33      0.00
   11   21   30     22.47      0.00
   13   21   30     15.63      0.00
   15   21   30    -14.99      0.00
   17   21   30    -13.18      0.00
   19   21   30     13.03      0.00
   21   21   30     13.08      0.00
    0   22   30    -14.65      0.00
    2   22   30     -4.22      0.00
    4   22   30     14.42      0.00
    6   22   30     11.79      0.00
    8   22   30      2.77      0.00
   10   22   30      2.95      0.00
   12   22   30      8.54      0.00
   14   22   30     -1.52      0.00
   16   22   30      4.19      0.00
   18   22   30      5.31      0.00
   20   22   30    -10.79      0.00
    1   23   30      2.14      0.00
    3   23   30      5.52      0.00
    5   23   30     15.89      0.00
    7   23   30      4.87      0.00
    9   23   30    -10.59      0.00
   11   23   30    -11.08      0.00
   13   23   30     16.24      0.00
   15   23   30      4.86      0.00
   17   23   30    -14.39      0.00
   19   23   30     -7.28      0.00
    0   24   30     -1.28      0.00
    2   24   30      4.99      0.00
    4   24   30      2.96      0.00
    6   24   30     -5.44      0.00
    8   24   30    -32.42      0.00
   10   24   30    -11.60      0.00
   12   24   30      8.24      0.00
   14   24   30      3.94      0.00
   16   24   30      0.26      0.00
   18   24   30      7.39      0.00
    1   25   30     -1.83      0.00
    3   25   30      0.64      0.00
    5   25   30     -3.48      0.00
    7   25   30    -10.30      0.00
    9   25   30      3.53      0.00
   11   25   30     10.80      0.00
   13   25   30      7.24      0.00
   15   25   30      8.58      0.00
   17   25   30    -11.31      0.00
    0   26   30      2.73      0.00
    2   26   30     -1.29      0.00
    4   26   30      2.67      0.00
    6   26   30      4.60      0.00
    8   26   30     -3.12      0.00
   10   26   30    -11.52      0.00
   12   26   30     -0.87      0.00
   14   26   30     -6.01      0.00
   16   26   30      5.95      0.00
    1   27   30     10.62      0.00
    3   27   30    -12.89      0.00
    5   27   30      1.13      0.00
    7   27   30     -6.64      0.00
    9   27   30     -1.44      0.00
   11   27   30     13.36      0.00
   13   27   30      8.76      0.00
   15   27   30     20.10      0.00
    0   28   30     -5.57      0.00
    2   28   30      9.06      0.00
    4   28   30     -4.93      0.00
    6   28   30    -10.78      0.00
    8   28   30     -0.02      0.00
   10   28   30     11.27      0.00
   12   28   30      3.79      0.00
    1   29   30     24.60      0.00
    3   29   30     16.84      0.00
    5   29   30     19.52      0.00
    7   29   30     11.86      0.00
    9   29   30    -12.47      0.00
    0   30   30      5.78      0.00
    2   30   30     -9.67      0.00
    4   30   30     17.40      0.00
    6   30   30    -14.44      0.00
    2    1   31     -2.93      0.00
    4    1   31      9.26      0.00
    6    1   31     -7.96      0.00
    8    1   31      3.83      0.00
   10    1   31      6.85      0.00
   12    1   31      2.14      0.00
   14    1   31      6.63      0.00
   16    1   31      5.92      0.00
   18    1   31      1.12      0.00
   20    1   31      2.09      0.00
   22    1   31      5.55      0.00
   24    1   31      4.20      0.00
   26    1   31     10.28      0.00
   28    1   31     14.55      0.00
    1    2   31    -16.54      0.00
    3    2   31      9.70      0.00
    5    2   31      4.60      0.00
    7    2   31    -11.47      0.00
    9    2   31     -9.20      0.00
   11    2   31     -8.88      0.00
   13    2   31      6.03      0.00
   15    2   31      1.29      0.00
   17    2   31     -3.83      0.00
   19    2   31     -4.34      0.00
   21    2   31     -4.67      0.00
   23    2   31      2.08      0.00
   25    2   31     -6.12      0.00
   27    2   31     -2.08      0.00
   29    2   31     -5.34      0.00
    2    3   31    -11.12      0.00
    4    3   31    -12.76      0.00
    6    3   31      4.52      0.00
    8    3   31     -2.60      0.00
   10    3   31     -6.44      0.00
   12    3   31    -10.20      0.00
   14    3   31      0.53      0.00
   16    3   31      8.27      0.00
   18    3   31     -4.26      0.00
   20    3   31     -6.67      0.00
   22    3   31     -7.00      0.00
   24    3   31    -15.57      0.00
   26    3   31     -1.85      0.00
   28    3   31      2.06      0.00
    1    4   31    -14.22      0.00
    3    4   31    -18.37      0.00
    5    4   31     -2.57      0.00
    7    4   31     14.56      0.00
    9    4   31     10.51      0.00
   11    4   31     -4.11      0.00
   13    4   31      0.08      0.00
   15    4   31     -0.71      0.00
   17    4   31     13.69      0.00
   19    4   31     -9.31      0.00
   21    4   31      1.00      0.00
   23    4   31     -6.66      0.00
   25    4   31    -24.69      0.00
   27    4   31      2.89      0.00
   29    4   31    -10.63      0.00
    2    5   31     -7.66      0.00
    4    5   31     -5.53      0.00
    6    5   31      9.94      0.00
    8    5   31     -9.48      0.00
   10    5   31     -9.56      0.00
   12    5   31      5.04      0.00
   14    5   31     -1.84      0.00
   16    5   31      2.86      0.00
   18    5   31     -4.20      0.00
   20    5   31     -1.27      0.00
   22    5   31     10.93      0.00
   24    5   31      4.36      0.00
   26    5   31    -22.82      0.00
   28    5   31     -5.91      0.00
    1    6   31      6.96      0.00
    3    6   31      4.04      0.00
    5    6   31      2.33      0.00
    7    6   31     -1.16      0.00
    9    6   31    -18.94      0.00
   11    6   31      4.63      0.00
   13    6   31      1.76      0.00
   15    6   31     -4.78      0.00
   17    6   31      2.02      0.00
   19    6   31      2.07      0.00
   21    6   31     14.60      0.00
   23    6   31     -4.84      0.00
   25    6   31    -16.05      0.00
   27    6   31     -2.01      0.00
   29    6   31     -1.86      0.00
    2    7   31     -5.90      0.00
    4    7   31      3.36      0.00
    6    7   31      9.63      0.00
    8    7   31      3.71      0.00
   10    7   31     -1.55      0.00
   12    7   31     -0.07      0.00
   14    7   31     -6.88      0.00
   16    7   31      8.84      0.00
   18    7   31      5.47      0.00
   20    7   31      6.35      0.00
   22    7   31      1.82      0.00
   24    7   31     -3.67      0.00
   26    7   31      7.43      0.00
   28    7   31     -7.70      0.00
    1    8   31     -2.02      0.00
    3    8   31    -10.07      0.00
    5    8   31      1.76      0.00
    7    8   31     -3.76      0.00
    9    8   31     -5.57      0.00
   11    8   31     -7.56      0.00
   13    8   31     -6.08      0.00
   15    8   31     13.57      0.00
   17    8   31     -5.72      0.00
   19    8   31      0.53      0.00
   21    8   31      2.29      0.00
   23    8   31    -13.94      0.00
   25    8   31      3.63      0.00
   27    8   31    -11.83      0.00
    2    9   31    -10.43      0.00
    4    9   31      1.47      0.00
    6    9   31      0.09      0.00
    8    9   31      1.06      0.00
   10    9   31    -21.78      0.00
   12    9   31      4.16      0.00
   14    9   31      7.76      0.00
   16    9   31     -4.39      0.00
   18    9   31     -1.91      0.00
   20    9   31      4.21      0.00
   22    9   31      7.57      0.00
   24    9   31     -1.43      0.00
   26    9   31     -3.96      0.00
   28    9   31     -1.92      0.00
    1   10   31     -1.70      0.00
    3   10   31      8.00      0.00
    5   10   31     -0.05      0.00
    7   10   31     -4.48      0.00
    9   10   31      5.67      0.00
   11   10   31      9.32      0.00
   13   10   31      4.71      0.00
   15   10   31     -1.26      0.00
   17   10   31    -14.16      0.00
   19   10   31     -3.27      0.00
   21   10   31      4.06      0.00
   23   10   31     -1.55      0.00
   25   10   31     -9.79      0.00
   27   10   31     -1.22      0.00
    2   11   31     -2.32      0.00
    4   11   31     -3.14      0.00
    6   11   31      7.61      0.00
    8   11   31     -2.80      0.00
   10   11   31     -9.30      0.00
   12   11   31    -14.82      0.00
   14   11   31     -6.59      0.00
   16   11   31    -11.03      0.00
   18   11   31      6.58      0.00
   20   11   31      2.64      0.00
   22   11   31     11.59      0.00
   24   11   31      1.92      0.00
   26   11   31     -3.07      0.00
    1   12   31     -2.82      0.00
    3   12   31      5.26      0.00
    5   12   31      8.56      0.00
    7   12   31      2.24      0.00
    9   12   31      3.35      0.00
   11   12   31      1.84      0.00
   13   12   31      1.95      0.00
   15   12   31      5.95      0.00
   17   12   31      0.07      0.00
   19   12   31      4.41      0.00
   21   12   31     -7.35      0.00
   23   12   31     -9.80      0.00
   25   12   31      4.94      0.00
   27   12   31      0.24      0.00
    2   13   31     -6.76      0.00
    4   13   31     -4.53      0.00
    6   13   31     15.99      0.00
    8   13   31      7.83      0.00
   10   13   31     -0.11      0.00
   12   13   31     -1.85      0.00
   14   13   31     -0.29      0.00
   16   13   31     13.38      0.00
   18   13   31      6.96      0.00
   20   13   31      0.68      0.00
   22   13   31     -0.57      0.00
   24   13   31     -4.18      0.00
   26   13   31     14.84      0.00
    1   14   31     -6.01      0.00
    3   14   31    -17.24      0.00
    5   14   31     -1.46      0.00
    7   14   31     -6.72      0.00
    9   14   31      8.85      0.00
   11   14   31     -1.95      0.00
   13   14   31      6.62      0.00
   15   14   31     -0.26      0.00
   17   14   31      2.65      0.00
   19   14   31     -0.86      0.00
   21   14   31      7.39      0.00
   23   14   31      1.02      0.00
   25   14   31     -3.28      0.00
    2   15   31     -9.38      0.00
    4   15   31      0.51      0.00
    6   15   31     -1.37      0.00
    8   15   31      5.39      0.00
   10   15   31      1.28      0.00
   12   15   31     12.18      0.00
   14   15   31     -4.93      0.00
   16   15   31     -5.37      0.00
   18   15   31     18.66      0.00
   20   15   31     17.52      0.00
   22   15   31     -6.21      0.00
   24   15   31    -15.18      0.00
    1   16   31      3.69      0.00
    3   16   31      6.95      0.00
    5   16   31     -2.92      0.00
    7   16   31     -8.49      0.00
    9   16   31     -6.81      0.00
   11   16   31      9.33      0.00
   13   16   31     -2.69      0.00
   15   16   31     10.64      0.00
   17   16   31     -3.64      0.00
   19   16   31     -5.43      0.00
   21   16   31     13.44      0.00
   23   16   31     -4.50      0.00
   25   16   31     -0.63      0.00
    2   17   31     -6.82      0.00
    4   17   31      5.17      0.00
    6   17   31      5.97      0.00
    8   17   31      1.87      0.00
   10   17   31    -15.49      0.00
   12   17   31     -3.98      0.00
   14   17   31    -13.50      0.00
   16   17   31    -11.69      0.00
   18   17   31     10.64      0.00
   20   17   31     16.19      0.00
   22   17   31     -2.82      0.00
   24   17   31      1.97      0.00
    1   18   31     -3.70      0.00
    3   18   31     -5.25      0.00
    5   18   31     -1.00      0.00
    7   18   31     -0.49      0.00
    9   18   31      5.32      0.00
   11   18   31     -0.31      0.00
   13   18   31     -8.96      0.00
   15   18   31      7.75      0.00
   17   18   31      5.63      0.00
   19   18   31      4.50      0.00
   21   18   31     -1.60      0.00
   23   18   31     -7.16      0.00
    2   19   31     -1.37      0.00
    4   19   31     11.37      0.00
    6   19   31     11.41      0.00
    8   19   31      5.01      0.00
   10   19   31     -7.07      0.00
   12   19   31     -6.13      0.00
   14   19   31      4.19      0.00
   16   19   31    -10.03      0.00
   18   19   31     -7.75      0.00
   20   19   31     -1.83      0.00
   22   19   31      0.78      0.00
    1   20   31     -6.30      0.00
    3   20   31     -4.28      0.00
    5   20   31     -0.18      0.00
    7   20   31      3.68      0.00
    9   20   31     -8.00      0.00
   11   20   31      0.59      0.00
   13   20   31      3.74      0.00
   15   20   31     -2.14      0.00
   17   20   31     -5.67      0.00
   19   20   31      4.96      0.00
   21   20   31      7.05      0.00
    2   21   31     -1.94      0.00
    4   21   31      5.01      0.00
    6   21   31     -0.02      0.00
    8   21   31      5.11      0.00
   10   21   31      6.60      0.00
   12   21   31     -0.75      0.00
   14   21   31     -3.97      0.00
   16   21   31     11.83      0.00
   18   21   31     -3.65      0.00
   20   21   31     -3.01      0.00
    1   22   31      5.65      0.00
    3   22   31     -9.22      0.00
    5   22   31     -5.25      0.00
    7   22   31      6.69      0.00
    9   22   31    -14.94      0.00
   11   22   31     -6.14      0.00
   13   22   31     -0.06      0.00
   15   22   31     -6.50      0.00
   17   22   31      3.72      0.00
   19   22   31      3.92      0.00
    2   23   31     -3.74      0.00
    4   23   31     -2.84      0.00
    6   23   31     -6.20      0.00
    8   23   31    -17.24      0.00
   10   23   31     11.50      0.00
   12   23   31      6.12      0.00
   14   23   31      1.39      0.00
   16   23   31      7.12      0.00
   18   23   31     10.23      0.00
    1   24   31      3.49      0.00
    3   24   31     -0.46      0.00
    5   24   31    -13.03      0.00
    7   24   31     -5.03      0.00
    9   24   31      6.02      0.00
   11   24   31     12.22      0.00
   13   24   31      4.62      0.00
   15   24   31     -8.16      0.00
   17   24   31     12.21      0.00
    2   25   31      8.36      0.00
    4   25   31     13.12      0.00
    6   25   31     -1.66      0.00
    8   25   31     -6.56      0.00
   10   25   31     -5.32      0.00
   12   25   31     10.48      0.00
   14   25   31     -7.08      0.00
   16   25   31     -1.27      0.00
    1   26   31    -12.41      0.00
    3   26   31      1.61      0.00
    5   26   31      1.95      0.00
    7   26   31    -19.54      0.00
    9   26   31      2.38      0.00
   11   26   31      9.54      0.00
   13   26   31     13.56      0.00
    2   27   31      2.10      0.00
    4   27   31     -9.52      0.00
    6   27   31      4.70      0.00
    8   27   31     17.19      0.00
   10   27   31     15.37      0.00
   12   27   31     -5.05      0.00
    1   28   31     -9.28      0.00
    3   28   31    -11.88      0.00
    5   28   31      8.95      0.00
    7   28   31     -5.00      0.00
    9   28   31      6.49      0.00
    2   29   31      1.44      0.00
    4   29   31     -3.55      0.00
    6   29   31     -2.77      0.00
    0    0   32     14.90      0.00
    2    0   32    -16.58      0.00
    4    0   32      3.86      0.00
    6    0   32    -11.23      0.00
    8    0   32      1.82      0.00
   10    0   32      8.69      0.00
   12    0   32    -11.64      0.00
   14    0   32      0.93      0.00
   16    0   32    -12.05      0.00
   18    0   32     -9.88      0.00
   20    0   32      8.06      0.00
   22    0   32     -5.52      0.00
   24    0   32     36.25      0.00
   26    0   32      2.70      0.00
   28    0   32     17.82      0.00
    1    1   32     -6.26      0.00
    3    1   32     12.84      0.00
    5    1   32      3.11      0.00
    7    1   32      5.88      0.00
    9    1   32     -8.01      0.00
   11    1   32     -3.08      0.00
   13    1   32      2.40      0.00
   15    1   32      0.91      0.00
   17    1   32      6.23      0.00
   19    1   32    -10.74      0.00
   21    1   32      2.59      0.00
   23    1   32      5.78      0.00
   25    1   32      5.75      0.00
   27    1   32      9.17      0.00
    0    2   32     -2.31      0.00
    2    2   32     11.09      0.00
    4    2   32      3.35      0.00
    6    2   32     -0.89      0.00
    8    2   32      1.06      0.00
   10    2   32     -0.69      0.00
   12    2   32     -4.89      0.00
   14    2   32     10.24      0.00
   16    2   32     -2.09      0.00
   18    2   32      9.91      0.00
   20    2   32      2.38      0.00
   22    2   32      9.51      0.00
   24    2   32      7.00      0.00
   26    2   32      3.95      0.00
   28    2   32      7.41      0.00
    1    3   32     -4.68      0.00
    3    3   32      4.67      0.00
    5    3   32    -12.38      0.00
    7    3   32      0.19      0.00
    9    3   32      4.84      0.00
   11    3   32      1.49      0.00
   13    3   32      7.68      0.00
   15    3   32    -12.80      0.00
   17    3   32     -1.75      0.00
   19    3   32      4.96      0.00
   21    3   32     -2.26      0.00
   23    3   32      2.52      0.00
   25    3   32      3.83      0.00
   27    3   32      5.63      0.00
    0    4   32      2.44      0.00
    2    4   32     10.78      0.00
    4    4   32     -4.90      0.00
    6    4   32     -5.93      0.00
    8    4   32      6.20      0.00
   10    4   32     -2.21      0.00
   12    4   32     21.28      0.00
   14    4   32      1.21      0.00
   16    4   32     -4.95      0.00
   18    4   32     -2.43      0.00
   20    4   32     10.84      0.00
   22    4   32      8.52      0.00
   24    4   32     -9.37      0.00
   26    4   32      6.47      0.00
   28    4   32     16.51      0.00
    1    5   32    -17.23      0.00
    3    5   32     -8.12      0.00
    5    5   32     -5.44      0.00
    7    5   32      0.58      0.00
    9    5   32     -5.78      0.00
   11    5   32      4.93      0.00
   13    5   32      9.05      0.00
   15    5   32     -6.70      0.00
   17    5   32     -0.66      0.00
   19    5   32     -3.79      0.00
   21    5   32    -13.84      0.00
   23    5   32     10.92      0.00
   25    5   32      1.53      0.00
   27    5   32      0.95      0.00
    0    6   32    -22.63      0.00
    2    6   32     -8.26      0.00
    4    6   32     -2.20      0.00
    6    6   32     17.03      0.00
    8    6   32    -11.80      0.00
   10    6   32    -10.41      0.00
   12    6   32      3.68      0.00
   14    6   32     -0.41      0.00
   16    6   32      7.85      0.00
   18    6   32     -9.09      0.00
   20    6   32      0.20      0.00
   22    6   32      0.28      0.00
   24    6   32    -10.30      0.00
   26    6   32     28.98      0.00
   28    6   32      4.39      0.00
    1    7   32      2.35      0.00
    3    7   32      0.24      0.00
    5    7   32      5.45      0.00
    7    7   32    -11.16      0.00
    9    7   32     -0.29      0.00
   11    7   32     -6.98      0.00
   13    7   32     -2.71      0.00
   15    7   32      5.61      0.00
   17    7   32     -5.79      0.00
   19    7   32     -8.43      0.00
   21    7   32     -9.26      0.00
   23    7   32     -9.28      0.00
   25    7   32     -7.18      0.00
   27    7   32      5.90      0.00
    0    8   32      4.25      0.00
    2    8   32     -4.73      0.00
    4    8   32      5.71      0.00
    6    8   32     -3.51      0.00
    8    8   32     -9.44      0.00
   10    8   32      6.49      0.00
   12    8   32      3.33      0.00
   14    8   32    -12.09      0.00
   16    8   32     11.26      0.00
   18    8   32      9.90      0.00
   20    8   32     10.70      0.00
   22    8   32     -8.73      0.00
   24    8   32     -0.27      0.00
   26    8   32      7.91      0.00
    1    9   32      4.44      0.00
    3    9   32      1.05      0.00
    5    9   32     -5.45      0.00
    7    9   32     -0.15      0.00
    9    9   32     19.30      0.00
   11    9   32      0.16      0.00
   13    9   32     -9.40      0.00
   15    9   32     -3.52      0.00
   17    9   32    -11.77      0.00
   19    9   32      8.81      0.00
   21    9   32      2.50      0.00
   23    9   32      3.57      0.00
   25    9   32     14.66      0.00
   27    9   32      5.68      0.00
    0   10   32     -2.52      0.00
    2   10   32     -3.42      0.00
    4   10   32      2.08      0.00
    6   10   32     -5.47      0.00
    8   10   32     -8.23      0.00
   10   10   32     -3.22      0.00
   12   10   32     10.24      0.00
   14   10   32     13.00      0.00
   16   10   32     -2.65      0.00
   18   10   32      8.11      0.00
   20   10   32     -1.56      0.00
   22   10   32     14.76      0.00
   24   10   32      1.89      0.00
   26   10   32     -1.53      0.00
    1   11   32     -3.28      0.00
    3   11   32      9.39      0.00
    5   11   32     -8.60      0.00
    7   11   32     10.44      0.00
    9   11   32     -3.50      0.00
   11   11   32     14.45      0.00
   13   11   32      6.02      0.00
   15   11   32    -11.21      0.00
   17   11   32     -3.33      0.00
   19   11   32      4.62      0.00
   21   11   32      7.09      0.00
   23   11   32      4.25      0.00
   25   11   32     -0.49      0.00
    0   12   32    -17.41      0.00
    2   12   32      0.25      0.00
    4   12   32      2.87      0.00
    6   12   32      8.78      0.00
    8   12   32     -1.73      0.00
   10   12   32     -2.57      0.00
   12   12   32      2.27      0.00
   14   12   32     -5.07      0.00
   16   12   32      3.67      0.00
   18   12   32      3.87      0.00
   20   12   32      7.41      0.00
   22   12   32      1.97      0.00
   24   12   32     -5.07      0.00
   26   12   32      9.96      0.00
    1   13   32     -1.63      0.00
    3   13   32    -19.51      0.00
    5   13   32     -8.92      0.00
    7   13   32     -2.05      0.00
    9   13   32     13.12      0.00
   11   13   32     -0.58      0.00
   13   13   32     -2.29      0.00
   15   13   32     -8.23      0.00
   17   13   32      2.30      0.00
   19   13   32     -2.09      0.00
   21   13   32      7.08      0.00
   23   13   32     -2.30      0.00
   25   13   32     -2.35      0.00
    0   14   32     -1.13      0.00
    2   14   32      1.48      0.00
    4   14   32      9.74      0.00
    6   14   32      7.15      0.00
    8   14   32      0.39      0.00
   10   14   32      8.40      0.00
   12   14   32      6.14      0.00
   14   14   32     -0.53      0.00
   16   14   32      1.45      0.00
   18   14   32      6.85      0.00
   20   14   32    -17.36      0.00
   22   14   32     -9.92      0.00
   24   14   32     -3.28      0.00
    1   15   32     -2.44      0.00
    3   15   32     -5.49      0.00
    5   15   32      3.61      0.00
    7   15   32      2.46      0.00
    9   15   32      2.20      0.00
   11   15   32      2.86      0.00
   13   15   32     -7.63      0.00
   15   15   32      4.43      0.00
   17   15   32    -11.08      0.00
   19   15   32     -4.93      0.00
   21   15   32      0.94      0.00
   23   15   32     -3.57      0.00
    0   16   32    -21.23      0.00
    2   16   32      4.21      0.00
    4   16   32     14.18      0.00
    6   16   32     -7.98      0.00
    8   16   32    -11.94      0.00
   10   16   32     -7.42      0.00
   12   16   32      6.01      0.00
   14   16   32     -2.69      0.00
   16   16   32      4.70      0.00
   18   16   32     -4.23      0.00
   20   16   32     -1.98      0.00
   22   16   32    -21.49      0.00
   24   16   32      1.62      0.00
    1   17   32      8.88      0.00
    3   17   32      0.25      0.00
    5   17   32     -2.97      0.00
    7   17   32     12.38      0.00
    9   17   32     17.39      0.00
   11   17   32      2.75      0.00
   13   17   32      3.50      0.00
   15   17   32     11.52      0.00
   17   17   32      5.88      0.00
   19   17   32     -2.01      0.00
   21   17   32      2.06      0.00
   23   17   32    -14.13      0.00
    0   18   32    -10.44      0.00
    2   18   32     -1.31      0.00
    4   18   32     -3.63      0.00
    6   18   32    -11.52      0.00
    8   18   32     -4.55      0.00
   10   18   32     -6.90      0.00
   12   18   32    -17.63      0.00
   14   18   32     -7.93      0.00
   16   18   32      0.01      0.00
   18   18   32      8.65      0.00
   20   18   32      8.32      0.00
   22   18   32     -4.49      0.00
    1   19   32    -10.29      0.00
    3   19   32     -2.89      0.00
    5   19   32     -4.32      0.00
    7   19   32      4.24      0.00
    9   19   32      4.09      0.00
   11   19   32      2.94      0.00
   13   19   32      9.69      0.00
   15   19   32     -0.15      0.00
   17   19   32     -2.17      0.00
   19   19   32     23.37      0.00
   21   19   32      3.74      0.00
    0   20   32      2.83      0.00
    2   20   32     12.00      0.00
    4   20   32     -4.60      0.00
    6   20   32    -15.10      0.00
    8   20   32      6.78      0.00
   10   20   32     -8.51      0.00
   12   20   32      3.69      0.00
   14   20   32      1.74      0.00
   16   20   32     -4.16      0.00
   18   20   32      0.81      0.00
   20   20   32     -2.93      0.00
    1   21   32    -10.29      0.00
    3   21   32    -11.37      0.00
    5   21   32     -2.09      0.00
    7   21   32     -1.29      0.00
    9   21   32     -7.98      0.00
   11   21   32      0.73      0.00
   13   21   32      7.92      0.00
   15   21   32     -6.45      0.00
   17   21   32     -3.21      0.00
   19   21   32     13.24      0.00
    0   22   32     -6.60      0.00
    2   22   32      4.35      0.00
    4   22   32     14.41      0.00
    6   22   32     11.60      0.00
    8   22   32    -13.20      0.00
   10   22   32     -8.86      0.00
   12   22   32     -0.10      0.00
   14   22   32     -6.96      0.00
   16   22   32     -0.57      0.00
   18   22   32      6.11      0.00
    1   23   32      8.32      0.00
    3   23   32     -6.92      0.00
    5   23   32     -4.03      0.00
    7   23   32    -12.51      0.00
    9   23   32    -11.29      0.00
   11   23   32     -5.20      0.00
   13   23   32      7.90      0.00
   15   23   32     13.03      0.00
   17   23   32     -9.89      0.00
    0   24   32     13.86      0.00
    2   24   32     -9.28      0.00
    4   24   32     -7.57      0.00
    6   24   32     -0.80      0.00
    8   24   32     -8.32      0.00
   10   24   32     10.70      0.00
   12   24   32      9.08      0.00
   14   24   32     -4.44      0.00
   16   24   32      4.46      0.00
    1   25   32     -5.27      0.00
    3   25   32     -1.46      0.00
    5   25   32     -2.92      0.00
    7   25   32      4.52      0.00
    9   25   32     15.92      0.00
   11   25   32      8.94      0.00
   13   25   32     -3.39      0.00
    0   26   32      2.78      0.00
    2   26   32      0.23      0.00
    4   26   32    -13.12      0.00
    6   26   32      3.05      0.00
    8   26   32      6.79      0.00
   10   26   32      4.76      0.00
   12   26   32     -1.24      0.00
    1   27   32     -5.53      0.00
    3   27   32     -3.37      0.00
    5   27   32    -10.60      0.00
    7   27   32      2.47      0.00
    9   27   32      7.98      0.00
    0   28   32     13.75      0.00
    2   28   32      5.57      0.00
    4   28   32     13.64      0.00
    6   28   32      1.71      0.00
    2    1   33     -2.87      0.00
    4    1   33     -2.04      0.00
    6    1   33     -2.38      0.00
    8    1   33      5.82      0.00
   10    1   33     -0.65      0.00
   12    1   33      7.44      0.00
   14    1   33     13.81      0.00
   16    1   33     -3.04      0.00
   18    1   33     -0.39      0.00
   20    1   33     -5.35      0.00
   22    1   33      3.40      0.00
   24    1   33    -11.37      0.00
   26    1   33    -13.56      0.00
    1    2   33    -12.91      0.00
    3    2   33      9.28      0.00
    5    2   33     -3.14      0.00
    7    2   33     -5.54      0.00
    9    2   33      5.91      0.00
   11    2   33    -14.18      0.00
   13    2   33      0.19      0.00
   15    2   33     -0.55      0.00
   17    2   33     -3.54      0.00
   19    2   33      2.26      0.00
   21    2   33     -3.87      0.00
   23    2   33      3.25      0.00
   25    2   33    -21.76      0.00
   27    2   33      0.76      0.00
    2    3   33     -9.04      0.00
    4    3   33     -3.74      0.00
    6    3   33      8.30      0.00
    8    3   33      4.40      0.00
   10    3   33     -3.34      0.00
   12    3   33      3.71      0.00
   14    3   33      3.23      0.00
   16    3   33     -1.15      0.00
   18    3   33     -3.41      0.00
   20    3   33     14.01      0.00
   22    3   33    -11.36      0.00
   24    3   33      3.06      0.00
   26    3   33     -4.02      0.00
    1    4   33      2.50      0.00
    3    4   33      2.02      0.00
    5    4   33     -6.89      0.00
    7    4   33      0.18      0.00
    9    4   33      5.50      0.00
   11    4   33      4.21      0.00
   13    4   33     -4.19      0.00
   15    4   33     -1.63      0.00
   17    4   33      2.52      0.00
   19    4   33     -5.72      0.00
   21    4   33     11.23      0.00
   23    4   33      6.38      0.00
   25    4   33    -13.91      0.00
   27    4   33      6.22      0.00
    2    5   33     -0.55      0.00
    4    5   33      7.97      0.00
    6    5   33      5.07      0.00
    8    5   33    -16.86      0.00
   10    5   33     -2.35      0.00
   12    5   33     10.71      0.00
   14    5   33     -0.97      0.00
   16    5   33      5.57      0.00
   18    5   33     10.71      0.00
   20    5   33      4.90      0.00
   22    5   33      7.89      0.00
   24    5   33     11.21      0.00
   26    5   33     12.61      0.00
    1    6   33     -5.19      0.00
    3    6   33    -11.56      0.00
    5    6   33      9.01      0.00
    7    6   33      0.05      0.00
    9    6   33     -5.70      0.00
   11    6   33     -0.78      0.00
   13    6   33    -12.55      0.00
   15    6   33     -4.49      0.00
   17    6   33      5.93      0.00
   19    6   33     -7.29      0.00
   21    6   33      5.29      0.00
   23    6   33     -4.25      0.00
   25    6   33      7.38      0.00
   27    6   33     15.88      0.00
    2    7   33     -7.26      0.00
    4    7   33     -2.00      0.00
    6    7   33     15.76      0.00
    8    7   33      3.87      0.00
   10    7   33     15.46      0.00
   12    7   33      8.21      0.00
   14    7   33     -0.28      0.00
   16    7   33     12.70      0.00
   18    7   33     -2.09      0.00
   20    7   33     -0.81      0.00
   22    7   33     11.76      0.00
   24    7   33      3.13      0.00
   26    7   33      9.28      0.00
    1    8   33     -4.71      0.00
    3    8   33    -13.66      0.00
    5    8   33     -1.21      0.00
    7    8   33     -9.37      0.00
    9    8   33     -2.36      0.00
   11    8   33     -4.54      0.00
   13    8   33     -6.97      0.00
   15    8   33      3.47      0.00
   17    8   33    -14.24      0.00
   19    8   33      3.81      0.00
   21    8   33      6.27      0.00
   23    8   33     11.66      0.00
   25    8   33     -0.04      0.00
    2    9   33      3.96      0.00
    4    9   33     11.16      0.00
    6    9   33      3.15      0.00
    8    9   33      3.28      0.00
   10    9   33     -6.46      0.00
   12    9   33      9.05      0.00
   14    9   33      8.45      0.00
   16    9   33     -9.10      0.00
   18    9   33     -7.80      0.00
   20    9   33     12.08      0.00
   22    9   33     12.45      0.00
   24    9   33     -3.31      0.00
   26    9   33      1.58      0.00
    1   10   33     -0.44      0.00
    3   10   33      8.30      0.00
    5   10   33     -0.82      0.00
    7   10   33     -3.25      0.00
    9   10   33     -0.54      0.00
   11   10   33     -4.38      0.00
   13   10   33     -5.00      0.00
   15   10   33     -1.51      0.00
   17   10   33     -1.00      0.00
   19   10   33      4.53      0.00
   21   10   33      6.91      0.00
   23   10   33     -1.42      0.00
   25   10   33    -12.93      0.00
    2   11   33     -1.71      0.00
    4   11   33    -14.49      0.00
    6   11   33      5.05      0.00
    8   11   33      3.73      0.00
   10   11   33     -8.34      0.00
   12   11   33     -2.75      0.00
   14   11   33     -6.68      0.00
   16   11   33     10.16      0.00
   18   11   33      9.05      0.00
   20   11   33     -3.62      0.00
   22   11   33      2.26      0.00
   24   11   33     -9.08      0.00
    1   12   33     -7.56      0.00
    3   12   33     -7.06      0.00
    5   12   33      1.10      0.00
    7   12   33     12.86      0.00
    9   12   33     -2.82      0.00
   11   12   33     -9.21      0.00
   13   12   33     -4.15      0.00
   15   12   33      5.19      0.00
   17   12   33     16.07      0.00
   19   12   33      2.85      0.00
   21   12   33    -12.55      0.00
   23   12   33     -9.80      0.00
    2   13   33     -0.56      0.00
    4   13   33     -4.05      0.00
    6   13   33      2.33      0.00
    8   13   33     -3.72      0.00
   10   13   33      9.27      0.00
   12   13   33     10.53      0.00
   14   13   33     -7.94      0.00
   16   13   33      4.37      0.00
   18   13   33      4.26      0.00
   20   13   33      4.24      0.00
   22   13   33      6.25      0.00
   24   13   33      3.04      0.00
    1   14   33     -8.16      0.00
    3   14   33    -16.35      0.00
    5   14   33     -7.98      0.00
    7   14   33     -0.65      0.00
    9   14   33     -5.15      0.00
   11   14   33      1.17      0.00
   13   14   33     -7.93      0.00
   15   14   33     -5.97      0.00
   17   14   33     -2.18      0.00
   19   14   33      3.74      0.00
   21   14   33     13.32      0.00
   23   14   33    -11.77      0.00
    2   15   33     -2.69      0.00
    4   15   33      3.72      0.00
    6   15   33     -1.98      0.00
    8   15   33      5.88      0.00
   10   15   33      2.18      0.00
   12   15   33     -0.57      0.00
   14   15   33    -10.84      0.00
   16   15   33      4.18      0.00
   18   15   33      8.00      0.00
   20   15   33      2.78      0.00
   22   15   33      7.95      0.00
    1   16   33     -1.22      0.00
    3   16   33      0.84      0.00
    5   16   33      9.34      0.00
    7   16   33      1.03      0.00
    9   16   33     -5.78      0.00
   11   16   33     -8.85      0.00
   13   16   33      4.58      0.00
   15   16   33     -4.24      0.00
   17   16   33     -9.92      0.00
   19   16   33     -4.61      0.00
   21   16   33      5.78      0.00
    2   17   33    -15.90      0.00
    4   17   33    -13.52      0.00
    6   17   33      1.85      0.00
    8   17   33      3.26      0.00
   10   17   33      5.90      0.00
   12   17   33     -7.40      0.00
   14   17   33      1.34      0.00
   16   17   33     -5.41      0.00
   18   17   33    -11.55      0.00
   20   17   33      2.67      0.00
    1   18   33      8.20      0.00
    3   18   33      5.39      0.00
    5   18   33      0.75      0.00
    7   18   33      3.87      0.00
    9   18   33      7.92      0.00
   11   18   33     -0.19      0.00
   13   18   33     -1.00      0.00
   15   18   33      7.01      0.00
   17   18   33     -1.67      0.00
   19   18   33      4.95      0.00
   21   18   33    -22.57      0.00
    2   19   33      3.54      0.00
    4   19   33      9.20      0.00
    6   19   33      3.58      0.00
    8   19   33     -8.90      0.00
   10   19   33     -4.80      0.00
   12   19   33      1.78      0.00
   14   19   33     -0.41      0.00
   16   19   33     -6.22      0.00
   18   19   33    -17.92      0.00
   20   19   33      2.63      0.00
    1   20   33     -4.52      0.00
    3   20   33    -11.05      0.00
    5   20   33     -2.84      0.00
    7   20   33     -0.35      0.00
    9   20   33     -5.46      0.00
   11   20   33      0.29      0.00
   13   20   33     12.98      0.00
   15   20   33     -6.29      0.00
   17   20   33      7.98      0.00
   19   20   33     16.69      0.00
    2   21   33     -0.33      0.00
    4   21   33     -1.61      0.00
    6   21   33      3.30      0.00
    8   21   33     -6.23      0.00
   10   21   33      6.13      0.00
   12   21   33    -10.31      0.00
   14   21   33    -10.64      0.00
   16   21   33     11.45      0.00
   18   21   33      9.81      0.00
    1   22   33      2.03      0.00
    3   22   33     -5.44      0.00
    5   22   33     -9.19      0.00
    7   22   33      5.07      0.00
    9   22   33     -7.59      0.00
   11   22   33      3.42      0.00
   13   22   33     -2.21      0.00
   15   22   33     -4.60      0.00
    2   23   33     -1.45      0.00
    4   23   33      3.83      0.00
    6   23   33     -5.52      0.00
    8   23   33     -3.29      0.00
   10   23   33     10.54      0.00
   12   23   33     13.85      0.00
   14   23   33     -4.45      0.00
    1   24   33     -0.42      0.00
    3   24   33     13.33      0.00
    5   24   33      3.02      0.00
    7   24   33     -6.86      0.00
    9   24   33      6.27      0.00
   11   24   33      1.97      0.00
   13   24   33     -6.17      0.00
    2   25   33      7.85      0.00
    4   25   33      3.34      0.00
    6   25   33      3.73      0.00
    8   25   33     -2.07      0.00
   10   25   33     -3.50      0.00
   12   25   33     10.25      0.00
    1   26   33    -10.16      0.00
    3   26   33    -11.73      0.00
    5   26   33      0.77      0.00
    7   26   33     -6.70      0.00
    9   26   33      8.06      0.00
    2   27   33     -3.73      0.00
    4   27   33      4.26      0.00
    6   27   33      6.77      0.00
    0    0   34     20.70      0.00
    2    0   34     -3.09      0.00
    4    0   34      3.67      0.00
    6    0   34     12.92      0.00
    8    0   34    -18.91      0.00
   10    0   34     -5.10      0.00
   12    0   34     -9.77      0.00
   14    0   34      4.35      0.00
   16    0   34     -2.51      0.00
   18    0   34     -6.08      0.00
   20    0   34     10.90      0.00
   22    0   34    -10.10      0.00
   24    0   34      8.05      0.00
   26    0   34      2.27      0.00
    1    1   34     10.93      0.00
    3    1   34      4.16      0.00
    5    1   34      1.42      0.00
    7    1   34      2.65      0.00
    9    1   34     10.21      0.00
   11    1   34    -11.63      0.00
   13    1   34      4.47      0.00
   15    1   34      7.48      0.00
   17    1   34      7.05      0.00
   19    1   34     -1.07      0.00
   21    1   34     -1.73      0.00
   23    1   34     -9.78      0.00
   25    1   34      8.20      0.00
    0    2   34      2.60      0.00
    2    2   34     -2.84      0.00
    4    2   34      2.89      0.00
    6    2   34     -3.81      0.00
    8    2   34      1.70      0.00
   10    2   34      6.47      0.00
   12    2   34      2.74      0.00
   14    2   34    -12.49      0.00
   16    2   34     -1.60      0.00
   18    2   34     -3.56      0.00
   20    2   34      6.04      0.00
   22    2   34     -3.53      0.00
   24    2   34      0.53      0.00
   26    2   34     -5.45      0.00
    1    3   34      4.13      0.00
    3    3   34      5.64      0.00
    5    3   34     -4.75      0.00
    7    3   34     -2.77      0.00
    9    3   34      4.59      0.00
   11    3   34      0.85      0.00
   13    3   34      1.06      0.00
   15    3   34     -1.03      0.00
   17    3   34     -7.44      0.00
   19    3   34      6.55      0.00
   21    3   34     -4.42      0.00
   23    3   34     -3.42      0.00
   25    3   34      8.52      0.00
    0    4   34    -10.99      0.00
    2    4   34      8.94      0.00
    4    4   34     -7.94      0.00
    6    4   34     -2.86      0.00
    8    4   34      0.65      0.00
   10    4   34      6.92      0.00
   12    4   34      6.67      0.00
   14    4   34     -2.07      0.00
   16    4   34    -11.03      0.00
   18    4   34     -3.85      0.00
   20    4   34     -8.88      0.00
   22    4   34      8.63      0.00
   24    4   34     -7.56      0.00
   26    4   34     -2.56      0.00
    1    5   34    -28.06      0.00
    3    5   34      5.72      0.00
    5    5   34     -1.00      0.00
    7    5   34      1.17      0.00
    9    5   34     -2.82      0.00
   11    5   34     -8.00      0.00
   13    5   34      6.23      0.00
   15    5   34      5.24      0.00
   17    5   34      0.57      0.00
   19    5   34      1.16      0.00
   21    5   34     -9.92      0.00
   23    5   34     10.22      0.00
   25    5   34      5.80      0.00
    0    6   34    -11.81      0.00
    2    6   34      2.58      0.00
    4    6   34      6.17      0.00
    6    6   34     -4.10      0.00
    8    6   34    -13.05      0.00
   10    6   34     -7.26      0.00
   12    6   34     -3.25      0.00
   14    6   34     -5.60      0.00
   16    6   34      4.15      0.00
   18    6   34     -4.72      0.00
   20    6   34      0.47      0.00
   22    6   34     -8.63      0.00
   24    6   34     -0.52      0.00
    1    7   34     -4.69      0.00
    3    7   34      5.17      0.00
    5    7   34    -11.76      0.00
    7    7   34     -1.66      0.00
    9    7   34     15.99      0.00
   11    7   34      9.16      0.00
   13    7   34      3.07      0.00
   15    7   34     13.13      0.00
   17    7   34     -0.36      0.00
   19    7   34     -6.43      0.00
   21    7   34      2.09      0.00
   23    7   34     -7.74      0.00
   25    7   34     -0.33      0.00
    0    8   34    -25.16      0.00
    2    8   34    -12.88      0.00
    4    8   34      1.06      0.00
    6    8   34     -1.25      0.00
    8    8   34     -4.88      0.00
   10    8   34     -0.62      0.00
   12    8   34     -4.53      0.00
   14    8   34    -11.80      0.00
   16    8   34     -2.07      0.00
   18    8   34      7.78      0.00
   20    8   34     11.14      0.00
   22    8   34      7.64      0.00
   24    8   34      7.07      0.00
    1    9   34     -7.53      0.00
    3    9   34      9.57      0.00
    5    9   34     -1.31      0.00
    7    9   34     -5.19      0.00
    9    9   34     -2.54      0.00
   11    9   34      0.76      0.00
   13    9   34     10.81      0.00
   15    9   34      4.13      0.00
   17    9   34     -3.59      0.00
   19    9   34      3.36      0.00
   21    9   34     -1.32      0.00
   23    9   34     -4.23      0.00
    0   10   34      9.69      0.00
    2   10   34     -6.77      0.00
    4   10   34      9.34      0.00
    6   10   34     -4.90      0.00
    8   10   34     -9.63      0.00
   10   10   34     -5.17      0.00
   12   10   34      1.12      0.00
   14   10   34      6.60      0.00
   16   10   34     -9.27      0.00
   18   10   34     -1.48      0.00
   20   10   34     17.48      0.00
   22   10   34     -5.89      0.00
   24   10   34    -13.50      0.00
    1   11   34     -4.22      0.00
    3   11   34      0.33      0.00
    5   11   34      1.86      0.00
    7   11   34      1.15      0.00
    9   11   34      3.05      0.00
   11   11   34     -1.44      0.00
   13   11   34      5.67      0.00
   15   11   34     -4.56      0.00
   17   11   34      8.74      0.00
   19   11   34      5.47      0.00
   21   11   34     -1.14      0.00
   23   11   34     -7.05      0.00
    0   12   34     -2.04      0.00
    2   12   34      2.62      0.00
    4   12   34     -1.18      0.00
    6   12   34      1.17      0.00
    8   12   34      1.51      0.00
   10   12   34    -10.75      0.00
   12   12   34     -7.11      0.00
   14   12   34     -0.52      0.00
   16   12   34      7.68      0.00
   18   12   34     10.41      0.00
   20   12   34      1.03      0.00
   22   12   34     -4.84      0.00
    1   13   34     -1.51      0.00
    3   13   34     -9.58      0.00
    5   13   34     -0.54      0.00
    7   13   34      6.83      0.00
    9   13   34      5.08      0.00
   11   13   34     18.29      0.00
   13   13   34     -0.10      0.00
   15   13   34     14.07      0.00
   17   13   34      6.13      0.00
   19   13   34     -5.88      0.00
   21   13   34      1.64      0.00
   23   13   34      0.24      0.00
    0   14   34    -17.11      0.00
    2   14   34      3.67      0.00
    4   14   34     10.61      0.00
    6   14   34     13.83      0.00
    8   14   34     -1.24      0.00
   10   14   34     -8.48      0.00
   12   14   34     -4.44      0.00
   14   14   34      4.82      0.00
   16   14   34      9.10      0.00
   18   14   34     -8.71      0.00
   20   14   34     -2.73      0.00
   22   14   34      0.99      0.00
    1   15   34     -3.17      0.00
    3   15   34      1.97      0.00
    5   15   34      5.41      0.00
    7   15   34      0.34      0.00
    9   15   34     -2.73      0.00
   11   15   34      1.34      0.00
   13   15   34     -0.71      0.00
   15   15   34      7.09      0.00
   17   15   34      6.60      0.00
   19   15   34     -6.83      0.00
   21   15   34      7.21      0.00
    0   16   34    -12.81      0.00
    2   16   34     -0.58      0.00
    4   16   34     10.10      0.00
    6   16   34     14.11      0.00
    8   16   34     -5.53      0.00
   10   16   34      8.45      0.00
   12   16   34     -9.67      0.00
   14   16   34    -11.90      0.00
   16   16   34      9.78      0.00
   18   16   34      5.94      0.00
   20   16   34      6.42      0.00
    1   17   34    -10.04      0.00
    3   17   34     -7.52      0.00
    5   17   34     -2.72      0.00
    7   17   34      5.27      0.00
    9   17   34      7.91      0.00
   11   17   34      5.14      0.00
   13   17   34     -8.63      0.00
   15   17   34     -3.66      0.00
   17   17   34      8.28      0.00
   19   17   34     14.49      0.00
    0   18   34    -22.39      0.00
    2   18   34    -12.62      0.00
    4   18   34     -3.62      0.00
    6   18   34      2.49      0.00
    8   18   34     -0.09      0.00
   10   18   34     -3.96      0.00
   12   18   34     -8.23      0.00
   14   18   34    -10.17      0.00
   16   18   34     -1.51      0.00
   18   18   34      4.74      0.00
    1   19   34     -8.57      0.00
    3   19   34     -7.60      0.00
    5   19   34     -7.24      0.00
    7   19   34     -6.79      0.00
    9   19   34     -3.62      0.00
   11   19   34     -0.40      0.00
   13   19   34      9.05      0.00
   15   19   34     -0.27      0.00
   17   19   34     -0.47      0.00
    0   20   34     -2.50      0.00
    2   20   34     -6.68      0.00
    4   20   34     -3.87      0.00
    6   20   34    -13.29      0.00
    8   20   34      6.97      0.00
   10   20   34      1.20      0.00
   12   20   34     -8.27      0.00
   14   20   34      0.45      0.00
   16   20   34     -2.49      0.00
    1   21   34     -2.85      0.00
    3   21   34      5.21      0.00
    5   21   34      1.14      0.00
    7   21   34      0.29      0.00
    9   21   34      0.09      0.00
   11   21   34    -14.89      0.00
   13   21   34      1.43      0.00
   15   21   34      6.89      0.00
    0   22   34     12.96      0.00
    2   22   34      7.60      0.00
    4   22   34      4.35      0.00
    6   22   34     -8.74      0.00
    8   22   34     -4.96      0.00
   10   22   34     -0.27      0.00
   12   22   34      0.63      0.00
   14   22   34      0.16      0.00
    1   23   34     -5.41      0.00
    3   23   34     -2.96      0.00
    5   23   34    -11.13      0.00
    7   23   34      9.44      0.00
    9   23   34     22.10      0.00
   11   23   34     -0.47      0.00
   13   23   34      5.19      0.00
    0   24   34     18.04      0.00
    2   24   34     -0.92      0.00
    4   24   34     -8.19      0.00
    6   24   34     13.50      0.00
    8   24   34      3.65      0.00
   10   24   34     11.97      0.00
    1   25   34     -6.93      0.00
    3   25   34     -5.64      0.00
    5   25   34     -6.35      0.00
    7   25   34      1.08      0.00
    0   26   34     11.51      0.00
    2   26   34     -1.41      0.00
    4   26   34     -9.48      0.00
    2    1   35     -2.52      0.00
    4    1   35     -2.13      0.00
    6    1   35      8.14      0.00
    8    1   35    -12.04      0.00
   10    1   35     -4.13      0.00
   12    1   35      5.09      0.00
   14    1   35      3.97      0.00
   16    1   35     -1.99      0.00
   18    1   35     -0.31      0.00
   20    1   35      6.63      0.00
   22    1   35     -1.49      0.00
   24    1   35     -6.16      0.00
    1    2   35     -6.72      0.00
    3    2   35     -0.80      0.00
    5    2   35     -8.74      0.00
    7    2   35     -5.28      0.00
    9    2   35     -0.94      0.00
   11    2   35     -6.84      0.00
   13    2   35     10.68      0.00
   15    2   35      5.50      0.00
   17    2   35      5.04      0.00
   19    2   35      2.55      0.00
   21    2   35     -7.17      0.00
   23    2   35     31.05      0.00
   25    2   35     -6.88      0.00
    2    3   35     -6.58      0.00
    4    3   35     -0.02      0.00
    6    3   35     -2.39      0.00
    8    3   35      8.17      0.00
   10    3   35     -7.20      0.00
   12    3   35      9.81      0.00
   14    3   35      9.74      0.00
   16    3   35    -11.83      0.00
   18    3   35      1.06      0.00
   20    3   35      7.88      0.00
   22    3   35     -0.30      0.00
   24    3   35      6.43      0.00
    1    4   35      2.84      0.00
    3    4   35      3.82      0.00
    5    4   35    -12.48      0.00
    7    4   35      3.57      0.00
    9    4   35      2.81      0.00
   11    4   35     -8.28      0.00
   13    4   35      1.48      0.00
   15    4   35     11.03      0.00
   17    4   35      0.68      0.00
   19    4   35      3.89      0.00
   21    4   35     15.04      0.00
   23    4   35     11.10      0.00
    2    5   35      6.79      0.00
    4    5   35      0.77      0.00
    6    5   35     -0.71      0.00
    8    5   35      1.84      0.00
   10    5   35     -9.39      0.00
   12    5   35     -5.76      0.00
   14    5   35      4.98      0.00
   16    5   35      4.39      0.00
   18    5   35      5.71      0.00
   20    5   35      1.87      0.00
   22    5   35      3.49      0.00
   24    5   35     -2.86      0.00
    1    6   35      0.68      0.00
    3    6   35     -4.87      0.00
    5    6   35     -0.93      0.00
    7    6   35      6.26      0.00
    9    6   35     11.62      0.00
   11    6   35      2.80      0.00
   13    6   35      2.78      0.00
   15    6   35     -9.31      0.00
   17    6   35    -15.16      0.00
   19    6   35      0.52      0.00
   21    6   35      2.47      0.00
   23    6   35      0.11      0.00
    2    7   35      3.19      0.00
    4    7   35     -3.89      0.00
    6    7   35      2.30      0.00
    8    7   35      0.59      0.00
   10    7   35      1.06      0.00
   12    7   35      0.00      0.00
   14    7   35     -1.04      0.00
   16    7   35      5.26      0.00
   18    7   35     -4.41      0.00
   20    7   35      8.50      0.00
   22    7   35     13.74      0.00
   24    7   35     -6.77      0.00
    1    8   35     15.42      0.00
    3    8   35     -1.92      0.00
    5    8   35      5.09      0.00
    7    8   35     -7.67      0.00
    9    8   35     -5.18      0.00
   11    8   35      0.14      0.00
   13    8   35     -5.15      0.00
   15    8   35     -3.37      0.00
   17    8   35     -7.89      0.00
   19    8   35     -8.82      0.00
   21    8   35     10.11      0.00
   23    8   35      9.71      0.00
    2    9   35     12.84      0.00
    4    9   35      8.01      0.00
    6    9   35      1.08      0.00
    8    9   35    -19.31      0.00
   10    9   35      2.78      0.00
   12    9   35     -2.61      0.00
   14    9   35      9.75      0.00
   16    9   35     -0.73      0.00
   18    9   35     -5.34      0.00
   20    9   35      4.50      0.00
   22    9   35     -7.29      0.00
    1   10   35     -1.64      0.00
    3   10   35     -7.94      0.00
    5   10   35     -7.73      0.00
    7   10   35      1.70      0.00
    9   10   35      1.93      0.00
   11   10   35     -3.02      0.00
   13   10   35     -5.81      0.00
   15   10   35      5.52      0.00
   17   10   35      1.07      0.00
   19   10   35      0.72      0.00
   21   10   35     -8.46      0.00
   23   10   35      2.96      0.00
    2   11   35    -10.25      0.00
    4   11   35     -8.95      0.00
    6   11   35     -4.83      0.00
    8   11   35     -2.08      0.00
   10   11   35     -1.70      0.00
   12   11   35      6.76      0.00
   14   11   35     -3.51      0.00
   16   11   35      8.35      0.00
   18   11   35     11.50      0.00
   20   11   35     -7.55      0.00
   22   11   35    -16.38      0.00
    1   12   35     -3.51      0.00
    3   12   35      2.81      0.00
    5   12   35     -1.07      0.00
    7   12   35      3.14      0.00
    9   12   35     -4.78      0.00
   11   12   35     -2.04      0.00
   13   12   35      1.23      0.00
   15   12   35     -0.88      0.00
   17   12   35     -8.10      0.00
   19   12   35     -4.83      0.00
   21   12   35      4.37      0.00
    2   13   35     -0.48      0.00
    4   13   35     -0.41      0.00
    6   13   35     -3.20      0.00
    8   13   35     -6.94      0.00
   10   13   35      0.13      0.00
   12   13   35     18.05      0.00
   14   13   35     -4.92      0.00
   16   13   35     -4.74      0.00
   18   13   35      4.58      0.00
   20   13   35      7.22      0.00
    1   14   35      2.31      0.00
    3   14   35     -5.57      0.00
    5   14   35     -2.35      0.00
    7   14   35     11.31      0.00
    9   14   35    -11.80      0.00
   11   14   35    -10.63      0.00
   13   14   35    -16.55      0.00
   15   14   35     -9.27      0.00
   17   14   35     -4.24      0.00
   19   14   35      2.61      0.00
    2   15   35      5.91      0.00
    4   15   35     18.89      0.00
    6   15   35     16.96      0.00
    8   15   35    -17.61      0.00
   10   15   35     -0.97      0.00
   12   15   35     -4.94      0.00
   14   15   35     13.36      0.00
   16   15   35      6.00      0.00
   18   15   35     -7.28      0.00
   20   15   35      8.25      0.00
    1   16   35      2.07      0.00
    3   16   35     -0.73      0.00
    5   16   35     -2.71      0.00
    7   16   35      3.74      0.00
    9   16   35     -7.47      0.00
   11   16   35     -5.03      0.00
   13   16   35      6.79      0.00
   15   16   35      0.05      0.00
   17   16   35     -8.05      0.00
   19   16   35     -7.44      0.00
    2   17   35      3.15      0.00
    4   17   35      6.60      0.00
    6   17   35     -1.82      0.00
    8   17   35     -1.88      0.00
   10   17   35     -2.17      0.00
   12   17   35     -9.72      0.00
   14   17   35      5.20      0.00
   16   17   35     14.84      0.00
   18   17   35    -10.39      0.00
    1   18   35     17.34      0.00
    3   18   35     11.35      0.00
    5   18   35      8.65      0.00
    7   18   35     -8.56      0.00
    9   18   35      2.01      0.00
   11   18   35     -6.88      0.00
   13   18   35     -2.20      0.00
   15   18   35      1.81      0.00
   17   18   35      5.63      0.00
    2   19   35      2.03      0.00
    4   19   35      6.36      0.00
    6   19   35      5.65      0.00
    8   19   35     -6.61      0.00
   10   19   35     -3.42      0.00
   12   19   35    -12.15      0.00
   14   19   35      4.33      0.00
   16   19   35      0.93      0.00
    1   20   35      0.23      0.00
    3   20   35     -5.97      0.00
    5   20   35     -1.83      0.00
    7   20   35      2.36      0.00
    9   20   35    -10.73      0.00
   11   20   35     -9.17      0.00
   13   20   35     -1.43      0.00
   15   20   35      4.85      0.00
    2   21   35     -8.31      0.00
    4   21   35      2.51      0.00
    6   21   35      5.51      0.00
    8   21   35      7.47      0.00
   10   21   35     -4.64      0.00
   12   21   35     -7.37      0.00
    1   22   35      2.66      0.00
    3   22   35      1.36      0.00
    5   22   35     -5.44      0.00
    7   22   35      5.12      0.00
    9   22   35    -13.34      0.00
   11   22   35     -3.58      0.00
    2   23   35     -0.84      0.00
    4   23   35     -3.10      0.00
    6   23   35      2.36      0.00
    8   23   35     -7.36      0.00
   10   23   35    -12.96      0.00
    1   24   35      4.02      0.00
    3   24   35      1.67      0.00
    5   24   35     -4.84      0.00
    7   24   35      0.98      0.00
    2   25   35    -17.43      0.00
    0    0   36     25.37      0.00
    2    0   36      6.50      0.00
    4    0   36      4.91      0.00
    6    0   36     -4.06      0.00
    8    0   36     -9.84      0.00
   10    0   36      3.44      0.00
   12    0   36      1.62      0.00
   14    0   36    -11.48      0.00
   16    0   36      7.58      0.00
   18    0   36      8.40      0.00
   20    0   36     -1.38      0.00
   22    0   36    -28.27      0.00
    1    1   36      2.29      0.00
    3    1   36    -10.04      0.00
    5    1   36      9.92      0.00
    7    1   36     12.67      0.00
    9    1   36     11.23      0.00
   11    1   36      7.21      0.00
   13    1   36      0.74      0.00
   15    1   36     11.49      0.00
   17    1   36    -11.74      0.00
   19    1   36     -2.27      0.00
   21    1   36      2.01      0.00
   23    1   36     -5.27      0.00
    0    2   36     -5.08      0.00
    2    2   36      3.42      0.00
    4    2   36      8.23      0.00
    6    2   36     -1.72      0.00
    8    2   36    -11.60      0.00
   10    2   36     11.39      0.00
   12    2   36      8.29      0.00
   14    2   36    -22.87      0.00
   16    2   36     -7.35      0.00
   18    2   36      6.63      0.00
   20    2   36     -2.76      0.00
   22    2   36      3.95      0.00
    1    3   36      2.13      0.00
    3    3   36     -3.52      0.00
    5    3   36      5.80      0.00
    7    3   36      2.46      0.00
    9    3   36      1.58      0.00
   11    3   36      3.68      0.00
   13    3   36      7.35      0.00
   15    3   36     -4.86      0.00
   17    3   36    -11.33      0.00
   19    3   36     -1.01      0.00
   21    3   36      6.29      0.00
   23    3   36    -11.74      0.00
    0    4   36      2.64      0.00
    2    4   36    -10.12      0.00
    4    4   36     -1.01      0.00
    6    4   36      4.55      0.00
    8    4   36     -6.12      0.00
   10    4   36      0.78      0.00
   12    4   36      4.36      0.00
   14    4   36     -1.83      0.00
   16    4   36      4.17      0.00
   18    4   36     -1.72      0.00
   20    4   36      3.51      0.00
   22    4   36      1.47      0.00
    1    5   36    -11.91      0.00
    3    5   36     -2.38      0.00
    5    5   36     -6.06      0.00
    7    5   36     -4.02      0.00
    9    5   36    -18.15      0.00
   11    5   36     -5.09      0.00
   13    5   36     -4.83      0.00
   15    5   36     -5.54      0.00
   17    5   36      4.09      0.00
   19    5   36      2.05      0.00
   21    5   36     -2.25      0.00
   23    5   36     -5.81      0.00
    0    6   36      6.62      0.00
    2    6   36      6.52      0.00
    4    6   36    -20.13      0.00
    6    6   36     -5.05      0.00
    8    6   36    -12.27      0.00
   10    6   36     -3.60      0.00
   12    6   36      6.46      0.00
   14    6   36     13.55      0.00
   16    6   36     -9.49      0.00
   18    6   36      3.69      0.00
   20    6   36     -0.07      0.00
   22    6   36    -14.37      0.00
    1    7   36     -8.46      0.00
    3    7   36     -2.01      0.00
    5    7   36     -3.61      0.00
    7    7   36      4.77      0.00
    9    7   36      2.06      0.00
   11    7   36      8.22      0.00
   13    7   36     -5.57      0.00
   15    7   36     -1.68      0.00
   17    7   36      5.12      0.00
   19    7   36      0.50      0.00
   21    7   36      4.88      0.00
    0    8   36    -15.97      0.00
    2    8   36     -8.35      0.00
    4    8   36      1.99      0.00
    6    8   36    -16.43      0.00
    8    8   36    -13.90      0.00
   10    8   36    -16.91      0.00
   12    8   36    -12.44      0.00
   14    8   36      3.77      0.00
   16    8   36     -3.29      0.00
   18    8   36      2.10      0.00
   20    8   36     18.74      0.00
   22    8   36     -6.44      0.00
    1    9   36     14.50      0.00
    3    9   36     21.25      0.00
    5    9   36      9.87      0.00
    7    9   36    -12.97      0.00
    9    9   36     -0.78      0.00
   11    9   36      5.62      0.00
   13    9   36      6.81      0.00
   15    9   36      2.49      0.00
   17    9   36     -3.38      0.00
   19    9   36      1.52      0.00
   21    9   36      8.52      0.00
    0   10   36      4.90      0.00
    2   10   36      2.25      0.00
    4   10   36      1.15      0.00
    6   10   36     -8.37      0.00
    8   10   36      5.20      0.00
   10   10   36     -1.21      0.00
   12   10   36    -10.85      0.00
   14   10   36     -3.43      0.00
   16   10   36     -2.01      0.00
   18   10   36      3.67      0.00
   20   10   36     13.35      0.00
    1   11   36     -1.94      0.00
    3   11   36     -4.96      0.00
    5   11   36      3.91      0.00
    7   11   36     -6.05      0.00
    9   11   36      2.14      0.00
   11   11   36    -10.74      0.00
   13   11   36      8.97      0.00
   15   11   36     11.77      0.00
   17   11   36      2.71      0.00
   19   11   36     10.55      0.00
    0   12   36     -6.63      0.00
    2   12   36      0.54      0.00
    4   12   36     10.62      0.00
    6   12   36     -0.18      0.00
    8   12   36      9.58      0.00
   10   12   36     13.72      0.00
   12   12   36      5.65      0.00
   14   12   36     -2.33      0.00
   16   12   36     -2.86      0.00
   18   12   36      1.28      0.00
   20   12   36     -2.07      0.00
    1   13   36    -12.04      0.00
    3   13   36     -8.74      0.00
    5   13   36      0.40      0.00
    7   13   36      4.48      0.00
    9   13   36     -4.20      0.00
   11   13   36      8.88      0.00
   13   13   36      6.15      0.00
   15   13   36      3.82      0.00
   17   13   36      0.78      0.00
   19   13   36      0.08      0.00
    0   14   36     -1.35      0.00
    2   14   36     -2.58      0.00
    4   14   36      9.32      0.00
    6   14   36      1.10      0.00
    8   14   36     -9.90      0.00
   10   14   36      1.56      0.00
   12   14   36     -9.09      0.00
   14   14   36      2.39      0.00
   16   14   36     -1.49      0.00
   18   14   36    -11.18      0.00
    1   15   36      7.26      0.00
    3   15   36      3.10      0.00
    5   15   36     -0.30      0.00
    7   15   36     -0.44      0.00
    9   15   36     -0.73      0.00
   11   15   36      7.21      0.00
   13   15   36     -3.85      0.00
   15   15   36     -0.20      0.00
   17   15   36     13.54      0.00
    0   16   36    -14.11      0.00
    2   16   36      0.53      0.00
    4   16   36     -5.37      0.00
    6   16   36     -6.23      0.00
    8   16   36    -11.87      0.00
   10   16   36      5.10      0.00
   12   16   36     -5.39      0.00
   14   16   36     -9.42      0.00
   16   16   36     -6.19      0.00
    1   17   36    -19.12      0.00
    3   17   36     -9.52      0.00
    5   17   36     -3.85      0.00
    7   17   36     -3.66      0.00
    9   17   36      5.92      0.00
   11   17   36      4.86      0.00
   13   17   36      9.20      0.00
   15   17   36      8.85      0.00
    0   18   36      3.76      0.00
    2   18   36      2.94      0.00
    4   18   36     -0.58      0.00
    6   18   36     -4.28      0.00
    8   18   36    -13.02      0.00
   10   18   36     -9.40      0.00
   12   18   36      3.76      0.00
   14   18   36      0.51      0.00
    1   19   36     -3.55      0.00
    3   19   36    -16.76      0.00
    5   19   36    -11.85      0.00
    7   19   36    -11.04      0.00
    9   19   36     -0.44      0.00
   11   19   36      9.40      0.00
   13   19   36      8.35      0.00
    0   20   36     15.80      0.00
    2   20   36      6.02      0.00
    4   20   36     10.12      0.00
    6   20   36      3.41      0.00
    8   20   36      5.19      0.00
   10   20   36     -1.23      0.00
   12   20   36      1.11      0.00
    1   21   36     15.78      0.00
    3   21   36      1.80      0.00
    5   21   36     -4.45      0.00
    7   21   36     -8.58      0.00
    9   21   36     -6.66      0.00
    0   22   36     -6.37      0.00
    2   22   36     -4.87      0.00
    4   22   36      4.30      0.00
    6   22   36      2.78      0.00
    8   22   36      1.06      0.00
    1   23   36      1.06      0.00
    3   23   36     -0.52      0.00
    5   23   36      0.45      0.00
    2    1   37      7.22      0.00
    4    1   37    -13.10      0.00
    6    1   37     -2.61      0.00
    8    1   37     -0.10      0.00
   10    1   37      0.89      0.00
   12    1   37     -3.75      0.00
   14    1   37      6.26      0.00
   16    1   37     21.02      0.00
   18    1   37    -12.10      0.00
   20    1   37      0.49      0.00
   22    1   37      8.58      0.00
    1    2   37     -3.00      0.00
    3    2   37     -9.87      0.00
    5    2   37      1.96      0.00
    7    2   37     -2.10      0.00
    9    2   37      1.03      0.00
   11    2   37     22.85      0.00
   13    2   37      0.31      0.00
   15    2   37      5.53      0.00
   17    2   37      5.73      0.00
   19    2   37     -7.55      0.00
   21    2   37    -10.15      0.00
    2    3   37    -11.26      0.00
    4    3   37      1.81      0.00
    6    3   37      6.85      0.00
    8    3   37      2.16      0.00
   10    3   37     -3.74      0.00
   12    3   37     -0.61      0.00
   14    3   37     12.36      0.00
   16    3   37     -2.27      0.00
   18    3   37      3.75      0.00
   20    3   37     -0.87      0.00
    1    4   37      2.41      0.00
    3    4   37     10.64      0.00
    5    4   37     -0.69      0.00
    7    4   37     -3.15      0.00
    9    4   37    -11.72      0.00
   11    4   37     -8.99      0.00
   13    4   37    -11.88      0.00
   15    4   37      8.70      0.00
   17    4   37      3.34      0.00
   19    4   37      7.33      0.00
   21    4   37     -0.90      0.00
    2    5   37     -3.15      0.00
    4    5   37     -3.26      0.00
    6    5   37     -8.26      0.00
    8    5   37     -1.43      0.00
   10    5   37      1.50      0.00
   12    5   37     18.95      0.00
   14    5   37      8.42      0.00
   16    5   37     -7.27      0.00
   18    5   37      1.05      0.00
   20    5   37     -6.73      0.00
    1    6   37     -6.35      0.00
    3    6   37    -10.63      0.00
    5    6   37    -12.26      0.00
    7    6   37     -9.80      0.00
    9    6   37      8.88      0.00
   11    6   37     -7.31      0.00
   13    6   37     -6.77      0.00
   15    6   37     -6.24      0.00
   17    6   37    -10.99      0.00
   19    6   37     -1.48      0.00
   21    6   37      7.87      0.00
    2    7   37     -7.19      0.00
    4    7   37     -2.29      0.00
    6    7   37      3.31      0.00
    8    7   37     -6.80      0.00
   10    7   37     -7.89      0.00
   12    7   37      0.62      0.00
   14    7   37     11.37      0.00
   16    7   37     -3.39      0.00
   18    7   37     10.31      0.00
   20    7   37      1.82      0.00
    1    8   37     11.28      0.00
    3    8   37      6.96      0.00
    5    8   37    -12.50      0.00
    7    8   37     -5.49      0.00
    9    8   37      8.01      0.00
   11    8   37      3.48      0.00
   13    8   37      4.97      0.00
   15    8   37     -7.38      0.00
   17    8   37    -13.55      0.00
   19    8   37     -7.71      0.00
    2    9   37      6.85      0.00
    4    9   37     -4.61      0.00
    6    9   37     -3.20      0.00
    8    9   37     -6.14      0.00
   10    9   37      3.54      0.00
   12    9   37     -5.64      0.00
   14    9   37     -4.21      0.00
   16    9   37      1.53      0.00
   18    9   37      6.88      0.00
   20    9   37      4.44      0.00
    1   10   37      7.13      0.00
    3   10   37     -6.99      0.00
    5   10   37     -6.30      0.00
    7   10   37      7.35      0.00
    9   10   37     17.43      0.00
   11   10   37      6.11      0.00
   13   10   37      6.54      0.00
   15   10   37      3.29      0.00
   17   10   37     -2.80      0.00
   19   10   37      4.31      0.00
    2   11   37      6.53      0.00
    4   11   37      3.97      0.00
    6   11   37     -6.20      0.00
    8   11   37     -0.18      0.00
   10   11   37     -4.41      0.00
   12   11   37     -0.38      0.00
   14   11   37      0.11      0.00
   16   11   37     -2.89      0.00
   18   11   37      1.41      0.00
    1   12   37      4.55      0.00
    3   12   37     -3.42      0.00
    5   12   37     -3.36      0.00
    7   12   37      1.16      0.00
    9   12   37     -4.13      0.00
   11   12   37     11.06      0.00
   13   12   37      7.36      0.00
   15   12   37      4.23      0.00
   17   12   37     -2.32      0.00
    2   13   37     -4.14      0.00
    4   13   37     13.49      0.00
    6   13   37     -2.86      0.00
    8   13   37      5.79      0.00
   10   13   37     -4.57      0.00
   12   13   37     -9.14      0.00
   14   13   37     -1.20      0.00
   16   13   37    -10.90      0.00
    1   14   37     -0.13      0.00
    3   14   37      9.93      0.00
    5   14   37     -2.46      0.00
    7   14   37      4.02      0.00
    9   14   37     -5.68      0.00
   11   14   37     -2.39      0.00
   13   14   37      2.86      0.00
   15   14   37     -4.10      0.00
   17   14   37     -0.93      0.00
    2   15   37     -3.44      0.00
    4   15   37      7.18      0.00
    6   15   37     -0.07      0.00
    8   15   37     -6.00      0.00
   10   15   37      2.69      0.00
   12   15   37      0.58      0.00
   14   15   37     10.56      0.00
   16   15   37      9.27      0.00
    1   16   37      6.54      0.00
    3   16   37      0.21      0.00
    5   16   37     -5.84      0.00
    7   16   37     -1.36      0.00
    9   16   37      4.80      0.00
   11   16   37     -4.36      0.00
   13   16   37      1.41      0.00
   15   16   37     -1.90      0.00
    2   17   37      3.00      0.00
    4   17   37     -5.21      0.00
    6   17   37      8.28      0.00
    8   17   37     -1.52      0.00
   10   17   37      5.17      0.00
   12   17   37     -6.49      0.00
   14   17   37     -0.21      0.00
    1   18   37      7.76      0.00
    3   18   37      0.78      0.00
    5   18   37      1.40      0.00
    7   18   37      0.89      0.00
    9   18   37     -3.98      0.00
   11   18   37     -3.98      0.00
    2   19   37      7.26      0.00
    4   19   37      1.31      0.00
    6   19   37      3.32      0.00
    8   19   37      4.98      0.00
   10   19   37      1.56      0.00
    1   20   37     -6.22      0.00
    3   20   37     -8.69      0.00
    5   20   37      1.47      0.00
    7   20   37     -3.72      0.00
    9   20   37     -1.02      0.00
    2   21   37     -2.28      0.00
    4   21   37      4.14      0.00
    6   21   37      5.18      0.00
    1   22   37     -7.48      0.00
    0    0   38     14.65      0.00
    2    0   38     10.18      0.00
    4    0   38      3.86      0.00
    6    0   38     12.32      0.00
    8    0   38      1.07      0.00
   10    0   38     -6.88      0.00
   12    0   38     21.54      0.00
   14    0   38      0.42      0.00
   16    0   38     -9.43      0.00
   18    0   38     15.34      0.00
   20    0   38     -1.86      0.00
    1    1   38      1.79      0.00
    3    1   38     -1.57      0.00
    5    1   38      8.90      0.00
    7    1   38      2.51      0.00
    9    1   38      7.56      0.00
   11    1   38      0.14      0.00
   13    1   38      3.14      0.00
   15    1   38      4.52      0.00
   17    1   38    -16.85      0.00
   19    1   38      6.13      0.00
    0    2   38      6.69      0.00
    2    2   38     -0.88      0.00
    4    2   38     14.96      0.00
    6    2   38     -2.62      0.00
    8    2   38     -4.87      0.00
   10    2   38      1.84      0.00
   12    2   38      7.97      0.00
   14    2   38    -12.18      0.00
   16    2   38    -16.27      0.00
   18    2   38     -2.98      0.00
   20    2   38     10.69      0.00
    1    3   38      0.59      0.00
    3    3   38      0.95      0.00
    5    3   38      4.36      0.00
    7    3   38     -5.67      0.00
    9    3   38      0.18      0.00
   11    3   38     -2.15      0.00
   13    3   38     -0.10      0.00
   15    3   38     19.83      0.00
   17    3   38     -9.43      0.00
   19    3   38      0.97      0.00
    0    4   38     -8.07      0.00
    2    4   38     -7.12      0.00
    4    4   38      2.32      0.00
    6    4   38      3.84      0.00
    8    4   38    -15.86      0.00
   10    4   38      6.41      0.00
   12    4   38      1.60      0.00
   14    4   38      7.09      0.00
   16    4   38     -8.15      0.00
   18    4   38    -11.03      0.00
    1    5   38     -6.86      0.00
    3    5   38     -7.42      0.00
    5    5   38     -4.71      0.00
    7    5   38     -7.85      0.00
    9    5   38     -6.95      0.00
   11    5   38      1.36      0.00
   13    5   38     -4.47      0.00
   15    5   38     -7.67      0.00
   17    5   38      7.72      0.00
   19    5   38     -2.95      0.00
    0    6   38     -3.42      0.00
    2    6   38     -8.90      0.00
    4    6   38     -1.40      0.00
    6    6   38     -2.98      0.00
    8    6   38     -1.75      0.00
   10    6   38     10.41      0.00
   12    6   38     17.25      0.00
   14    6   38     14.29      0.00
   16    6   38      0.54      0.00
   18    6   38      4.74      0.00
    1    7   38     -8.35      0.00
    3    7   38    -12.16      0.00
    5    7   38      3.91      0.00
    7    7   38      5.10      0.00
    9    7   38    -13.34      0.00
   11    7   38     -1.19      0.00
   13    7   38     -9.75      0.00
   15    7   38    -13.56      0.00
   17    7   38     11.57      0.00
   19    7   38     12.74      0.00
    0    8   38    -12.13      0.00
    2    8   38      1.32      0.00
    4    8   38     -6.71      0.00
    6    8   38     -3.64      0.00
    8    8   38     -2.72      0.00
   10    8   38     -2.77      0.00
   12    8   38      1.94      0.00
   14    8   38      0.68      0.00
   16    8   38      7.10      0.00
   18    8   38      8.46      0.00
    1    9   38      9.39      0.00
    3    9   38      0.02      0.00
    5    9   38     12.37      0.00
    7    9   38      5.55      0.00
    9    9   38      2.19      0.00
   11    9   38     -5.65      0.00
   13    9   38      0.11      0.00
   15    9   38    -13.36      0.00
   17    9   38     -4.64      0.00
    0   10   38     -1.43      0.00
    2   10   38     -6.51      0.00
    4   10   38    -16.91      0.00
    6   10   38     -6.47      0.00
    8   10   38     -2.96      0.00
   10   10   38     -8.43      0.00
   12   10   38    -10.60      0.00
   14   10   38     -4.48      0.00
   16   10   38     14.13      0.00
    1   11   38     -6.69      0.00
    3   11   38    -15.20      0.00
    5   11   38      6.01      0.00
    7   11   38      6.35      0.00
    9   11   38     20.00      0.00
   11   11   38     -3.48      0.00
   13   11   38     -5.87      0.00
   15   11   38      2.41      0.00
   17   11   38    -15.79      0.00
    0   12   38      0.42      0.00
    2   12   38     -5.93      0.00
    4   12   38      5.38      0.00
    6   12   38     -9.29      0.00
    8   12   38      0.79      0.00
   10   12   38      1.47      0.00
   12   12   38     -0.52      0.00
   14   12   38      2.60      0.00
   16   12   38     -5.33      0.00
    1   13   38     -3.68      0.00
    3   13   38    -12.49      0.00
    5   13   38     -9.69      0.00
    7   13   38      2.67      0.00
    9   13   38     -1.28      0.00
   11   13   38      0.34      0.00
   13   13   38     -2.13      0.00
   15   13   38     -4.91      0.00
    0   14   38      0.69      0.00
    2   14   38     11.92      0.00
    4   14   38     10.21      0.00
    6   14   38      1.99      0.00
    8   14   38     -2.77      0.00
   10   14   38     -2.14      0.00
   12   14   38     -3.28      0.00
   14   14   38      4.38      0.00
    1   15   38      0.68      0.00
    3   15   38     -0.20      0.00
    5   15   38    -11.45      0.00
    7   15   38      1.23      0.00
    9   15   38     -2.61      0.00
   11   15   38      5.89      0.00
   13   15   38     -0.12      0.00
    0   16   38    -14.80      0.00
    2   16   38     -5.71      0.00
    4   16   38     -0.92      0.00
    6   16   38      3.68      0.00
    8   16   38      1.59      0.00
   10   16   38     -6.29      0.00
   12   16   38      1.90      0.00
    1   17   38      0.93      0.00
    3   17   38     -4.81      0.00
    5   17   38     -3.02      0.00
    7   17   38     -2.73      0.00
    9   17   38      4.76      0.00
   11   17   38      5.14      0.00
    0   18   38      9.86      0.00
    2   18   38      1.68      0.00
    4   18   38     -0.22      0.00
    6   18   38     -1.21      0.00
    8   18   38     -5.30      0.00
    1   19   38     -1.80      0.00
    3   19   38     -6.66      0.00
    5   19   38     -2.88      0.00
    7   19   38     -1.90      0.00
    0   20   38     24.95      0.00
    2   20   38      8.77      0.00
    2    1   39      8.58      0.00
    4    1   39     -7.83      0.00
    6    1   39     -7.73      0.00
    8    1   39     13.64      0.00
   10    1   39     15.75      0.00
   12    1   39      8.03      0.00
   14    1   39      8.16      0.00
   16    1   39     23.28      0.00
   18    1   39     -2.24      0.00
    1    2   39     -4.61      0.00
    3    2   39     -4.55      0.00
    5    2   39    -10.04      0.00
    7    2   39      3.36      0.00
    9    2   39     -0.49      0.00
   11    2   39      7.67      0.00
   13    2   39     -0.66      0.00
   15    2   39      7.19      0.00
   17    2   39      4.76      0.00
    2    3   39      7.40      0.00
    4    3   39     10.42      0.00
    6    3   39      3.30      0.00
    8    3   39     -9.41      0.00
   10    3   39     -8.62      0.00
   12    3   39      2.16      0.00
   14    3   39     -5.99      0.00
   16    3   39    -11.79      0.00
   18    3   39     19.63      0.00
    1    4   39      9.96      0.00
    3    4   39      7.58      0.00
    5    4   39     -8.84      0.00
    7    4   39    -14.04      0.00
    9    4   39     -4.32      0.00
   11    4   39      0.46      0.00
   13    4   39     -4.84      0.00
   15    4   39      6.76      0.00
   17    4   39      0.10      0.00
    2    5   39      4.56      0.00
    4    5   39     -5.71      0.00
    6    5   39     -4.83      0.00
    8    5   39     -1.05      0.00
   10    5   39     10.87      0.00
   12    5   39     18.40      0.00
   14    5   39      0.84      0.00
   16    5   39    -25.96      0.00
    1    6   39     -6.66      0.00
    3    6   39      0.81      0.00
    5    6   39     -4.03      0.00
    7    6   39     -9.82      0.00
    9    6   39     -4.21      0.00
   11    6   39     -9.25      0.00
   13    6   39    -12.58      0.00
   15    6   39      2.91      0.00
   17    6   39      6.87      0.00
    2    7   39      5.66      0.00
    4    7   39     19.68      0.00
    6    7   39     20.98      0.00
    8    7   39      1.94      0.00
   10    7   39      7.64      0.00
   12    7   39     10.18      0.00
   14    7   39     11.91      0.00
   16    7   39      0.48      0.00
    1    8   39      3.31      0.00
    3    8   39     13.71      0.00
    5    8   39     -2.74      0.00
    7    8   39    -12.18      0.00
    9    8   39      0.25      0.00
   11    8   39      4.76      0.00
   13    8   39      0.30      0.00
   15    8   39     -9.95      0.00
    2    9   39     -2.54      0.00
    4    9   39      6.71      0.00
    6    9   39      5.44      0.00
    8    9   39      7.04      0.00
   10    9   39     11.38      0.00
   12    9   39      0.07      0.00
   14    9   39     10.55      0.00
    1   10   39      1.13      0.00
    3   10   39     -2.50      0.00
    5   10   39      9.85      0.00
    7   10   39      7.28      0.00
    9   10   39     -3.98      0.00
   11   10   39     -0.27      0.00
   13   10   39     13.71      0.00
   15   10   39      7.99      0.00
    2   11   39     -7.01      0.00
    4   11   39     -0.50      0.00
    6   11   39    -14.63      0.00
    8   11   39      0.04      0.00
   10   11   39     -6.74      0.00
   12   11   39      3.05      0.00
   14   11   39     19.80      0.00
    1   12   39     -3.40      0.00
    3   12   39     -2.82      0.00
    5   12   39      5.69      0.00
    7   12   39      6.46      0.00
    9   12   39     -1.64      0.00
   11   12   39     -8.32      0.00
   13   12   39      0.52      0.00
    2   13   39      3.12      0.00
    4   13   39     11.97      0.00
    6   13   39      1.54      0.00
    8   13   39      5.31      0.00
   10   13   39    -12.74      0.00
   12   13   39      0.02      0.00
    1   14   39     -6.23      0.00
    3   14   39      4.24      0.00
    5   14   39      2.07      0.00
    7   14   39      1.55      0.00
    9   14   39      1.73      0.00
   11   14   39     -8.70      0.00
    2   15   39      6.46      0.00
    4   15   39      2.50      0.00
    6   15   39      3.08      0.00
    8   15   39     -7.67      0.00
   10   15   39     -2.97      0.00
    1   16   39     -8.67      0.00
    3   16   39     -1.92      0.00
    5   16   39      6.50      0.00
    7   16   39      4.79      0.00
    2   17   39     -0.22      0.00
    4   17   39      2.58      0.00
    6   17   39      3.30      0.00
    1   18   39      1.42      0.00
    3   18   39      1.80      0.00
    0    0   40     27.64      0.00
    2    0   40      3.92      0.00
    4    0   40     10.89      0.00
    6    0   40      2.99      0.00
    8    0   40      4.62      0.00
   10    0   40     -7.81      0.00
   12    0   40     21.83      0.00
   14    0   40     -1.24      0.00
   16    0   40     -5.22      0.00
    1    1   40      2.94      0.00
    3    1   40     -2.78      0.00
    5    1   40     -1.18      0.00
    7    1   40     13.10      0.00
    9    1   40     -1.12      0.00
   11    1   40      0.41      0.00
   13    1   40     -1.74      0.00
   15    1   40     -3.46      0.00
    0    2   40      7.27      0.00
    2    2   40      4.21      0.00
    4    2   40     -3.93      0.00
    6    2   40     13.90      0.00
    8    2   40      6.88      0.00
   10    2   40      1.12      0.00
   12    2   40      3.51      0.00
   14    2   40     -0.33      0.00
    1    3   40     -0.29      0.00
    3    3   40     -1.15      0.00
    5    3   40     -3.80      0.00
    7    3   40      5.62      0.00
    9    3   40     -8.15      0.00
   11    3   40     -8.25      0.00
   13    3   40     20.39      0.00
   15    3   40     12.37      0.00
    0    4   40      2.61      0.00
    2    4   40     -4.52      0.00
    4    4   40      4.64      0.00
    6    4   40     -1.62      0.00
    8    4   40     -0.15      0.00
   10    4   40     13.08      0.00
   12    4   40      0.19      0.00
   14    4   40    -12.09      0.00
    1    5   40     -5.01      0.00
    3    5   40    -11.63      0.00
    5    5   40     -8.43      0.00
    7    5   40     -5.73      0.00
    9    5   40      5.36      0.00
   11    5   40      4.33      0.00
   13    5   40      1.01      0.00
   15    5   40     12.54      0.00
    0    6   40      1.54      0.00
    2    6   40     -3.42      0.00
    4    6   40     -5.25      0.00
    6    6   40    -22.50      0.00
    8    6   40    -19.94      0.00
   10    6   40     10.10      0.00
   12    6   40      3.99      0.00
   14    6   40      0.21      0.00
    1    7   40     -4.63      0.00
    3    7   40    -15.47      0.00
    5    7   40     -5.19      0.00
    7    7   40     -4.08      0.00
    9    7   40      8.63      0.00
   11    7   40      1.78      0.00
   13    7   40     -7.08      0.00
    0    8   40    -13.26      0.00
    2    8   40     -4.99      0.00
    4    8   40     -6.53      0.00
    6    8   40     -7.82      0.00
    8    8   40     -7.70      0.00
   10    8   40     -1.76      0.00
   12    8   40      2.59      0.00
    1    9   40      4.94      0.00
    3    9   40      3.39      0.00
    5    9   40      0.13      0.00
    7    9   40    -18.36      0.00
    9    9   40     -0.93      0.00
   11    9   40     -0.31      0.00
   13    9   40     -3.95      0.00
    0   10   40    -11.95      0.00
    2   10   40     -2.89      0.00
    4   10   40     -2.81      0.00
    6   10   40      0.88      0.00
    8   10   40      3.21      0.00
   10   10   40     -5.04      0.00
   12   10   40      5.12      0.00
    1   11   40     -1.33      0.00
    3   11   40     -0.15      0.00
    5   11   40      1.77      0.00
    7   11   40      0.93      0.00
    9   11   40      1.27      0.00
   11   11   40      2.94      0.00
    0   12   40      6.69      0.00
    2   12   40      3.36      0.00
    4   12   40      2.65      0.00
    6   12   40     -2.37      0.00
    8   12   40    -12.15      0.00
   10   12   40     -3.81      0.00
    1   13   40     -0.83      0.00
    3   13   40     12.51      0.00
    5   13   40      4.65      0.00
    7   13   40      5.86      0.00
    9   13   40     -1.76      0.00
    0   14   40      5.81      0.00
    2   14   40      0.50      0.00
    4   14   40      7.32      0.00
    6   14   40     -2.05      0.00
    1   15   40     -5.33      0.00
    3   15   40      6.33      0.00
    5   15   40     -1.44      0.00
    0   16   40      7.32      0.00
    2    1   41      0.37      0.00
    4    1   41      9.27      0.00
    6    1   41      1.95      0.00
    8    1   41      1.37      0.00
   10    1   41      2.59      0.00
   12    1   41      2.99      0.00
    1    2   41      0.83      0.00
    3    2   41     -0.89      0.00
    5    2   41     -7.26      0.00
    7    2   41     -7.10      0.00
    9    2   41    -14.30      0.00
   11    2   41      3.01      0.00
   13    2   41     -9.45      0.00
    2    3   41      7.67      0.00
    4    3   41      8.89      0.00
    6    3   41     -0.22      0.00
    8    3   41     -4.04      0.00
   10    3   41     -1.80      0.00
   12    3   41      1.09      0.00
    1    4   41      5.01      0.00
    3    4   41      0.71      0.00
    5    4   41     -3.33      0.00
    7    4   41     -8.58      0.00
    9    4   41     -7.97      0.00
   11    4   41      6.82      0.00
    2    5   41      2.41      0.00
    4    5   41    -12.07      0.00
    6    5   41     -4.11      0.00
    8    5   41      7.85      0.00
   10    5   41      7.04      0.00
   12    5   41      4.22      0.00
    1    6   41     -1.56      0.00
    3    6   41      5.62      0.00
    5    6   41      3.43      0.00
    7    6   41      7.23      0.00
    9    6   41      0.79      0.00
   11    6   41     -5.06      0.00
    2    7   41     10.42      0.00
    4    7   41      6.43      0.00
    6    7   41     -2.53      0.00
    8    7   41      7.43      0.00
   10    7   41     13.51      0.00
    1    8   41     -6.19      0.00
    3    8   41     -5.68      0.00
    5    8   41    -10.15      0.00
    7    8   41      1.46      0.00
    9    8   41     12.01      0.00
    2    9   41     -1.92      0.00
    4    9   41      4.26      0.00
    6    9   41      2.53      0.00
    8    9   41      6.19      0.00
    1   10   41     -3.88      0.00
    3   10   41     -3.20      0.00
    5   10   41      2.30      0.00
    7   10   41     -1.77      0.00
    2   11   41     11.46      0.00
    4   11   41      4.36      0.00
    6   11   41    -11.40      0.00
    1   12   41      4.60      0.00
    3   12   41      9.99      0.00
    5   12   41      4.34      0.00
    2   13   41      4.57      0.00
    0    0   42     12.42      0.00
    2    0   42     19.64      0.00
    4    0   42      8.99      0.00
    6    0   42     -8.59      0.00
    8    0   42     -8.33      0.00
    1    1   42      0.39      0.00
    3    1   42     -8.11      0.00
    5    1   42      1.99      0.00
    7    1   42      7.31      0.00
    9    1   42     11.43      0.00
    0    2   42     11.11      0.00
    2    2   42      4.12      0.00
    4    2   42      3.34      0.00
    6    2   42      0.33      0.00
    8    2   42     -3.46      0.00
    1    3   42      1.50      0.00
    3    3   42     -0.99      0.00
    5    3   42     -8.04      0.00
    7    3   42     -3.30      0.00
    9    3   42     -2.20      0.00
    0    4   42      2.01      0.00
    2    4   42     -2.40      0.00
    4    4   42    -12.57      0.00
    6    4   42      5.32      0.00
    8    4   42      4.13      0.00
    1    5   42     -5.34      0.00
    3    5   42    -12.18      0.00
    5    5   42    -21.64      0.00
    7    5   42    -13.34      0.00
    0    6   42      6.63      0.00
    2    6   42    -10.46      0.00
    4    6   42    -17.98      0.00
    6    6   42     -5.60      0.00
    1    7   42     -8.35      0.00
    3    7   42     -3.44      0.00
    5    7   42      5.92      0.00
    0    8   42      8.65      0.00
    2    8   42      0.09      0.00
    4    8   42     -8.42      0.00
    1    9   42      7.03      0.00
    3    9   42     25.68      0.00
    2    1   43      0.25      0.00
    1    2   43      2.03      0.00
    2    0    6    560.07      0.00
    0    6    6     70.25      0.00
   20   27   27     -5.84      0.00
   27   19   28      0.60      0.00
   26   20   28     -2.02      0.00
   20   26   28      2.52      0.00
   19   27   28      8.87      0.00
   26   19   29      2.28      0.00
   25   20   29     -8.82      0.00
   24   21   29      1.09      0.00
   21   24   29      6.87      0.00
   20   25   29      6.60      0.00
   19   26   29     -9.42      0.00
   14   29   29      7.92      0.00
   29   11   30      0.33      0.00
   28   14   30      1.05      0.00
   24   20   30      1.83      0.00
   23   21   30     -3.25      0.00
   22   22   30     -3.83      0.00
   21   23   30     -2.80      0.00
   20   24   30     -5.25      0.00
   14   28   30     -6.97      0.00
   11   29   30     -1.25      0.00
    8   30   30    -13.79      0.00
   30    1   31     11.82      0.00
   30    3   31      9.45      0.00
   29    8   31      3.83      0.00
   28   11   31      2.15      0.00
   26   15   31      1.61      0.00
   15   26   31      4.65      0.00
   11   28   31     10.87      0.00
    8   29   31      6.31      0.00
    1   30   31     -2.86      0.00
    3   30   31     -5.01      0.00
   29    1   32     -6.37      0.00
   29    3   32     13.05      0.00
   28    8   32      8.96      0.00
   27   11   32     -6.15      0.00
   25   15   32      4.67      0.00
   15   25   32      2.45      0.00
   11   27   32     13.68      0.00
    8   28   32      5.90      0.00
    1   29   32      1.35      0.00
    3   29   32      4.65      0.00
   28    1   33     -1.94      0.00
   28    3   33    -11.33      0.00
   27    8   33     -8.54      0.00
   25   12   33     -4.40      0.00
   23   16   33      0.23      0.00
   22   17   33     -3.05      0.00
   17   22   33      5.19      0.00
   16   23   33      9.02      0.00
    8   27   33     16.00      0.00
    1   28   33     -8.08      0.00
    3   28   33     -2.76      0.00
   26    6   34      0.90      0.00
   25    9   34     -1.07      0.00
   24   12   34    -18.01      0.00
   20   18   34     13.84      0.00
   19   19   34     10.22      0.00
   18   20   34      1.48      0.00
   12   24   34     -6.09      0.00
    9   25   34      6.93      0.00
    6   26   34     -1.97      0.00
   25    4   35     -0.95      0.00
   24    9   35     -3.27      0.00
   22   13   35      4.90      0.00
   21   14   35      7.21      0.00
   14   21   35     -6.28      0.00
   13   22   35     15.45      0.00
    9   24   35     -0.72      0.00
    4   25   35     -7.92      0.00
   24    0   36     16.09      0.00
   24    2   36     -1.35      0.00
   23    7   36      3.29      0.00
   22   10   36      2.46      0.00
   21   11   36     -4.53      0.00
   19   15   36      6.06      0.00
   18   16   36      6.11      0.00
   17   17   36      0.00      0.00
   16   18   36     -2.51      0.00
   15   19   36      1.94      0.00
   11   21   36    -10.60      0.00
   10   22   36     13.88      0.00
    7   23   36      3.56      0.00
    0   24   36     -1.85      0.00
    2   24   36     -1.77      0.00
   22    3   37      4.64      0.00
   22    5   37     -9.97      0.00
   21    8   37      5.61      0.00
   19   12   37     -5.14      0.00
   18   13   37     10.31      0.00
   13   18   37     -4.54      0.00
   12   19   37     -8.84      0.00
    8   21   37     -0.41      0.00
    3   22   37     -2.21      0.00
    5   22   37     -6.56      0.00
   20    4   38      2.45      0.00
   20    6   38     -0.28      0.00
   18   10   38      9.99      0.00
   10   18   38    -10.20      0.00
    4   20   38      8.13      0.00
    6   20   38      7.91      0.00
   18    5   39      2.00      0.00
   17    8   39      3.84      0.00
   16    9   39     21.73      0.00
    9   16   39     11.04      0.00
    8   17   39     -8.05      0.00
    5   18   39      3.56      0.00
   16    2   40     -3.60      0.00
   16    4   40     -6.71      0.00
   15    7   40    -12.37      0.00
   14    8   40      0.73      0.00
    8   14   40    -10.61      0.00
    7   15   40      3.99      0.00
    2   16   40      7.66      0.00
    4   16   40     -5.22      0.00
   14    1   41      3.96      0.00
   13    4   41      8.90      0.00
   12    7   41      3.11      0.00
   11    8   41     -2.03      0.00
   10    9   41      8.69      0.00
    9   10   41     -3.57      0.00
    8   11   41     -3.59      0.00
    7   12   41     -1.16      0.00
    4   13   41      4.18      0.00
    1   14   41      2.29      0.00
   10    0   42      6.96      0.00
   10    2   42     -3.14      0.00
   10    4   42      2.46      0.00
    9    5   42     -9.76      0.00
    8    6   42      1.30      0.00
    7    7   42      2.48      0.00
    6    8   42     -6.75      0.00
    5    9   42     10.83      0.00
    0   10   42      5.09      0.00
    2   10   42     -0.08      0.00
    4   10   42     -3.97      0.00
    4    1   43     -2.96      0.00
    3    2   43     -5.97      0.00
    5    2   43     -7.90      0.00
    2    3   43     -4.87      0.00
    4    3   43      5.48      0.00
    1    4   43     -2.70      0.00
    3    4   43     -5.63      0.00
    2    5   43     -8.46      0.00
    0    0    0      0.00      0.00
# SQUEEZE RESULTS (Version =  50315)
# Note: Data are Listed for all Voids in the P1 Unit Cell
# i.e. Centre of Gravity, Solvent Accessible Volume,
# Recovered number of Electrons in the Void and
# Details about the Squeezed Material
loop_
  _platon_squeeze_void_nr
  _platon_squeeze_void_average_x
  _platon_squeeze_void_average_y
  _platon_squeeze_void_average_z
  _platon_squeeze_void_volume
  _platon_squeeze_void_count_electrons
  _platon_squeeze_void_content
   1  0.010 -0.013  0.001     13059      3471 ' '
   2  0.250  0.250  0.250        90        10 ' '
   3  0.750  0.250  0.250        90        10 ' '
   4  0.750  0.250  0.750        90        10 ' '
   5  0.250  0.250  0.750        90        10 ' '
   6  0.250  0.750  0.250        90        10 ' '
   7  0.750  0.750  0.250        90        10 ' '
   8  0.750  0.750  0.750        90        10 ' '
   9  0.250  0.750  0.750        90        10 ' '
# Missing Reflections Below sin(th)/lambda = 0.25
loop_
  _platon_missing_refln_index_h
  _platon_missing_refln_index_k
  _platon_missing_refln_index_l
  _platon_missing_refln_theta
    2    0    6     3.990
    0    6    6     5.357
_platon_squeeze_void_probe_radius                  1.20
_platon_squeeze_details
)
TITL N151022A  I a -3       R = 0.05
CELL   32.2995   32.2995   32.2995     90.00     90.00     90.00
SPGR Ia-3
# Solvent Accessible Volume =   14183.1
# Electrons Found in S.A.V. =    3545.7
# Note: Atoms in Void as Cxxx and Qxxx all others
C101 0.750 0.250 0.250 !       5.28 eA-3
C102 0.367 0.490 0.016 !       3.74 eA-3
C103 0.911 0.206 0.062 !       3.70 eA-3
C104 0.734 0.765 0.235 !       3.51 eA-3
C105 0.766 0.735 0.265 !       3.51 eA-3
C106 0.693 0.116 0.207 !       3.08 eA-3
C107 0.304 0.174 0.092 !       2.87 eA-3
C108 0.778 0.716 0.284 !       2.60 eA-3
C109 0.211 0.622 0.084 !       2.44 eA-3
C110 0.135 0.996 0.091 !       2.39 eA-3
C111 0.331 0.173 0.061 !       2.14 eA-3
C112 0.841 0.420 0.003 !       2.14 eA-3
Q113 0.448 0.280 0.120 !       1.83 eA-3
C114 0.005 0.379 0.180 !       1.79 eA-3
C115 0.614 0.939 0.187 !       1.74 eA-3
C116 0.189 0.639 0.093 !       1.60 eA-3
C117 0.123 0.123 0.123 !       1.59 eA-3
C118 0.180 0.628 0.073 !       1.50 eA-3
C119 0.518 0.986 0.014 !       1.17 eA-3
C120 0.594 0.939 0.165 !       1.12 eA-3
C121 0.467 0.450 0.479 !       1.08 eA-3
C122 0.967 0.950 0.979 !       1.08 eA-3
C123 0.033 0.050 0.021 !       1.08 eA-3
C124 0.099 0.241 0.061 !       1.08 eA-3
C125 0.358 0.445 0.168 !       1.08 eA-3
C126 0.102 0.223 0.045 !       1.04 eA-3
C127 0.898 0.777 0.955 !       1.04 eA-3
C128 0.398 0.277 0.455 !       1.04 eA-3
C129 0.881 0.453 0.150 !       1.03 eA-3
Q130 0.250 0.273-0.002 !       1.03 eA-3
C131 0.101 0.195 0.029 !       0.97 eA-3
C132 0.895 0.367 0.109 !       0.97 eA-3
C133 0.015 0.360 0.135 !       0.94 eA-3
C134 0.484 0.007 0.010 !       0.92 eA-3
C135 0.566 0.704 0.103 !       0.92 eA-3
C136 0.431 0.502 0.028 !       0.91 eA-3
C137 0.323 0.594 0.042 !       0.90 eA-3
C138 0.087 0.033 0.030 !       0.86 eA-3
C139 0.678 0.040 0.140 !       0.84 eA-3
C140 0.178 0.540 0.640 !       0.84 eA-3
C141 0.832 0.892 0.018 !       0.81 eA-3
C142 0.495 0.990 0.556 !       0.81 eA-3
C143 0.995 0.490 0.056 !       0.81 eA-3
C144 0.577 0.823 0.077 !       0.81 eA-3
Q145 0.053 0.891 0.188 !       0.80 eA-3
C146 0.977 0.345 0.103 !       0.79 eA-3
C147 0.940 0.469 0.019 !       0.79 eA-3
C148 0.360 0.163 0.029 !       0.79 eA-3
C149 0.031 0.127 0.139 !       0.78 eA-3
C150 0.848 0.992 0.015 !       0.76 eA-3
C151 0.170 0.037 0.116 !       0.75 eA-3
C152 0.985 0.480 0.107 !       0.75 eA-3
C153 0.308 0.589 0.056 !       0.75 eA-3
C154 0.039 0.105 0.001 !       0.74 eA-3
C155 0.428 0.605 0.139 !       0.73 eA-3
C156 0.072 0.895 0.361 !       0.73 eA-3
C157 0.572 0.395 0.861 !       0.73 eA-3
C158 0.900 0.858 0.926 !       0.73 eA-3
C159 0.101 0.155 0.048 !       0.72 eA-3
C160 0.463 0.640 0.072 !       0.72 eA-3
Q161 0.221 0.517 0.155 !       0.72 eA-3
C162 0.939 0.998 0.995 !       0.71 eA-3
C163 0.896 0.433 0.133 !       0.71 eA-3
C164 0.961 0.351 0.088 !       0.70 eA-3
C165 0.665 0.946 0.086 !       0.70 eA-3
C166 0.020 0.014 0.151 !       0.70 eA-3
C167 0.648 0.423 0.910 !       0.69 eA-3
C168 0.492 0.540 0.123 !       0.67 eA-3
C169 0.029 0.050 0.107 !       0.65 eA-3
C170 0.154 0.188 0.964 !       0.65 eA-3
Q171 0.446 0.180 0.049 !       0.64 eA-3
Q172 0.428 0.205 0.121 !       0.64 eA-3
C173 0.139 0.606 0.006 !       0.64 eA-3
C174 0.859 0.461 0.093 !       0.62 eA-3
Q175 0.643 0.617 0.156 !       0.62 eA-3
C176 0.881 0.380 0.042 !       0.62 eA-3
Q177 0.859 0.295-0.001 !       0.62 eA-3
Q178 0.477 0.500 0.250 !       0.62 eA-3
C179 0.892 0.412 0.169 !       0.61 eA-3
C180 0.608 0.088 0.331 !       0.61 eA-3
C181 0.081 0.666 0.888 !       0.61 eA-3
C182 0.930 0.446 0.023 !       0.61 eA-3
C183 0.077 0.037 0.061 !       0.61 eA-3
C184 0.088 0.119 0.081 !       0.61 eA-3
C185 0.021 0.117 0.068 !       0.61 eA-3
C186 0.101 0.108 0.061 !       0.60 eA-3
C187 0.513 0.860 0.134 !       0.60 eA-3
C188 0.470 0.822 0.088 !       0.60 eA-3
C189 0.240 0.274 0.223 !       0.59 eA-3
Q190 0.571 0.306 0.229 !       0.59 eA-3
C191 0.125 0.085 0.117 !       0.58 eA-3
C192 0.556 0.843 0.024 !       0.58 eA-3
Q193 0.447 0.346 0.116 !       0.58 eA-3
C194 0.474 0.481 0.047 !       0.58 eA-3
Q195 0.475 0.751 0.024 !       0.58 eA-3
C196 0.634 0.979 0.062 !       0.57 eA-3
C197 0.669 0.883 0.023 !       0.57 eA-3
C198 0.622 0.960 0.039 !       0.57 eA-3
C199 0.443 0.563 0.172 !       0.57 eA-3
)
;
_shelx_fab_checksum              62029
_platon_squeeze_void_probe_radius 1.20
_olex2_submission_special_instructions 'No special instructions were received'
loop_
_space_group_symop_operation_xyz
'x, y, z'
'-x+1/2, -y, z+1/2'
'-x, y+1/2, -z+1/2'
'x+1/2, -y+1/2, -z'
'z, x, y'
'z+1/2, -x+1/2, -y'
'-z+1/2, -x, y+1/2'
'-z, x+1/2, -y+1/2'
'y, z, x'
'-y, z+1/2, -x+1/2'
'y+1/2, -z+1/2, -x'
'-y+1/2, -z, x+1/2'
'x+1/2, y+1/2, z+1/2'
'-x+1, -y+1/2, z+1'
'-x+1/2, y+1, -z+1'
'x+1, -y+1, -z+1/2'
'z+1/2, x+1/2, y+1/2'
'z+1, -x+1, -y+1/2'
'-z+1, -x+1/2, y+1'
'-z+1/2, x+1, -y+1'
'y+1/2, z+1/2, x+1/2'
'-y+1/2, z+1, -x+1'
'y+1, -z+1, -x+1/2'
'-y+1, -z+1/2, x+1'
'-x, -y, -z'
'x-1/2, y, -z-1/2'
'x, -y-1/2, z-1/2'
'-x-1/2, y-1/2, z'
'-z, -x, -y'
'-z-1/2, x-1/2, y'
'z-1/2, x, -y-1/2'
'z, -x-1/2, y-1/2'
'-y, -z, -x'
'y, -z-1/2, x-1/2'
'-y-1/2, z-1/2, x'
'y-1/2, z, -x-1/2'
'-x+1/2, -y+1/2, -z+1/2'
'x, y+1/2, -z'
'x+1/2, -y, z'
'-x, y, z+1/2'
'-z+1/2, -x+1/2, -y+1/2'
'-z, x, y+1/2'
'z, x+1/2, -y'
'z+1/2, -x, y'
'-y+1/2, -z+1/2, -x+1/2'
'y+1/2, -z, x'
'-y, z, x+1/2'
'y, z+1/2, -x'
loop_
_atom_site_label
_atom_site_type_symbol
_atom_site_fract_x
_atom_site_fract_y
_atom_site_fract_z
_atom_site_U_iso_or_equiv
_atom_site_adp_type
_atom_site_occupancy
_atom_site_site_symmetry_order
_atom_site_calc_flag
_atom_site_refinement_flags_posn
_atom_site_refinement_flags_adp
_atom_site_refinement_flags_occupancy
_atom_site_disorder_assembly
_atom_site_disorder_group
Tb1 Tb 0.38362(2) 0.55085(2) 0.78411(2) 0.02070(4) Uani 1 1 d . . . . .
Ni1 Ni 0.27293(2) 0.500000 0.750000 0.01885(10) Uani 1 2 d S T P . .
O1 O 0.31009(6) 0.54720(5) 0.77609(5) 0.0195(4) Uani 1 1 d . . . . .
O2 O 0.18930(6) 0.53166(7) 0.77159(8) 0.0365(5) Uani 1 1 d . . . . .
H2 H 0.184191 0.515559 0.751603 0.055 Uiso 0.5 1 d R . . A -1
O3 O 0.38258(6) 0.58744(6) 0.71754(6) 0.0248(4) Uani 1 1 d . . . . .
O4 O 0.37425(6) 0.52049(6) 0.71150(6) 0.0234(4) Uani 1 1 d . . . . .
O5 O 0.42601(9) 0.54204(8) 0.84552(9) 0.0529(7) Uani 1 1 d . . . . .
O6 O 0.35952(9) 0.55146(7) 0.85579(7) 0.0474(6) Uani 1 1 d . . . . .
O7 O 0.44889(6) 0.53296(6) 0.76019(8) 0.0395(6) Uani 1 1 d . . . . .
N1 N 0.42645(7) 0.61748(7) 0.78838(7) 0.0245(5) Uani 1 1 d . . . . .
N2 N 0.46862(7) 0.69213(7) 0.77800(7) 0.0230(5) Uani 1 1 d . . . . .
N3 N 0.34453(7) 0.61687(7) 0.79445(7) 0.0198(4) Uani 1 1 d . . . . .
N4 N 0.30179(7) 0.61531(7) 0.79898(7) 0.0223(5) Uani 1 1 d . . . . .
N5 N 0.23019(7) 0.53954(7) 0.77298(8) 0.0260(5) Uani 1 1 d . . . . .
C1 C 0.46734(9) 0.61883(9) 0.78385(10) 0.0305(6) Uani 1 1 d . . . . .
H1 H 0.482563 0.593663 0.783955 0.037 Uiso 1 1 calc R . . . .
C2 C 0.48839(9) 0.65591(9) 0.77897(9) 0.0278(6) Uani 1 1 d . . . . .
H2A H 0.517678 0.655507 0.776255 0.033 Uiso 1 1 calc R . . . .
C3 C 0.42743(8) 0.69081(8) 0.78283(8) 0.0226(5) Uani 1 1 d . . . . .
H3 H 0.412245 0.715997 0.782379 0.027 Uiso 1 1 calc R . . . .
C4 C 0.40620(8) 0.65384(8) 0.78847(8) 0.0214(5) Uani 1 1 d . . . . .
C5 C 0.36069(8) 0.65340(8) 0.79428(8) 0.0218(5) Uani 1 1 d . . . . .
C6 C 0.33774(9) 0.69336(9) 0.79847(11) 0.0342(7) Uani 1 1 d . . . . .
H6A H 0.307860 0.687799 0.801369 0.051 Uiso 1 1 d R . . . .
H6B H 0.342550 0.710379 0.773589 0.051 Uiso 1 1 d R . . . .
H6C H 0.347750 0.708299 0.823129 0.051 Uiso 1 1 d R . . . .
C7 C 0.28788(8) 0.57851(8) 0.78929(8) 0.0210(5) Uani 1 1 d . . . . .
C8 C 0.24243(9) 0.57339(9) 0.79057(9) 0.0284(6) Uani 1 1 d . . . . .
C9 C 0.21402(10) 0.60487(11) 0.80918(14) 0.0512(11) Uani 1 1 d . . . . .
H9A H 0.192116 0.612686 0.789393 0.077 Uiso 1 1 d R . . . .
H9B H 0.229986 0.629666 0.816993 0.077 Uiso 1 1 d R . . . .
H9C H 0.201316 0.592656 0.834113 0.077 Uiso 1 1 d R . . . .
C10 C 0.38165(8) 0.55585(8) 0.69535(9) 0.0234(5) Uani 1 1 d . . . . .
C11 C 0.39036(10) 0.55845(9) 0.64974(9) 0.0317(7) Uani 1 1 d . . . . .
H11A H 0.386646 0.587342 0.640557 0.048 Uiso 1 1 d R . . . .
H11B H 0.370986 0.540382 0.634586 0.048 Uiso 1 1 d R . . . .
H11C H 0.419026 0.549602 0.644147 0.048 Uiso 1 1 d R . . . .
C12 C 0.39589(16) 0.54496(11) 0.86930(12) 0.0507(10) Uani 1 1 d . U . . .
C13 C 0.40236(19) 0.53971(16) 0.91573(13) 0.0791(15) Uani 1 1 d . U . . .
H13A H 0.432125 0.537587 0.922143 0.119 Uiso 1 1 d R . . . .
H13B H 0.388125 0.514307 0.924923 0.119 Uiso 1 1 d R . . . .
H13C H 0.390515 0.563827 0.930233 0.119 Uiso 1 1 d R . . . .
C14 C 0.46717(14) 0.500000 0.750000 0.0445(12) Uani 1 2 d S TU P . .
C15 C 0.5136(2) 0.500000 0.750000 0.089(2) Uani 1 2 d S TU P . .
H15A H 0.523811 0.489100 0.776640 0.133 Uiso 0.5 1 d R . . . .
H15B H 0.523811 0.528520 0.746120 0.133 Uiso 0.5 1 d R . . . .
H15C H 0.523811 0.482380 0.727240 0.133 Uiso 0.5 1 d R . . . .
loop_
_atom_site_aniso_label
_atom_site_aniso_U_11
_atom_site_aniso_U_22
_atom_site_aniso_U_33
_atom_site_aniso_U_23
_atom_site_aniso_U_13
_atom_site_aniso_U_12
Tb1 0.02233(7) 0.01577(6) 0.02401(7) -0.00187(5) -0.00445(5) 0.00089(5)
Ni1 0.0193(2) 0.0164(2) 0.0208(2) 0.00005(18) 0.000 0.000
O1 0.0228(9) 0.0164(9) 0.0192(9) 0.0002(7) 0.0008(7) 0.0000(7)
O2 0.0189(10) 0.0295(11) 0.0611(15) -0.0094(10) 0.0059(10) -0.0024(8)
O3 0.0296(10) 0.0173(9) 0.0276(10) -0.0019(8) 0.0007(8) -0.0011(8)
O4 0.0287(10) 0.0187(9) 0.0226(9) 0.0000(7) 0.0031(8) -0.0013(7)
O5 0.0585(17) 0.0451(15) 0.0553(17) 0.0030(12) -0.0325(14) -0.0048(13)
O6 0.0799(19) 0.0370(13) 0.0253(12) -0.0007(10) 0.0014(12) 0.0128(13)
O7 0.0236(11) 0.0240(11) 0.0708(17) -0.0154(11) -0.0034(11) 0.0014(9)
N1 0.0234(12) 0.0192(11) 0.0309(12) -0.0034(9) -0.0075(9) 0.0005(9)
N2 0.0219(11) 0.0234(11) 0.0235(12) -0.0038(9) -0.0051(9) -0.0006(9)
N3 0.0208(11) 0.0202(11) 0.0184(10) -0.0031(8) 0.0004(8) 0.0001(9)
N4 0.0231(11) 0.0205(11) 0.0234(11) -0.0026(9) 0.0034(9) -0.0024(9)
N5 0.0208(11) 0.0220(12) 0.0351(13) 0.0008(10) 0.0044(10) -0.0020(9)
C1 0.0261(14) 0.0214(14) 0.0439(18) -0.0075(13) -0.0074(13) 0.0023(11)
C2 0.0215(13) 0.0242(14) 0.0377(16) -0.0103(12) -0.0045(12) 0.0014(11)
C3 0.0231(13) 0.0208(13) 0.0240(13) -0.0037(10) -0.0035(11) 0.0005(10)
C4 0.0225(13) 0.0195(12) 0.0221(13) -0.0055(10) -0.0054(10) -0.0016(10)
C5 0.0240(13) 0.0176(12) 0.0237(13) -0.0026(10) -0.0018(10) 0.0013(10)
C6 0.0255(15) 0.0188(14) 0.058(2) -0.0041(13) -0.0034(14) 0.0006(11)
C7 0.0242(13) 0.0177(12) 0.0212(13) 0.0004(10) 0.0034(10) 0.0018(10)
C8 0.0270(15) 0.0210(13) 0.0372(16) -0.0011(12) 0.0087(12) 0.0005(11)
C9 0.0273(17) 0.0359(18) 0.090(3) -0.0290(19) 0.0160(18) -0.0010(14)
C10 0.0197(13) 0.0226(13) 0.0280(14) 0.0018(11) 0.0024(11) -0.0004(10)
C11 0.0434(18) 0.0277(15) 0.0240(14) 0.0031(11) 0.0032(13) 0.0020(13)
C12 0.087(3) 0.0270(16) 0.0380(18) 0.0009(14) -0.0212(19) 0.0027(17)
C13 0.124(4) 0.070(3) 0.044(2) 0.001(2) -0.029(2) 0.005(3)
C14 0.029(2) 0.030(2) 0.075(3) -0.012(2) 0.000 0.000
C15 0.061(3) 0.069(4) 0.137(5) -0.021(3) 0.000 0.000
loop_
_atom_type_symbol
_atom_type_description
_atom_type_scat_dispersion_real
_atom_type_scat_dispersion_imag
_atom_type_scat_source
C C 0.0033 0.0016 'International Tables Vol C Tables 4.2.6.8 and 6.1.1.4'
H H 0.0000 0.0000 'International Tables Vol C Tables 4.2.6.8 and 6.1.1.4'
N N 0.0061 0.0033 'International Tables Vol C Tables 4.2.6.8 and 6.1.1.4'
Ni Ni 0.3393 1.1124 'International Tables Vol C Tables 4.2.6.8 and 6.1.1.4'
O O 0.0106 0.0060 'International Tables Vol C Tables 4.2.6.8 and 6.1.1.4'
Tb Tb -0.1723 4.1537 'International Tables Vol C Tables 4.2.6.8 and 6.1.1.4'
loop_
_geom_angle_atom_site_label_1
_geom_angle_atom_site_label_2
_geom_angle_atom_site_label_3
_geom_angle
_geom_angle_site_symmetry_1
_geom_angle_site_symmetry_3
O1 Tb1 Tb1 84.19(4) . 16_456
O1 Tb1 O3 85.13(6) . .
O1 Tb1 O4 76.37(6) . .
O1 Tb1 O5 130.01(9) . .
O1 Tb1 O6 77.68(8) . .
O1 Tb1 N1 125.68(7) . .
O1 Tb1 N3 63.58(6) . .
O3 Tb1 Tb1 84.94(4) . 16_456
O3 Tb1 O4 51.69(6) . .
O3 Tb1 N1 69.51(7) . .
O3 Tb1 N3 72.50(6) . .
O4 Tb1 Tb1 34.06(4) . 16_456
O4 Tb1 Tb1 38.01(5) 16_456 16_456
O4 Tb1 O1 80.14(6) 16_456 .
O4 Tb1 O3 121.89(6) 16_456 .
O4 Tb1 O4 70.20(7) 16_456 .
O4 Tb1 O5 84.70(8) 16_456 .
O4 Tb1 O6 84.77(7) 16_456 .
O4 Tb1 N1 153.93(7) 16_456 .
O4 Tb1 N1 115.78(7) . .
O4 Tb1 N3 140.36(7) 16_456 .
O5 Tb1 Tb1 110.98(6) . 16_456
O5 Tb1 O3 141.30(8) . .
O5 Tb1 O4 140.41(8) . .
O5 Tb1 O6 53.57(10) . .
O5 Tb1 N1 75.52(8) . .
O5 Tb1 N3 106.00(8) . .
O6 Tb1 Tb1 122.33(6) . 16_456
O6 Tb1 O3 145.31(7) . .
O6 Tb1 O4 146.48(8) . .
O6 Tb1 N1 96.56(8) . .
O6 Tb1 N3 72.87(7) . .
O7 Tb1 Tb1 66.88(5) . 16_456
O7 Tb1 O1 148.70(7) . .
O7 Tb1 O3 80.82(8) . .
O7 Tb1 O4 72.95(7) . .
O7 Tb1 O4 83.80(7) . 16_456
O7 Tb1 O5 74.35(10) . .
O7 Tb1 O6 127.43(9) . .
O7 Tb1 N1 74.71(7) . .
O7 Tb1 N3 135.74(7) . .
N1 Tb1 Tb1 136.68(5) . 16_456
N3 Tb1 Tb1 141.50(5) . 16_456
N3 Tb1 O4 112.91(6) . .
N3 Tb1 N1 63.20(7) . .
O1 Ni1 O1 110.86(10) . 16_456
O1 Ni1 N2 87.88(8) 16_456 31_557
O1 Ni1 N2 87.12(8) 16_456 44_465
O1 Ni1 N2 87.12(8) . 31_557
O1 Ni1 N2 87.88(8) . 44_465
N2 Ni1 N2 171.19(12) 31_557 44_465
N5 Ni1 O1 77.64(8) 16_456 16_456
N5 Ni1 O1 77.64(8) . .
N5 Ni1 O1 171.45(8) . 16_456
N5 Ni1 O1 171.46(8) 16_456 .
N5 Ni1 N2 94.24(9) 16_456 31_557
N5 Ni1 N2 91.77(9) . 31_557
N5 Ni1 N2 91.77(9) 16_456 44_465
N5 Ni1 N2 94.24(9) . 44_465
N5 Ni1 N5 93.88(13) 16_456 .
Ni1 O1 Tb1 129.94(8) . .
C7 O1 Tb1 118.03(16) . .
C7 O1 Ni1 112.02(16) . .
N5 O2 H2 109.5 . .
C10 O3 Tb1 96.30(16) . .
Tb1 O4 Tb1 107.93(7) 16_456 .
C10 O4 Tb1 90.54(15) . .
C10 O4 Tb1 152.23(17) . 16_456
C12 O5 Tb1 93.1(2) . .
C12 O6 Tb1 91.7(2) . .
C14 O7 Tb1 136.3(2) . .
C1 N1 Tb1 123.91(18) . .
C1 N1 C4 117.1(2) . .
C4 N1 Tb1 118.10(17) . .
C2 N2 Ni1 122.90(19) . 34_576
C2 N2 C3 116.4(2) . .
C3 N2 Ni1 120.57(18) . 34_576
N4 N3 Tb1 119.00(15) . .
C5 N3 Tb1 125.09(18) . .
C5 N3 N4 115.8(2) . .
C7 N4 N3 110.4(2) . .
O2 N5 Ni1 122.57(17) . .
C8 N5 Ni1 119.10(19) . .
C8 N5 O2 118.3(2) . .
N1 C1 H1 119.1 . .
N1 C1 C2 121.9(3) . .
C2 C1 H1 119.1 . .
N2 C2 C1 121.7(3) . .
N2 C2 H2A 119.1 . .
C1 C2 H2A 119.1 . .
N2 C3 H3 118.9 . .
N2 C3 C4 122.2(3) . .
C4 C3 H3 118.9 . .
N1 C4 C3 120.7(2) . .
N1 C4 C5 118.3(2) . .
C3 C4 C5 121.0(2) . .
N3 C5 C4 114.2(2) . .
N3 C5 C6 126.1(3) . .
C4 C5 C6 119.7(2) . .
C5 C6 H6A 109.7 . .
C5 C6 H6B 109.2 . .
C5 C6 H6C 109.5 . .
H6A C6 H6B 109.5 . .
H6A C6 H6C 109.5 . .
H6B C6 H6C 109.5 . .
O1 C7 C8 117.8(2) . .
N4 C7 O1 126.2(2) . .
N4 C7 C8 115.8(2) . .
N5 C8 C7 112.7(2) . .
N5 C8 C9 124.3(3) . .
C7 C8 C9 123.0(3) . .
C8 C9 H9A 110.7 . .
C8 C9 H9B 109.5 . .
C8 C9 H9C 108.2 . .
H9A C9 H9B 109.5 . .
H9A C9 H9C 109.5 . .
H9B C9 H9C 109.5 . .
O3 C10 O4 120.1(2) . .
O3 C10 C11 120.9(2) . .
O4 C10 C11 119.0(2) . .
C10 C11 H11A 109.0 . .
C10 C11 H11B 109.6 . .
C10 C11 H11C 109.8 . .
H11A C11 H11B 109.5 . .
H11A C11 H11C 109.5 . .
H11B C11 H11C 109.5 . .
O5 C12 O6 121.6(3) . .
O5 C12 C13 119.5(4) . .
O6 C12 C13 118.9(4) . .
C12 C13 H13A 110.4 . .
C12 C13 H13B 109.0 . .
C12 C13 H13C 109.0 . .
H13A C13 H13B 109.5 . .
H13A C13 H13C 109.5 . .
H13B C13 H13C 109.5 . .
O7 C14 O7 124.2(4) 16_456 .
O7 C14 C15 117.9(2) 16_456 .
O7 C14 C15 117.9(2) . .
C14 C15 H15A 109.461(1) . 16_456
C14 C15 H15A 109.5 . .
C14 C15 H15B 109.5 . .
C14 C15 H15B 109.463(1) . 16_456
C14 C15 H15C 109.5 . .
C14 C15 H15C 109.462(1) . 16_456
H15A C15 H15A 141.1 . 16_456
H15A C15 H15B 109.5 16_456 16_456
H15A C15 H15B 109.5 . .
H15A C15 H15B 56.2 . 16_456
H15A C15 H15C 109.5 . .
H15A C15 H15C 56.3 . 16_456
H15A C15 H15C 109.5 16_456 16_456
H15B C15 H15A 56.3 . 16_456
H15B C15 H15B 141.1 . 16_456
H15B C15 H15C 109.5 . .
H15B C15 H15C 56.2 . 16_456
H15B C15 H15C 109.5 16_456 16_456
H15C C15 H15A 56.3 . 16_456
H15C C15 H15B 56.3 . 16_456
H15C C15 H15C 141.1 . 16_456
loop_
_geom_bond_atom_site_label_1
_geom_bond_atom_site_label_2
_geom_bond_distance
_geom_bond_site_symmetry_2
Tb1 Tb1 3.9553(3) 16_456
Tb1 O1 2.3921(18) .
Tb1 O3 2.4540(19) .
Tb1 O4 2.5600(18) .
Tb1 O4 2.3282(18) 16_456
Tb1 O5 2.427(2) .
Tb1 O6 2.443(2) .
Tb1 O7 2.318(2) .
Tb1 N1 2.562(2) .
Tb1 N3 2.501(2) .
Ni1 O1 2.1153(18) .
Ni1 O1 2.1154(18) 16_456
Ni1 N2 2.133(2) 44_465
Ni1 N2 2.133(2) 31_557
Ni1 N5 2.022(2) .
Ni1 N5 2.022(2) 16_456
O1 C7 1.311(3) .
O2 H2 0.8453 .
O2 N5 1.346(3) .
O3 C10 1.247(3) .
O4 C10 1.278(3) .
O5 C12 1.243(5) .
O6 C12 1.271(5) .
O7 C14 1.261(3) .
N1 C1 1.329(4) .
N1 C4 1.344(3) .
N2 C2 1.333(4) .
N2 C3 1.340(3) .
N3 N4 1.389(3) .
N3 C5 1.290(3) .
N4 C7 1.309(3) .
N5 C8 1.294(4) .
C1 H1 0.9500 .
C1 C2 1.386(4) .
C2 H2A 0.9500 .
C3 H3 0.9500 .
C3 C4 1.389(4) .
C4 C5 1.482(4) .
C5 C6 1.494(4) .
C6 H6A 0.9861 .
C6 H6B 0.9860 .
C6 H6C 0.9858 .
C7 C8 1.478(4) .
C8 C9 1.496(4) .
C9 H9A 0.9863 .
C9 H9B 0.9856 .
C9 H9C 0.9860 .
C10 C11 1.502(4) .
C11 H11A 0.9864 .
C11 H11B 0.9857 .
C11 H11C 0.9858 .
C12 C13 1.524(5) .
C13 H13A 0.9860 .
C13 H13B 0.9861 .
C13 H13C 0.9862 .
C14 C15 1.501(8) .
C15 H15A 0.9860 .
C15 H15A 0.9861 16_456
C15 H15B 0.9860 .
C15 H15B 0.9860 16_456
C15 H15C 0.9861 16_456
C15 H15C 0.9860 .
loop_
_geom_hbond_atom_site_label_D
_geom_hbond_atom_site_label_H
_geom_hbond_atom_site_label_A
_geom_hbond_distance_DH
_geom_hbond_distance_HA
_geom_hbond_distance_DA
_geom_hbond_angle_DHA
_geom_hbond_site_symmetry_A
_geom_hbond_publ_flag
O2 H2 N5 0.85 2.45 3.018(3) 125.2 16_456 yes
C1 H1 O7 0.95 2.37 2.938(3) 118.0 . yes
C3 H3 O1 0.95 2.51 3.006(3) 112.8 47_655 yes
loop_
_geom_torsion_atom_site_label_1
_geom_torsion_atom_site_label_2
_geom_torsion_atom_site_label_3
_geom_torsion_atom_site_label_4
_geom_torsion
_geom_torsion_site_symmetry_1
_geom_torsion_site_symmetry_4
Tb1 O1 C7 N4 14.7(3) . .
Tb1 O1 C7 C8 -170.26(18) . .
Tb1 O3 C10 O4 12.3(3) . .
Tb1 O3 C10 C11 -165.9(2) . .
Tb1 O4 C10 O3 -11.7(3) . .
Tb1 O4 C10 O3 -144.5(3) 16_456 .
Tb1 O4 C10 C11 33.8(5) 16_456 .
Tb1 O4 C10 C11 166.5(2) . .
Tb1 O5 C12 O6 -1.5(4) . .
Tb1 O5 C12 C13 177.1(3) . .
Tb1 O6 C12 O5 1.5(4) . .
Tb1 O6 C12 C13 -177.1(3) . .
Tb1 O7 C14 O7 20.77(17) . 16_456
Tb1 O7 C14 C15 -159.24(17) . .
Tb1 N1 C1 C2 168.2(2) . .
Tb1 N1 C4 C3 -167.72(19) . .
Tb1 N1 C4 C5 11.6(3) . .
Tb1 N3 N4 C7 -11.8(3) . .
Tb1 N3 C5 C4 -1.7(3) . .
Tb1 N3 C5 C6 177.0(2) . .
Ni1 O1 C7 N4 -165.2(2) . .
Ni1 O1 C7 C8 9.9(3) . .
Ni1 N2 C2 C1 177.5(2) 34_576 .
Ni1 N2 C3 C4 -176.5(2) 34_576 .
Ni1 N5 C8 C7 2.5(3) . .
Ni1 N5 C8 C9 -179.3(3) . .
O1 C7 C8 N5 -8.5(4) . .
O1 C7 C8 C9 173.2(3) . .
O2 N5 C8 C7 -179.0(2) . .
O2 N5 C8 C9 -0.7(5) . .
N1 C1 C2 N2 -1.0(5) . .
N1 C4 C5 N3 -6.8(4) . .
N1 C4 C5 C6 174.3(3) . .
N2 C3 C4 N1 -1.5(4) . .
N2 C3 C4 C5 179.2(2) . .
N3 N4 C7 O1 -1.6(4) . .
N3 N4 C7 C8 -176.7(2) . .
N4 N3 C5 C4 -178.7(2) . .
N4 N3 C5 C6 0.0(4) . .
N4 C7 C8 N5 167.0(3) . .
N4 C7 C8 C9 -11.2(4) . .
C1 N1 C4 C3 1.8(4) . .
C1 N1 C4 C5 -178.8(2) . .
C2 N2 C3 C4 -0.1(4) . .
C3 N2 C2 C1 1.3(4) . .
C3 C4 C5 N3 172.5(2) . .
C3 C4 C5 C6 -6.3(4) . .
C4 N1 C1 C2 -0.7(4) . .
C5 N3 N4 C7 165.4(2) . .
loop_
_platon_squeeze_void_nr
_platon_squeeze_void_average_x
_platon_squeeze_void_average_y
_platon_squeeze_void_average_z
_platon_squeeze_void_volume
_platon_squeeze_void_count_electrons
_platon_squeeze_void_content
1 0.010 -0.013 0.001 13059 3471 ' '
2 0.250 0.250 0.250 90 10 ' '
3 0.750 0.250 0.250 90 10 ' '
4 0.750 0.250 0.750 90 10 ' '
5 0.250 0.250 0.750 90 10 ' '
6 0.250 0.750 0.250 90 10 ' '
7 0.750 0.750 0.250 90 10 ' '
8 0.750 0.750 0.750 90 10 ' '
9 0.250 0.750 0.750 90 10 ' '
