#------------------------------------------------------------------------------
#$Date: 2019-11-17 10:17:14 +0200 (Sun, 17 Nov 2019) $
#$Revision: 229302 $
#$URL: file:///home/coder/svn-repositories/cod/cif/7/04/72/7047269.cif $
#------------------------------------------------------------------------------
#
# This file is available in the Crystallography Open Database (COD),
# http://www.crystallography.net/
#
# All data on this site have been placed in the public domain by the
# contributors.
#
data_7047269
loop_
_publ_author_name
'Li, Mengxue'
'Gul, Salma'
'Tian, Dan'
'Zhou, Enlong'
'Wang, Yangbo'
'Han, Yingdong'
'Yin, Lisha'
'Huang, Ling'
_publ_section_title
;
 Erbium(iii)-based metal-organic frameworks with tunable upconversion
 emissions.
;
_journal_issue                   37
_journal_name_full
'Dalton transactions (Cambridge, England : 2003)'
_journal_page_first              12868
_journal_page_last               12872
_journal_paper_doi               10.1039/c8dt02329h
_journal_volume                  47
_journal_year                    2018
_chemical_formula_sum            'C19 H15 Er0.6 O12.5 Yb0.9'
_chemical_formula_weight         699.39
_space_group_crystal_system      orthorhombic
_space_group_IT_number           72
_space_group_name_Hall           '-I 2 2c'
_space_group_name_H-M_alt        'I b a m'
_symmetry_space_group_name_Hall  '-I 2 2c'
_symmetry_space_group_name_H-M   'I b a m'
_atom_sites_solution_hydrogens   geom
_audit_creation_method           SHELXL-2014/7
_audit_update_record
;
2018-05-16 deposited with the CCDC.
2018-08-15 downloaded from the CCDC.
;
_cell_angle_alpha                90
_cell_angle_beta                 90
_cell_angle_gamma                90
_cell_formula_units_Z            8
_cell_length_a                   23.106(3)
_cell_length_b                   11.6464(14)
_cell_length_c                   18.610(2)
_cell_measurement_reflns_used    6463
_cell_measurement_temperature    298(2)
_cell_measurement_theta_max      28.0101
_cell_measurement_theta_min      2.1888
_cell_volume                     5008.0(10)
_computing_structure_refinement  'SHELXL-2014/7 (Sheldrick, 2014)'
_diffrn_ambient_temperature      298(2)
_diffrn_measured_fraction_theta_full 0.995
_diffrn_measured_fraction_theta_max 0.994
_diffrn_measurement_device_type  'Bruker APEX II'
_diffrn_measurement_method       '\f & \w scans'
_diffrn_radiation_type           MoK\a
_diffrn_radiation_wavelength     0.71073
_diffrn_reflns_av_R_equivalents  0.0803
_diffrn_reflns_av_unetI/netI     0.0512
_diffrn_reflns_Laue_measured_fraction_full 0.995
_diffrn_reflns_Laue_measured_fraction_max 0.994
_diffrn_reflns_limit_h_max       30
_diffrn_reflns_limit_h_min       -30
_diffrn_reflns_limit_k_max       15
_diffrn_reflns_limit_k_min       -13
_diffrn_reflns_limit_l_max       24
_diffrn_reflns_limit_l_min       -24
_diffrn_reflns_number            21006
_diffrn_reflns_point_group_measured_fraction_full 0.995
_diffrn_reflns_point_group_measured_fraction_max 0.994
_diffrn_reflns_theta_full        25.242
_diffrn_reflns_theta_max         28.332
_diffrn_reflns_theta_min         2.811
_exptl_absorpt_coefficient_mu    5.405
_exptl_absorpt_correction_T_max  0.734
_exptl_absorpt_correction_T_min  0.650
_exptl_absorpt_correction_type   multi-scan
_exptl_absorpt_process_details
;
SADABS - Bruker AXS area detector scaling and absorption correction
;
_exptl_crystal_colour            colorless
_exptl_crystal_density_diffrn    1.855
_exptl_crystal_description       Block
_exptl_crystal_F_000             2662
_exptl_crystal_size_max          0.250
_exptl_crystal_size_mid          0.250
_exptl_crystal_size_min          0.230
_refine_diff_density_max         2.139
_refine_diff_density_min         -2.289
_refine_diff_density_rms         0.216
_refine_ls_extinction_coef       0.00019(5)
_refine_ls_extinction_expression Fc^*^=kFc[1+0.001xFc^2^\l^3^/sin(2\q)]^-1/4^
_refine_ls_extinction_method     'SHELXL-2014/7 (Sheldrick 2014'
_refine_ls_goodness_of_fit_ref   0.992
_refine_ls_hydrogen_treatment    constr
_refine_ls_matrix_type           full
_refine_ls_number_parameters     175
_refine_ls_number_reflns         3214
_refine_ls_number_restraints     19
_refine_ls_restrained_S_all      0.992
_refine_ls_R_factor_all          0.0918
_refine_ls_R_factor_gt           0.0547
_refine_ls_shift/su_max          0.000
_refine_ls_shift/su_mean         0.000
_refine_ls_structure_factor_coef Fsqd
_refine_ls_weighting_details
'w=1/[\s^2^(Fo^2^)+(0.0690P)^2^+123.2903P] where P=(Fo^2^+2Fc^2^)/3'
_refine_ls_weighting_scheme      calc
_refine_ls_wR_factor_gt          0.1316
_refine_ls_wR_factor_ref         0.1539
_reflns_Friedel_coverage         0.000
_reflns_number_gt                2195
_reflns_number_total             3214
_reflns_threshold_expression     'I > 2\s(I)'
_cod_data_source_file            c8dt02329h2.cif
_cod_data_source_block           1_sq
_cod_depositor_comments          'Adding full bibliography for 7047269.cif.'
_cod_original_cell_volume        5008.1(11)
_cod_original_formula_sum        'C19 H15 Er0.60 O12.50 Yb0.90'
_cod_database_code               7047269
_shelx_shelxl_version_number     2014/7
_shelx_space_group_comment
;
The symmetry employed for this shelxl refinement is uniquely defined
by the following loop, which should always be used as a source of
symmetry information in preference to the above space-group names.
They are only intended as comments.
;
_shelx_estimated_absorpt_t_min   0.345
_shelx_estimated_absorpt_t_max   0.369
_shelx_res_file
;

    3_sq_s.res created by SHELXL-2014/7


TITL 3 in Ibam
CELL 0.71073 23.1061 11.6464 18.6103 90 90 90
ZERR 8 0.0028 0.0014 0.0023 0 0 0
LATT 2
SYMM -X,-Y,+Z
SYMM 0.5-X,0.5+Y,-Z
SYMM 0.5+X,0.5-Y,-Z
SFAC C  Er H  O  Yb
UNIT 152  4.82  120  100  7.18
OMIT 4 0 0
OMIT 5 3 0
OMIT 6 2 2
OMIT 10 0 2
OMIT 3 2 1
OMIT 2   1   1
OMIT 2   2   2
OMIT 3   1   0
OMIT 4   1   1
L.S. 30
ACTA
FMAP 2
PLAN 50
size 0.23 0.25 0.25
EADP Yb1 Er1
EADP Yb2 Er2
EXYZ Er1 Yb1
EXYZ Yb2 Er2
DFIX 1.50 0.02 C9 C10
SIMU 0.01 0.02 1.7 O5 C9 C10 C11
TEMP 24.73
ABIN
WGHT    0.069000  123.290253
EXTI    0.000194
FVAR       0.03259
part 1
ER1   2    0.185902    0.168579    0.000000    10.20080    0.03923    0.04034 =
         0.01924    0.00000    0.00000   -0.00577
ER2   2    0.000000    0.000000    0.250000    10.10040    0.01967    0.12011 =
         0.02207    0.00000    0.00000    0.00000
YB1   5    0.185902    0.168579    0.000000    10.29920    0.03923    0.04034 =
         0.01924    0.00000    0.00000   -0.00577
YB2   5    0.000000    0.000000    0.250000    10.14960    0.01967    0.12011 =
         0.02207    0.00000    0.00000    0.00000
O1    4    0.066720    0.033757    0.164887    11.00000    0.03240    0.07193 =
         0.02367   -0.00179    0.00084   -0.01206
O2    4    0.123885    0.117960    0.087054    11.00000    0.04348    0.07765 =
         0.01976    0.00422    0.00137   -0.01380
O3    4    0.260136    0.134503    0.087380    11.00000    0.05764    0.04891 =
         0.03697   -0.01079   -0.01436    0.00287
O4    4    0.225548    0.305606    0.076776    11.00000    0.08819    0.04499 =
         0.04494   -0.00619   -0.02760    0.00202
O6    4    0.117481    0.314300    0.000000    10.50000    0.08563    0.06817 =
         0.06003    0.00000    0.00000    0.00199
O7    4    0.194604   -0.030050    0.000000    10.50000    0.08671    0.03941 =
         0.04018    0.00000    0.00000   -0.00273
C4    1    0.293228    0.277833    0.170951    11.00000    0.03223    0.04590 =
         0.03018    0.00052   -0.00173   -0.00747
C7    1    0.109583    0.094246    0.150730    11.00000    0.02906    0.04536 =
         0.03021   -0.00394   -0.00054   -0.00073
C1    1    0.145173    0.140036    0.211651    11.00000    0.02543    0.04825 =
         0.01852   -0.00246    0.00356   -0.00080
C8    1    0.258436    0.238433    0.107950    11.00000    0.04309    0.04099 =
         0.02484   -0.00114    0.00137   -0.01088
C5    1    0.295639    0.395400    0.184490    11.00000    0.03722    0.03891 =
         0.02326   -0.00147   -0.00232   -0.00144
AFIX  43
H5    3    0.276438    0.445981    0.154044    11.00000   -1.20000
AFIX   0
C6    1    0.173505    0.061699    0.256854    11.00000    0.02641    0.03265 =
         0.02705   -0.00226    0.00665   -0.00276
C2    1    0.148823    0.257738    0.224813    11.00000    0.04932    0.04012 =
         0.03271   -0.00179   -0.00669    0.00491
AFIX  43
H2    3    0.130900    0.309532    0.193967    11.00000   -1.20000
AFIX   0
C3    1    0.320680    0.202761    0.215847    11.00000    0.05007    0.03506 =
         0.03660   -0.00052    0.00448   -0.00355
AFIX  43
H3    3    0.318926    0.124369    0.206582    11.00000   -1.20000
AFIX   0
C12   1    0.184710   -0.170288    0.000000    10.50000    0.06920    0.07889 =
         0.02640    0.00000    0.00000    0.02555
AFIX 137
H12A  3    0.189119   -0.199257    0.047983    10.50000   -1.50000
H12B  3    0.212772   -0.205825   -0.030862    10.50000   -1.50000
H12C  3    0.146481   -0.187417   -0.017120    10.50000   -1.50000
AFIX   0
part 2
O5    4    0.025660    0.186834    0.300340    10.50000    0.05189    0.04565 =
         0.05927   -0.00015    0.01662   -0.01231
C9    1    0.000000    0.232341    0.250000    10.25000    0.04107    0.09208 =
         0.05616    0.00000    0.02663    0.00000
C10   1    0.000000    0.362565    0.250000    10.25000    0.05374    0.09693 =
         0.05790    0.00000    0.02044    0.00000
C11   1    0.004425    0.437634    0.313227    10.50000    0.07639    0.09843 =
         0.07153    0.00560    0.01526    0.00386
AFIX  43
H11   3    0.013595    0.403218    0.356859    10.50000   -1.20000
AFIX   0
O1W   4    0.363309    0.003763    0.091108    10.50000    0.05800    0.08388 =
         0.13019   -0.06020   -0.01363    0.01430
part 0
HKLF 4

REM  3 in Ibam
REM R1 =  0.0547 for    2195 Fo > 4sig(Fo)  and  0.0918 for all    3214 data
REM    175 parameters refined using     19 restraints

END

WGHT      0.0641     98.3248

REM Highest difference peak  2.139,  deepest hole -2.289,  1-sigma level  0.216
Q1    1   0.0000  0.1631  0.2500  10.50000  0.05    2.14
Q2    1   0.0000  0.0379  0.2500  10.50000  0.05    2.13
Q3    1   0.1514  0.1689  0.0000  10.50000  0.05    1.84
Q4    1   0.0356  0.0000  0.2500  10.50000  0.05    1.57
Q5    1   0.3139 -0.0018  0.0000  10.50000  0.05    1.45
Q6    1   0.2215  0.1705  0.0000  10.50000  0.05    1.35
Q7    1   0.1104 -0.1776 -0.0546  11.00000  0.05    1.10
Q8    1   0.1898  0.0131  0.0000  10.50000  0.05    1.04
Q9    1   0.3592  0.0428  0.0000  10.50000  0.05    1.00
Q10   1   0.3684  0.0351  0.2539  11.00000  0.05    0.96
Q11   1   0.1618  0.2528  0.0313  11.00000  0.05    0.92
Q12   1   0.0402  0.1606  0.3110  11.00000  0.05    0.90
Q13   1   0.2064  0.2488  0.0403  11.00000  0.05    0.90
Q14   1   0.3595 -0.0060  0.1183  11.00000  0.05    0.89
Q15   1   0.3139  0.0808  0.0000  10.50000  0.05    0.87
Q16   1   0.3780 -0.0334  0.0987  11.00000  0.05    0.77
Q17   1  -0.0272  0.3217  0.3674  11.00000  0.05    0.75
Q18   1   0.1611  0.0958  0.0391  11.00000  0.05    0.74
Q19   1   0.0003  0.1715  0.3106  11.00000  0.05    0.71
Q20   1   0.1988  0.0783  0.0408  11.00000  0.05    0.69
Q21   1   0.0887 -0.0006  0.1735  11.00000  0.05    0.69
Q22   1   0.1877  0.1249  0.0000  10.50000  0.05    0.69
Q23   1   0.3689  0.0960  0.0467  11.00000  0.05    0.68
Q24   1   0.0212  0.3316  0.3532  11.00000  0.05    0.68
Q25   1   0.0708  0.1501  0.0000  10.50000  0.05    0.66
Q26   1   0.0518  0.4574  0.3087  11.00000  0.05    0.65
Q27   1  -0.0484  0.3296  0.3945  11.00000  0.05    0.64
Q28   1   0.1867  0.1690  0.0428  11.00000  0.05    0.60
Q29   1   0.0000  0.0000  0.0385  10.50000  0.05    0.58
Q30   1   0.3281  0.0050  0.2154  11.00000  0.05    0.57
Q31   1  -0.0016  0.3873  0.3888  11.00000  0.05    0.56
Q32   1   0.2241  0.3591  0.0893  11.00000  0.05    0.56
Q33   1   0.1862  0.4114  0.0000  10.50000  0.05    0.56
Q34   1   0.1194 -0.1051 -0.0881  11.00000  0.05    0.55
Q35   1   0.1958  0.2828  0.0000  10.50000  0.05    0.53
Q36   1   0.0189  0.0936  0.2119  11.00000  0.05    0.53
Q37   1  -0.0663  0.3785  0.3604  11.00000  0.05    0.53
Q38   1   0.1126  0.1447  0.0244  11.00000  0.05    0.53
Q39   1   0.2230  0.0252  0.0587  11.00000  0.05    0.52
Q40   1   0.2284  0.3150  0.0554  11.00000  0.05    0.52
Q41   1   0.1869  0.2001  0.0000  10.50000  0.05    0.51
Q42   1   0.1328  0.1335  0.2529  11.00000  0.05    0.51
Q43   1   0.3199  0.3442  0.1330  11.00000  0.05    0.50
Q44   1   0.3075  0.3247  0.1776  11.00000  0.05    0.50
Q45   1   0.2272 -0.0444  0.0000  10.50000  0.05    0.49
Q46   1   0.1889 -0.0641 -0.0428  11.00000  0.05    0.48
Q47   1   0.2482  0.1767  0.1136  11.00000  0.05    0.47
Q48   1   0.0721 -0.0015  0.2231  11.00000  0.05    0.47
Q49   1   0.2309 -0.0614 -0.0321  11.00000  0.05    0.47
Q50   1   0.3730 -0.0052  0.0469  11.00000  0.05    0.47
;
_shelx_res_checksum              3956
_shelx_fab_file
;
    6    0    0      7.78      0.00
    8    0    0      5.23      0.00
   10    0    0     16.49      0.00
   12    0    0     17.15      0.00
   14    0    0      6.10      0.00
   16    0    0     -3.16      0.00
   18    0    0     -3.82      0.00
   20    0    0     -0.71      0.00
   22    0    0     -0.43      0.00
   24    0    0     -4.16      0.00
   26    0    0     -8.42      0.00
   28    0    0     -9.10      0.00
   30    0    0     -5.31      0.00
    5    1    0      5.63      0.00
    7    1    0      4.88      0.00
    9    1    0      9.34      0.00
   11    1    0     12.67      0.00
   13    1    0      8.98      0.00
   15    1    0      1.10      0.00
   17    1    0     -2.52      0.00
   19    1    0      0.63      0.00
   21    1    0      3.81      0.00
   23    1    0      1.20      0.00
   25    1    0     -3.74      0.00
   27    1    0     -3.98      0.00
   29    1    0      0.54      0.00
    0    2    0     -8.43      0.00
    2    2    0     -5.46      0.00
    4    2    0     -0.39      0.00
    6    2    0      0.55      0.00
    8    2    0     -3.15      0.00
   10    2    0     -6.38      0.00
   12    2    0     -5.35      0.00
   14    2    0     -1.34      0.00
   16    2    0      2.16      0.00
   18    2    0      3.33      0.00
   20    2    0      2.63      0.00
   22    2    0      1.54      0.00
   24    2    0      1.41      0.00
   26    2    0      2.35      0.00
   28    2    0      2.85      0.00
   30    2    0      1.58      0.00
    1    3    0      8.38      0.00
    3    3    0     10.13      0.00
    7    3    0     11.24      0.00
    9    3    0      4.92      0.00
   11    3    0     -1.94      0.00
   13    3    0     -2.40      0.00
   15    3    0      2.47      0.00
   17    3    0      4.10      0.00
   19    3    0     -1.12      0.00
   21    3    0     -6.50      0.00
   23    3    0     -5.60      0.00
   25    3    0     -1.94      0.00
   27    3    0     -2.64      0.00
   29    3    0     -6.85      0.00
    0    4    0      1.75      0.00
    2    4    0      8.08      0.00
    4    4    0     18.61      0.00
    6    4    0     19.72      0.00
    8    4    0     10.62      0.00
   10    4    0      2.53      0.00
   12    4    0      2.44      0.00
   14    4    0      5.53      0.00
   16    4    0      4.53      0.00
   18    4    0     -0.35      0.00
   20    4    0     -3.73      0.00
   22    4    0     -3.22      0.00
   24    4    0     -1.27      0.00
   26    4    0     -0.96      0.00
   28    4    0     -2.60      0.00
    1    5    0      1.22      0.00
    3    5    0      3.27      0.00
    5    5    0      5.12      0.00
    7    5    0      5.21      0.00
    9    5    0      4.21      0.00
   11    5    0      3.24      0.00
   13    5    0      2.20      0.00
   15    5    0      0.81      0.00
   17    5    0      0.00      0.00
   19    5    0      1.01      0.00
   21    5    0      3.30      0.00
   23    5    0      4.63      0.00
   25    5    0      3.49      0.00
   27    5    0      0.88      0.00
   29    5    0     -0.67      0.00
    0    6    0      5.91      0.00
    2    6    0      3.43      0.00
    4    6    0     -0.48      0.00
    6    6    0     -0.54      0.00
    8    6    0      2.74      0.00
   10    6    0      4.43      0.00
   12    6    0      2.30      0.00
   14    6    0     -0.97      0.00
   16    6    0     -2.29      0.00
   18    6    0     -1.40      0.00
   20    6    0      0.00      0.00
   22    6    0      0.03      0.00
   24    6    0     -2.40      0.00
   26    6    0     -6.10      0.00
   28    6    0     -7.61      0.00
    1    7    0     11.18      0.00
    3    7    0      4.97      0.00
    5    7    0     -1.86      0.00
    7    7    0     -3.39      0.00
    9    7    0      0.34      0.00
   11    7    0      3.02      0.00
   13    7    0     -0.39      0.00
   15    7    0     -6.83      0.00
   17    7    0     -8.52      0.00
   19    7    0     -3.00      0.00
   21    7    0      3.80      0.00
   23    7    0      5.46      0.00
   25    7    0      2.74      0.00
   27    7    0      0.86      0.00
    0    8    0      5.49      0.00
    2    8    0      2.59      0.00
    4    8    0     -2.68      0.00
    6    8    0     -4.20      0.00
    8    8    0     -0.72      0.00
   10    8    0      2.88      0.00
   12    8    0      2.03      0.00
   14    8    0     -1.59      0.00
   16    8    0     -2.59      0.00
   18    8    0      0.78      0.00
   20    8    0      4.39      0.00
   22    8    0      3.96      0.00
   24    8    0      0.54      0.00
   26    8    0     -1.46      0.00
    1    9    0     -2.45      0.00
    3    9    0     -2.50      0.00
    5    9    0     -1.40      0.00
    7    9    0      0.65      0.00
    9    9    0      1.89      0.00
   11    9    0      1.78      0.00
   13    9    0      1.97      0.00
   15    9    0      3.32      0.00
   17    9    0      4.12      0.00
   19    9    0      2.50      0.00
   21    9    0     -0.67      0.00
   23    9    0     -2.64      0.00
   25    9    0     -1.96      0.00
    0   10    0      1.42      0.00
    2   10    0      2.03      0.00
    4   10    0      2.65      0.00
    6   10    0      1.57      0.00
    8   10    0     -0.79      0.00
   10   10    0     -2.40      0.00
   12   10    0     -2.38      0.00
   14   10    0     -1.89      0.00
   16   10    0     -2.19      0.00
   18   10    0     -2.90      0.00
   20   10    0     -2.87      0.00
   22   10    0     -1.85      0.00
    1   11    0     -0.38      0.00
    3   11    0      1.91      0.00
    5   11    0      3.36      0.00
    7   11    0      2.08      0.00
    9   11    0     -0.11      0.00
   11   11    0     -0.43      0.00
   13   11    0      1.08      0.00
   15   11    0      1.93      0.00
   17   11    0      0.35      0.00
   19   11    0     -2.83      0.00
   21   11    0     -5.35      0.00
    0   12    0     -4.28      0.00
    2   12    0     -2.49      0.00
    4   12    0      1.45      0.00
    6   12    0      4.20      0.00
    8   12    0      3.40      0.00
   10   12    0      0.26      0.00
   12   12    0     -1.45      0.00
   14   12    0      0.24      0.00
   16   12    0      3.14      0.00
   18   12    0      3.89      0.00
    1   13    0     -4.90      0.00
    3   13    0     -3.19      0.00
    5   13    0     -1.04      0.00
    7   13    0      0.28      0.00
    9   13    0      0.36      0.00
   11   13    0     -0.42      0.00
   13   13    0     -1.36      0.00
   15   13    0     -1.63      0.00
    0   14    0     -0.06      0.00
    2   14    0     -0.11      0.00
    4   14    0      0.26      0.00
    6   14    0      1.91      0.00
    8   14    0      4.61      0.00
   10   14    0      6.47      0.00
   12   14    0      5.58      0.00
    1   15    0      6.30      0.00
    3   15    0      2.30      0.00
    5   15    0     -1.84      0.00
    7   15    0     -2.78      0.00
    6    1    1     -3.38      0.00
    8    1    1    -21.38      0.00
   10    1    1    -20.13      0.00
   12    1    1     -8.50      0.00
   14    1    1     -1.73      0.00
   16    1    1     -3.23      0.00
   18    1    1     -6.13      0.00
   20    1    1     -4.94      0.00
   22    1    1     -0.31      0.00
   24    1    1      4.20      0.00
   26    1    1      5.89      0.00
   28    1    1      4.64      0.00
   30    1    1      2.97      0.00
    1    2    1      0.85      0.00
    5    2    1     -2.50      0.00
    7    2    1     -7.75      0.00
    9    2    1     -8.38      0.00
   11    2    1     -0.83      0.00
   13    2    1      8.35      0.00
   15    2    1      8.69      0.00
   17    2    1     -0.10      0.00
   19    2    1     -7.15      0.00
   21    2    1     -5.53      0.00
   23    2    1     -1.28      0.00
   25    2    1     -2.84      0.00
   27    2    1     -8.03      0.00
   29    2    1     -8.49      0.00
    2    3    1     10.58      0.00
    4    3    1     12.83      0.00
    6    3    1      8.13      0.00
    8    3    1      4.40      0.00
   10    3    1      5.37      0.00
   12    3    1      7.26      0.00
   14    3    1      5.78      0.00
   16    3    1      2.17      0.00
   18    3    1      0.33      0.00
   20    3    1      1.01      0.00
   22    3    1      1.44      0.00
   24    3    1     -0.15      0.00
   26    3    1     -2.39      0.00
   28    3    1     -3.11      0.00
   30    3    1     -2.08      0.00
    1    4    1     -0.27      0.00
    3    4    1     -1.19      0.00
    5    4    1     -1.98      0.00
    7    4    1     -1.54      0.00
    9    4    1     -1.25      0.00
   11    4    1     -3.53      0.00
   13    4    1     -6.91      0.00
   15    4    1     -6.52      0.00
   17    4    1     -1.10      0.00
   19    4    1      4.51      0.00
   21    4    1      6.01      0.00
   23    4    1      5.28      0.00
   25    4    1      6.41      0.00
   27    4    1      8.95      0.00
   29    4    1      8.94      0.00
    2    5    1     -9.29      0.00
    4    5    1     -8.00      0.00
    6    5    1      0.47      0.00
    8    5    1      4.48      0.00
   10    5    1      0.05      0.00
   12    5    1     -5.88      0.00
   14    5    1     -6.59      0.00
   16    5    1     -3.39      0.00
   18    5    1     -1.24      0.00
   20    5    1     -1.76      0.00
   22    5    1     -2.79      0.00
   24    5    1     -1.99      0.00
   26    5    1      1.06      0.00
   28    5    1      4.51      0.00
    1    6    1     -2.19      0.00
    3    6    1     -4.14      0.00
    5    6    1     -1.22      0.00
    7    6    1      3.97      0.00
    9    6    1      6.37      0.00
   11    6    1      3.98      0.00
   13    6    1     -0.05      0.00
   15    6    1     -1.56      0.00
   17    6    1     -0.64      0.00
   19    6    1     -0.78      0.00
   21    6    1     -3.13      0.00
   23    6    1     -4.52      0.00
   25    6    1     -2.31      0.00
   27    6    1      1.24      0.00
    2    7    1     -2.54      0.00
    4    7    1     -2.79      0.00
    6    7    1     -0.54      0.00
    8    7    1      1.90      0.00
   10    7    1      2.12      0.00
   12    7    1      0.53      0.00
   14    7    1     -0.28      0.00
   16    7    1      0.73      0.00
   18    7    1      1.64      0.00
   20    7    1      0.90      0.00
   22    7    1     -0.17      0.00
   24    7    1      0.21      0.00
   26    7    1      0.97      0.00
    1    8    1      2.06      0.00
    3    8    1      4.46      0.00
    5    8    1      2.94      0.00
    7    8    1     -1.24      0.00
    9    8    1     -3.83      0.00
   11    8    1     -2.03      0.00
   13    8    1      1.49      0.00
   15    8    1      1.42      0.00
   17    8    1     -3.16      0.00
   19    8    1     -7.20      0.00
   21    8    1     -6.08      0.00
   23    8    1     -1.10      0.00
   25    8    1      2.92      0.00
    2    9    1      3.18      0.00
    4    9    1      2.46      0.00
    6    9    1     -0.98      0.00
    8    9    1     -2.54      0.00
   10    9    1     -0.27      0.00
   12    9    1      2.77      0.00
   14    9    1      2.80      0.00
   16    9    1      0.19      0.00
   18    9    1     -1.37      0.00
   20    9    1      0.09      0.00
   22    9    1      2.48      0.00
   24    9    1      2.66      0.00
    1   10    1      1.93      0.00
    3   10    1      3.78      0.00
    5   10    1      2.20      0.00
    7   10    1     -0.06      0.00
    9   10    1     -0.28      0.00
   11   10    1      0.96      0.00
   13   10    1      1.48      0.00
   15   10    1      0.85      0.00
   17   10    1      0.40      0.00
   19   10    1      0.77      0.00
   21   10    1      1.09      0.00
   23   10    1      0.46      0.00
    2   11    1      0.74      0.00
    4   11    1      0.67      0.00
    6   11    1     -0.76      0.00
    8   11    1     -2.96      0.00
   10   11    1     -4.18      0.00
   12   11    1     -3.52      0.00
   14   11    1     -2.22      0.00
   16   11    1     -1.97      0.00
   18   11    1     -2.66      0.00
   20   11    1     -2.79      0.00
    1   12    1     -1.36      0.00
    3   12    1     -2.96      0.00
    5   12    1     -2.52      0.00
    7   12    1     -1.43      0.00
    9   12    1     -1.33      0.00
   11   12    1     -1.97      0.00
   13   12    1     -1.67      0.00
   15   12    1      0.45      0.00
   17   12    1      3.24      0.00
   19   12    1      4.58      0.00
    2   13    1     -1.57      0.00
    4   13    1     -0.65      0.00
    6   13    1      2.81      0.00
    8   13    1      6.00      0.00
   10   13    1      5.91      0.00
   12   13    1      2.88      0.00
   14   13    1      0.39      0.00
   16   13    1      0.83      0.00
    1   14    1     -3.29      0.00
    3   14    1     -7.35      0.00
    5   14    1     -6.44      0.00
    7   14    1     -2.81      0.00
    9   14    1     -0.18      0.00
   11   14    1      0.05      0.00
   13   14    1     -0.89      0.00
    2   15    1     -0.01      0.00
    4   15    1     -0.12      0.00
    6   15    1     -0.23      0.00
    2    0    2     80.39      0.00
    4    0    2     35.94      0.00
    6    0    2      6.58      0.00
    8    0    2      5.23      0.00
   12    0    2     13.96      0.00
   14    0    2      5.27      0.00
   16    0    2     -1.22      0.00
   18    0    2     -1.32      0.00
   20    0    2      0.70      0.00
   22    0    2      0.51      0.00
   24    0    2     -2.24      0.00
   26    0    2     -5.50      0.00
   28    0    2     -6.64      0.00
   30    0    2     -4.50      0.00
    1    1    2     15.65      0.00
    3    1    2     11.56      0.00
    5    1    2      6.63      0.00
    7    1    2      5.29      0.00
    9    1    2      8.39      0.00
   11    1    2     10.99      0.00
   13    1    2      7.94      0.00
   15    1    2      1.30      0.00
   17    1    2     -1.73      0.00
   19    1    2      1.00      0.00
   21    1    2      3.52      0.00
   23    1    2      0.75      0.00
   25    1    2     -3.93      0.00
   27    1    2     -4.12      0.00
   29    1    2      0.12      0.00
    0    2    2     -0.64      0.00
    4    2    2      2.70      0.00
    8    2    2     -1.88      0.00
   10    2    2     -3.81      0.00
   12    2    2     -2.56      0.00
   14    2    2     -0.10      0.00
   16    2    2      1.29      0.00
   18    2    2      1.40      0.00
   20    2    2      1.05      0.00
   22    2    2      0.84      0.00
   24    2    2      1.08      0.00
   26    2    2      1.74      0.00
   28    2    2      1.86      0.00
   30    2    2      0.67      0.00
    1    3    2      7.77      0.00
    3    3    2      8.68      0.00
    5    3    2     10.27      0.00
    7    3    2      9.72      0.00
    9    3    2      4.61      0.00
   11    3    2     -1.56      0.00
   13    3    2     -2.39      0.00
   15    3    2      1.82      0.00
   17    3    2      3.61      0.00
   19    3    2     -0.57      0.00
   21    3    2     -5.09      0.00
   23    3    2     -4.39      0.00
   25    3    2     -1.68      0.00
   27    3    2     -3.04      0.00
   29    3    2     -7.15      0.00
    0    4    2     -1.05      0.00
    2    4    2      4.85      0.00
    4    4    2     14.90      0.00
    6    4    2     16.65      0.00
    8    4    2      9.18      0.00
   10    4    2      2.28      0.00
   12    4    2      2.04      0.00
   14    4    2      4.46      0.00
   16    4    2      3.62      0.00
   18    4    2     -0.13      0.00
   20    4    2     -2.71      0.00
   22    4    2     -2.60      0.00
   24    4    2     -1.59      0.00
   26    4    2     -1.36      0.00
   28    4    2     -1.94      0.00
    1    5    2      4.51      0.00
    3    5    2      5.45      0.00
    5    5    2      5.89      0.00
    7    5    2      5.07      0.00
    9    5    2      3.75      0.00
   11    5    2      2.69      0.00
   13    5    2      1.60      0.00
   15    5    2      0.28      0.00
   17    5    2     -0.33      0.00
   19    5    2      0.70      0.00
   21    5    2      2.64      0.00
   23    5    2      3.49      0.00
   25    5    2      2.16      0.00
   27    5    2     -0.19      0.00
   29    5    2     -1.32      0.00
    0    6    2      6.23      0.00
    2    6    2      4.07      0.00
    4    6    2      0.66      0.00
    6    6    2      0.49      0.00
    8    6    2      2.98      0.00
   10    6    2      3.97      0.00
   12    6    2      1.93      0.00
   14    6    2     -0.70      0.00
   16    6    2     -1.66      0.00
   18    6    2     -1.16      0.00
   20    6    2     -0.42      0.00
   22    6    2     -0.54      0.00
   24    6    2     -2.39      0.00
   26    6    2     -5.34      0.00
   28    6    2     -6.61      0.00
    1    7    2      7.33      0.00
    3    7    2      2.68      0.00
    5    7    2     -2.48      0.00
    7    7    2     -3.50      0.00
    9    7    2     -0.16      0.00
   11    7    2      2.47      0.00
   13    7    2     -0.05      0.00
   15    7    2     -5.44      0.00
   17    7    2     -7.06      0.00
   19    7    2     -2.51      0.00
   21    7    2      3.29      0.00
   23    7    2      4.82      0.00
   25    7    2      2.72      0.00
   27    7    2      1.35      0.00
    0    8    2      5.48      0.00
    2    8    2      2.92      0.00
    4    8    2     -1.77      0.00
    6    8    2     -3.30      0.00
    8    8    2     -0.48      0.00
   10    8    2      2.52      0.00
   12    8    2      1.67      0.00
   14    8    2     -1.71      0.00
   16    8    2     -2.90      0.00
   18    8    2     -0.20      0.00
   20    8    2      2.98      0.00
   22    8    2      2.84      0.00
   24    8    2      0.10      0.00
   26    8    2     -1.57      0.00
    1    9    2     -0.27      0.00
    3    9    2     -0.99      0.00
    5    9    2     -0.78      0.00
    7    9    2      0.68      0.00
    9    9    2      1.84      0.00
   11    9    2      1.92      0.00
   13    9    2      2.13      0.00
   15    9    2      3.18      0.00
   17    9    2      3.63      0.00
   19    9    2      1.93      0.00
   21    9    2     -1.02      0.00
   23    9    2     -2.76      0.00
    0   10    2     -0.01      0.00
    2   10    2      0.58      0.00
    4   10    2      1.28      0.00
    6   10    2      0.57      0.00
    8   10    2     -1.24      0.00
   10   10    2     -2.43      0.00
   12   10    2     -2.26      0.00
   14   10    2     -1.65      0.00
   16   10    2     -1.55      0.00
   18   10    2     -1.76      0.00
   20   10    2     -1.52      0.00
   22   10    2     -0.73      0.00
    1   11    2     -1.14      0.00
    3   11    2      1.24      0.00
    5   11    2      3.01      0.00
    7   11    2      2.22      0.00
    9   11    2      0.27      0.00
   11   11    2     -0.43      0.00
   13   11    2      0.33      0.00
   15   11    2      0.74      0.00
   17   11    2     -0.46      0.00
   19   11    2     -2.64      0.00
   21   11    2     -4.30      0.00
    0   12    2     -2.47      0.00
    2   12    2     -1.25      0.00
    4   12    2      1.45      0.00
    6   12    2      3.31      0.00
    8   12    2      2.50      0.00
   10   12    2     -0.17      0.00
   12   12    2     -1.72      0.00
   14   12    2     -0.47      0.00
   16   12    2      1.86      0.00
   18   12    2      2.49      0.00
    1   13    2     -4.31      0.00
    3   13    2     -2.84      0.00
    5   13    2     -1.07      0.00
    7   13    2     -0.07      0.00
    9   13    2      0.06      0.00
   11   13    2     -0.22      0.00
   13   13    2     -0.55      0.00
   15   13    2     -0.64      0.00
    0   14    2     -1.90      0.00
    2   14    2     -1.46      0.00
    4   14    2     -0.10      0.00
    6   14    2      2.18      0.00
    8   14    2      4.76      0.00
   10   14    2      6.18      0.00
   12   14    2      5.16      0.00
    1   15    2      6.19      0.00
    3   15    2      2.48      0.00
    5   15    2     -1.32      0.00
    7   15    2     -2.15      0.00
    2    1    3     13.59      0.00
    4    1    3     11.74      0.00
    6    1    3     -1.78      0.00
    8    1    3    -11.01      0.00
   10    1    3     -8.91      0.00
   12    1    3     -2.77      0.00
   14    1    3     -0.88      0.00
   16    1    3     -2.77      0.00
   18    1    3     -3.96      0.00
   20    1    3     -3.16      0.00
   22    1    3     -1.73      0.00
   24    1    3     -0.35      0.00
   26    1    3      0.68      0.00
   28    1    3      0.75      0.00
   30    1    3      0.39      0.00
    1    2    3     -0.41      0.00
    3    2    3     -1.23      0.00
    5    2    3     -3.01      0.00
    7    2    3     -6.11      0.00
    9    2    3     -7.12      0.00
   11    2    3     -2.48      0.00
   13    2    3      4.36      0.00
   15    2    3      5.50      0.00
   17    2    3     -0.23      0.00
   19    2    3     -5.11      0.00
   21    2    3     -3.93      0.00
   23    2    3     -1.43      0.00
   25    2    3     -3.81      0.00
   27    2    3     -8.45      0.00
   29    2    3     -8.32      0.00
    2    3    3      8.44      0.00
    4    3    3      9.17      0.00
    6    3    3      3.46      0.00
    8    3    3     -1.15      0.00
   10    3    3     -0.61      0.00
   12    3    3      2.12      0.00
   14    3    3      2.74      0.00
   16    3    3      1.11      0.00
   18    3    3     -0.21      0.00
   20    3    3     -0.05      0.00
   22    3    3      0.77      0.00
   24    3    3      1.57      0.00
   26    3    3      2.42      0.00
   28    3    3      2.99      0.00
   30    3    3      2.50      0.00
    1    4    3     -0.14      0.00
    3    4    3     -0.82      0.00
    5    4    3     -1.39      0.00
    7    4    3     -0.40      0.00
    9    4    3      0.98      0.00
   11    4    3     -0.06      0.00
   13    4    3     -3.05      0.00
   15    4    3     -3.87      0.00
   17    4    3     -0.74      0.00
   19    4    3      2.99      0.00
   21    4    3      4.12      0.00
   23    4    3      4.14      0.00
   25    4    3      5.91      0.00
   27    4    3      8.36      0.00
   29    4    3      8.00      0.00
    2    5    3     -6.80      0.00
    4    5    3     -5.60      0.00
    6    5    3      0.87      0.00
    8    5    3      3.93      0.00
   10    5    3      0.91      0.00
   12    5    3     -3.11      0.00
   14    5    3     -3.91      0.00
   16    5    3     -2.69      0.00
   18    5    3     -1.98      0.00
   20    5    3     -1.83      0.00
   22    5    3     -1.38      0.00
   24    5    3     -0.56      0.00
   26    5    3      0.70      0.00
   28    5    3      2.49      0.00
    1    6    3     -0.86      0.00
    3    6    3     -1.60      0.00
    5    6    3     -0.28      0.00
    7    6    3      2.07      0.00
    9    6    3      2.85      0.00
   11    6    3      0.70      0.00
   13    6    3     -2.51      0.00
   15    6    3     -3.70      0.00
   17    6    3     -2.46      0.00
   19    6    3     -1.23      0.00
   21    6    3     -1.39      0.00
   23    6    3     -1.29      0.00
   25    6    3      0.64      0.00
   27    6    3      2.74      0.00
    2    7    3     -1.82      0.00
    4    7    3     -1.79      0.00
    6    7    3      0.28      0.00
    8    7    3      2.39      0.00
   10    7    3      2.27      0.00
   12    7    3      0.20      0.00
   14    7    3     -1.18      0.00
   16    7    3     -0.41      0.00
   18    7    3      0.93      0.00
   20    7    3      0.93      0.00
   22    7    3      0.16      0.00
   24    7    3      0.12      0.00
   26    7    3      0.41      0.00
    1    8    3      0.98      0.00
    3    8    3      2.37      0.00
    5    8    3      2.06      0.00
    7    8    3      0.09      0.00
    9    8    3     -1.40      0.00
   11    8    3     -0.37      0.00
   13    8    3      1.72      0.00
   15    8    3      1.17      0.00
   17    8    3     -2.80      0.00
   19    8    3     -6.42      0.00
   21    8    3     -6.08      0.00
   23    8    3     -2.63      0.00
   25    8    3      0.47      0.00
    2    9    3      1.45      0.00
    4    9    3      0.49      0.00
    6    9    3     -1.99      0.00
    8    9    3     -2.96      0.00
   10    9    3     -1.27      0.00
   12    9    3      0.93      0.00
   14    9    3      1.07      0.00
   16    9    3     -0.60      0.00
   18    9    3     -1.61      0.00
   20    9    3     -0.57      0.00
   22    9    3      1.25      0.00
   24    9    3      1.79      0.00
    1   10    3      1.79      0.00
    3   10    3      3.50      0.00
    5   10    3      1.94      0.00
    7   10    3     -0.55      0.00
    9   10    3     -1.42      0.00
   11   10    3     -0.78      0.00
   13   10    3     -0.10      0.00
   15   10    3      0.27      0.00
   17   10    3      0.91      0.00
   19   10    3      1.75      0.00
   21   10    3      1.91      0.00
   23   10    3      1.06      0.00
    2   11    3      0.61      0.00
    4   11    3      1.08      0.00
    6   11    3      0.89      0.00
    8   11    3     -0.06      0.00
   10   11    3     -0.87      0.00
   12   11    3     -0.78      0.00
   14   11    3     -0.37      0.00
   16   11    3     -0.57      0.00
   18   11    3     -1.11      0.00
   20   11    3     -1.04      0.00
    1   12    3     -1.40      0.00
    3   12    3     -3.18      0.00
    5   12    3     -2.96      0.00
    7   12    3     -1.65      0.00
    9   12    3     -0.73      0.00
   11   12    3     -0.52      0.00
   13   12    3     -0.24      0.00
   15   12    3      0.79      0.00
   17   12    3      2.31      0.00
   19   12    3      3.31      0.00
    2   13    3     -0.12      0.00
    4   13    3      0.52      0.00
    6   13    3      1.98      0.00
    8   13    3      3.07      0.00
   10   13    3      2.31      0.00
   12   13    3     -0.05      0.00
   14   13    3     -1.67      0.00
   16   13    3     -0.97      0.00
    1   14    3     -2.79      0.00
    3   14    3     -6.06      0.00
    5   14    3     -4.92      0.00
    7   14    3     -1.62      0.00
    9   14    3      0.43      0.00
   11   14    3      0.34      0.00
    2   15    3     -1.10      0.00
    4   15    3     -1.26      0.00
    6   15    3     -0.36      0.00
    0    0    4     50.27      0.00
    2    0    4     39.57      0.00
    4    0    4     18.62      0.00
    6    0    4      6.23      0.00
    8    0    4      6.46      0.00
   10    0    4      9.05      0.00
   12    0    4      7.03      0.00
   14    0    4      3.68      0.00
   16    0    4      3.01      0.00
   18    0    4      3.35      0.00
   20    0    4      2.33      0.00
   22    0    4      1.19      0.00
   24    0    4      1.13      0.00
   26    0    4      0.49      0.00
   28    0    4     -1.62      0.00
   30    0    4     -3.13      0.00
    1    1    4     13.53      0.00
    3    1    4     11.96      0.00
    5    1    4      8.88      0.00
    7    1    4      6.20      0.00
    9    1    4      5.96      0.00
   11    1    4      6.79      0.00
   13    1    4      5.32      0.00
   15    1    4      1.77      0.00
   17    1    4      0.17      0.00
   19    1    4      1.87      0.00
   21    1    4      2.81      0.00
   23    1    4     -0.20      0.00
   25    1    4     -4.14      0.00
   27    1    4     -4.14      0.00
   29    1    4     -0.69      0.00
    0    2    4     12.60      0.00
    2    2    4     11.03      0.00
    4    2    4      6.86      0.00
    6    2    4      2.17      0.00
    8    2    4      0.00      0.00
   10    2    4      1.24      0.00
   12    2    4      3.07      0.00
   14    2    4      2.31      0.00
   16    2    4     -0.58      0.00
   18    2    4     -2.46      0.00
   20    2    4     -1.84      0.00
   22    2    4     -0.09      0.00
   24    2    4      1.04      0.00
   26    2    4      1.17      0.00
   28    2    4      0.52      0.00
   30    2    4     -0.64      0.00
    1    3    4      7.64      0.00
    3    3    4      6.08      0.00
    5    3    4      5.68      0.00
    7    3    4      6.07      0.00
    9    3    4      3.92      0.00
   11    3    4     -0.39      0.00
   13    3    4     -2.05      0.00
   15    3    4      0.42      0.00
   17    3    4      2.41      0.00
   19    3    4      0.62      0.00
   21    3    4     -1.90      0.00
   23    3    4     -1.72      0.00
   25    3    4     -1.20      0.00
   27    3    4     -3.92      0.00
   29    3    4     -7.54      0.00
    0    4    4     -4.52      0.00
    2    4    4     -0.07      0.00
    4    4    4      7.83      0.00
    6    4    4     10.35      0.00
    8    4    4      6.58      0.00
   10    4    4      2.56      0.00
   12    4    4      1.76      0.00
   14    4    4      2.02      0.00
   16    4    4      1.08      0.00
   18    4    4     -0.10      0.00
   20    4    4     -0.53      0.00
   22    4    4     -1.19      0.00
   24    4    4     -2.48      0.00
   26    4    4     -2.66      0.00
   28    4    4     -0.89      0.00
    1    5    4      9.85      0.00
    3    5    4      8.67      0.00
    5    5    4      6.51      0.00
    7    5    4      4.13      0.00
    9    5    4      2.36      0.00
   11    5    4      1.20      0.00
   13    5    4      0.09      0.00
   15    5    4     -0.91      0.00
   17    5    4     -0.93      0.00
   19    5    4      0.25      0.00
   21    5    4      1.48      0.00
   23    5    4      1.34      0.00
   25    5    4     -0.29      0.00
   27    5    4     -2.06      0.00
    0    6    4      5.93      0.00
    2    6    4      4.67      0.00
    4    6    4      2.70      0.00
    6    6    4      2.47      0.00
    8    6    4      3.12      0.00
   10    6    4      2.44      0.00
   12    6    4      0.69      0.00
   14    6    4     -0.19      0.00
   16    6    4     -0.06      0.00
   18    6    4     -0.32      0.00
   20    6    4     -1.19      0.00
   22    6    4     -1.82      0.00
   24    6    4     -2.40      0.00
   26    6    4     -3.58      0.00
    1    7    4     -0.07      0.00
    3    7    4     -1.21      0.00
    5    7    4     -2.73      0.00
    7    7    4     -2.90      0.00
    9    7    4     -0.82      0.00
   11    7    4      1.47      0.00
   13    7    4      0.89      0.00
   15    7    4     -2.12      0.00
   17    7    4     -3.61      0.00
   19    7    4     -1.45      0.00
   21    7    4      1.83      0.00
   23    7    4      2.90      0.00
   25    7    4      2.08      0.00
   27    7    4      1.85      0.00
    0    8    4      4.65      0.00
    2    8    4      3.11      0.00
    4    8    4      0.16      0.00
    6    8    4     -1.14      0.00
    8    8    4      0.10      0.00
   10    8    4      1.60      0.00
   12    8    4      0.82      0.00
   14    8    4     -1.72      0.00
   16    8    4     -3.18      0.00
   18    8    4     -2.06      0.00
   20    8    4     -0.05      0.00
   22    8    4      0.45      0.00
   24    8    4     -0.67      0.00
    1    9    4      3.36      0.00
    3    9    4      1.41      0.00
    5    9    4     -0.08      0.00
    7    9    4      0.28      0.00
    9    9    4      1.38      0.00
   11    9    4      1.96      0.00
   13    9    4      2.34      0.00
   15    9    4      2.85      0.00
   17    9    4      2.61      0.00
   19    9    4      0.84      0.00
   21    9    4     -1.50      0.00
   23    9    4     -2.65      0.00
    0   10    4     -2.21      0.00
    2   10    4     -1.82      0.00
    4   10    4     -1.23      0.00
    6   10    4     -1.28      0.00
    8   10    4     -1.83      0.00
   10   10    4     -2.11      0.00
   12   10    4     -1.84      0.00
   14   10    4     -1.33      0.00
   16   10    4     -0.71      0.00
   18   10    4      0.16      0.00
   20   10    4      1.04      0.00
   22   10    4      1.45      0.00
    1   11    4     -2.26      0.00
    3   11    4      0.09      0.00
    5   11    4      2.37      0.00
    7   11    4      2.72      0.00
    9   11    4      1.53      0.00
   11   11    4      0.17      0.00
   13   11    4     -0.83      0.00
   15   11    4     -1.63      0.00
   17   11    4     -2.18      0.00
   19   11    4     -2.28      0.00
   21   11    4     -2.09      0.00
    0   12    4      0.90      0.00
    2   12    4      0.88      0.00
    4   12    4      0.97      0.00
    6   12    4      0.98      0.00
    8   12    4      0.19      0.00
   10   12    4     -1.39      0.00
   12   12    4     -2.44      0.00
   14   12    4     -1.93      0.00
   16   12    4     -0.67      0.00
   18   12    4     -0.21      0.00
    1   13    4     -3.25      0.00
    3   13    4     -2.15      0.00
    5   13    4     -1.08      0.00
    7   13    4     -0.73      0.00
    9   13    4     -0.60      0.00
   11   13    4      0.05      0.00
   13   13    4      0.95      0.00
   15   13    4      1.29      0.00
    0   14    4     -5.29      0.00
    2   14    4     -3.95      0.00
    4   14    4     -0.78      0.00
    6   14    4      2.49      0.00
    8   14    4      4.61      0.00
   10   14    4      5.12      0.00
   12   14    4      4.01      0.00
    1   15    4      5.77      0.00
    3   15    4      2.72      0.00
    5   15    4     -0.27      0.00
    2    1    5      2.29      0.00
    4    1    5      1.06      0.00
    6    1    5     -1.06      0.00
    8    1    5     -0.18      0.00
   10    1    5      1.80      0.00
   12    1    5      0.55      0.00
   14    1    5     -2.90      0.00
   16    1    5     -3.79      0.00
   18    1    5     -1.75      0.00
   20    1    5     -1.19      0.00
   22    1    5     -3.74      0.00
   24    1    5     -5.87      0.00
   26    1    5     -4.99      0.00
   28    1    5     -2.98      0.00
   30    1    5     -2.04      0.00
    1    2    5     -2.34      0.00
    3    2    5     -4.57      0.00
    5    2    5     -3.41      0.00
    7    2    5     -2.72      0.00
    9    2    5     -3.82      0.00
   11    2    5     -3.38      0.00
   13    2    5     -0.25      0.00
   15    2    5      1.68      0.00
   17    2    5      0.03      0.00
   19    2    5     -2.07      0.00
   21    2    5     -1.86      0.00
   23    2    5     -2.00      0.00
   25    2    5     -5.39      0.00
   27    2    5     -9.02      0.00
   29    2    5     -7.99      0.00
    2    3    5      5.08      0.00
    4    3    5      4.47      0.00
    6    3    5     -0.87      0.00
    8    3    5     -5.15      0.00
   10    3    5     -4.95      0.00
   12    3    5     -1.95      0.00
   14    3    5      0.51      0.00
   16    3    5      1.03      0.00
   18    3    5      0.09      0.00
   20    3    5     -1.19      0.00
   22    3    5     -1.10      0.00
   24    3    5      1.75      0.00
   26    3    5      6.31      0.00
   28    3    5      9.00      0.00
    1    4    5      0.43      0.00
    3    4    5      0.40      0.00
    5    4    5     -0.36      0.00
    7    4    5      0.29      0.00
    9    4    5      2.25      0.00
   11    4    5      2.68      0.00
   13    4    5      0.63      0.00
   15    4    5     -1.21      0.00
   17    4    5     -0.69      0.00
   19    4    5      0.85      0.00
   21    4    5      1.65      0.00
   23    4    5      2.60      0.00
   25    4    5      4.84      0.00
   27    4    5      6.69      0.00
   29    4    5      5.73      0.00
    2    5    5     -2.90      0.00
    4    5    5     -2.15      0.00
    6    5    5      0.55      0.00
    8    5    5      1.38      0.00
   10    5    5      0.20      0.00
   12    5    5     -0.65      0.00
   14    5    5     -1.09      0.00
   16    5    5     -2.56      0.00
   18    5    5     -4.00      0.00
   20    5    5     -2.91      0.00
   22    5    5      0.01      0.00
   24    5    5      1.43      0.00
   26    5    5      0.57      0.00
   28    5    5      0.12      0.00
    1    6    5      0.97      0.00
    3    6    5      2.00      0.00
    5    6    5      1.50      0.00
    7    6    5      0.52      0.00
    9    6    5     -0.38      0.00
   11    6    5     -1.92      0.00
   13    6    5     -4.11      0.00
   15    6    5     -5.33      0.00
   17    6    5     -4.33      0.00
   19    6    5     -1.99      0.00
   21    6    5      0.14      0.00
   23    6    5      1.80      0.00
   25    6    5      3.33      0.00
   27    6    5      3.90      0.00
    2    7    5     -0.67      0.00
    4    7    5     -0.29      0.00
    6    7    5      1.36      0.00
    8    7    5      2.96      0.00
   10    7    5      2.52      0.00
   12    7    5      0.01      0.00
   14    7    5     -2.07      0.00
   16    7    5     -1.70      0.00
   18    7    5      0.18      0.00
   20    7    5      1.31      0.00
   22    7    5      1.06      0.00
   24    7    5      0.42      0.00
   26    7    5     -0.07      0.00
    1    8    5     -0.53      0.00
    3    8    5     -0.67      0.00
    5    8    5      0.42      0.00
    7    8    5      1.22      0.00
    9    8    5      1.11      0.00
   11    8    5      1.12      0.00
   13    8    5      1.43      0.00
   15    8    5      0.50      0.00
   17    8    5     -2.22      0.00
   19    8    5     -4.75      0.00
   21    8    5     -5.02      0.00
   23    8    5     -3.45      0.00
   25    8    5     -1.72      0.00
    2    9    5     -1.11      0.00
    4    9    5     -2.14      0.00
    6    9    5     -2.66      0.00
    8    9    5     -2.37      0.00
   10    9    5     -1.56      0.00
   12    9    5     -0.98      0.00
   14    9    5     -1.04      0.00
   16    9    5     -1.43      0.00
   18    9    5     -1.56      0.00
   20    9    5     -1.14      0.00
   22    9    5     -0.36      0.00
   24    9    5      0.40      0.00
    1   10    5      1.41      0.00
    3   10    5      2.81      0.00
    5   10    5      1.66      0.00
    7   10    5     -0.57      0.00
    9   10    5     -2.05      0.00
   11   10    5     -2.46      0.00
   13   10    5     -2.09      0.00
   15   10    5     -0.89      0.00
   17   10    5      0.92      0.00
   19   10    5      2.25      0.00
   21   10    5      2.22      0.00
    2   11    5      0.12      0.00
    4   11    5      0.85      0.00
    6   11    5      1.81      0.00
    8   11    5      2.29      0.00
   10   11    5      2.28      0.00
   12   11    5      2.07      0.00
   14   11    5      1.53      0.00
   16   11    5      0.63      0.00
   18   11    5      0.03      0.00
   20   11    5      0.29      0.00
    1   12    5     -1.24      0.00
    3   12    5     -3.05      0.00
    5   12    5     -3.30      0.00
    7   12    5     -2.16      0.00
    9   12    5     -0.45      0.00
   11   12    5      0.91      0.00
   13   12    5      1.42      0.00
   15   12    5      1.27      0.00
   17   12    5      1.22      0.00
    2   13    5      1.77      0.00
    4   13    5      2.33      0.00
    6   13    5      1.76      0.00
    8   13    5      0.73      0.00
   10   13    5     -0.65      0.00
   12   13    5     -2.24      0.00
   14   13    5     -3.11      0.00
    1   14    5     -2.16      0.00
    3   14    5     -4.43      0.00
    5   14    5     -2.92      0.00
    7   14    5      0.09      0.00
    9   14    5      1.59      0.00
   11   14    5      1.18      0.00
    2   15    5     -2.08      0.00
    4   15    5     -2.25      0.00
    0    0    6     10.51      0.00
    2    0    6      9.70      0.00
    4    0    6      9.09      0.00
    6    0    6      9.95      0.00
    8    0    6      9.18      0.00
   10    0    6      4.77      0.00
   12    0    6      1.07      0.00
   14    0    6      2.66      0.00
   16    0    6      6.23      0.00
   18    0    6      5.17      0.00
   20    0    6      0.37      0.00
   22    0    6     -1.12      0.00
   24    0    6      2.51      0.00
   26    0    6      4.99      0.00
   28    0    6      2.02      0.00
    1    1    6      9.69      0.00
    3    1    6     11.23      0.00
    5    1    6     10.68      0.00
    7    1    6      6.89      0.00
    9    1    6      3.16      0.00
   11    1    6      2.09      0.00
   13    1    6      2.37      0.00
   15    1    6      2.17      0.00
   17    1    6      2.06      0.00
   19    1    6      2.61      0.00
   21    1    6      2.03      0.00
   23    1    6     -0.85      0.00
   25    1    6     -3.66      0.00
   27    1    6     -3.47      0.00
   29    1    6     -1.10      0.00
    0    2    6     15.12      0.00
    2    2    6     12.02      0.00
    4    2    6      5.13      0.00
    6    2    6     -0.10      0.00
    8    2    6      0.21      0.00
   10    2    6      4.39      0.00
   12    2    6      6.66      0.00
   14    2    6      3.61      0.00
   16    2    6     -1.93      0.00
   18    2    6     -4.66      0.00
   20    2    6     -2.99      0.00
   22    2    6      0.27      0.00
   24    2    6      2.15      0.00
   26    2    6      2.17      0.00
   28    2    6      1.13      0.00
    1    3    6     10.19      0.00
    3    3    6      5.12      0.00
    5    3    6      1.46      0.00
    7    3    6      2.20      0.00
    9    3    6      3.26      0.00
   11    3    6      1.32      0.00
   13    3    6     -1.07      0.00
   15    3    6     -0.65      0.00
   17    3    6      1.12      0.00
   19    3    6      1.49      0.00
   21    3    6      0.85      0.00
   23    3    6      0.46      0.00
   25    3    6     -0.96      0.00
   27    3    6     -4.41      0.00
   29    3    6     -6.90      0.00
    0    4    6     -1.69      0.00
    2    4    6      0.23      0.00
    4    4    6      3.72      0.00
    6    4    6      5.39      0.00
    8    4    6      5.09      0.00
   10    4    6      4.30      0.00
   12    4    6      2.68      0.00
   14    4    6     -0.28      0.00
   16    4    6     -2.30      0.00
   18    4    6     -1.06      0.00
   20    4    6      1.24      0.00
   22    4    6      0.32      0.00
   24    4    6     -3.35      0.00
   26    4    6     -4.53      0.00
   28    4    6     -0.90      0.00
    1    5    6      9.89      0.00
    3    5    6      7.71      0.00
    5    5    6      4.57      0.00
    7    5    6      1.96      0.00
    9    5    6      0.42      0.00
   11    5    6     -0.59      0.00
   13    5    6     -1.54      0.00
   15    5    6     -1.94      0.00
   17    5    6     -1.17      0.00
   19    5    6      0.21      0.00
   21    5    6      0.83      0.00
   23    5    6      0.07      0.00
   25    5    6     -1.40      0.00
   27    5    6     -2.56      0.00
    0    6    6      3.84      0.00
    2    6    6      3.69      0.00
    4    6    6      3.66      0.00
    6    6    6      3.70      0.00
    8    6    6      2.56      0.00
   10    6    6      0.15      0.00
   12    6    6     -1.15      0.00
   14    6    6      0.20      0.00
   16    6    6      2.02      0.00
   18    6    6      1.32      0.00
   20    6    6     -1.31      0.00
   22    6    6     -2.88      0.00
   24    6    6     -2.54      0.00
   26    6    6     -1.97      0.00
    1    7    6     -3.81      0.00
    3    7    6     -1.83      0.00
    5    7    6     -0.38      0.00
    7    7    6     -0.47      0.00
    9    7    6     -0.35      0.00
   11    7    6      1.00      0.00
   13    7    6      2.02      0.00
   15    7    6      1.27      0.00
   17    7    6     -0.12      0.00
   19    7    6     -0.40      0.00
   21    7    6      0.17      0.00
   23    7    6      0.36      0.00
   25    7    6      0.36      0.00
    0    8    6      1.73      0.00
    2    8    6      1.67      0.00
    4    8    6      1.41      0.00
    6    8    6      0.95      0.00
    8    8    6      0.57      0.00
   10    8    6      0.34      0.00
   12    8    6     -0.17      0.00
   14    8    6     -1.30      0.00
   16    8    6     -2.53      0.00
   18    8    6     -2.98      0.00
   20    8    6     -2.39      0.00
   22    8    6     -1.40      0.00
   24    8    6     -0.86      0.00
    1    9    6      3.65      0.00
    3    9    6      1.24      0.00
    5    9    6     -0.98      0.00
    7    9    6     -1.16      0.00
    9    9    6      0.05      0.00
   11    9    6      1.30      0.00
   13    9    6      2.18      0.00
   15    9    6      2.54      0.00
   17    9    6      1.84      0.00
   19    9    6      0.13      0.00
   21    9    6     -1.44      0.00
   23    9    6     -1.84      0.00
    0   10    6     -1.90      0.00
    2   10    6     -2.02      0.00
    4   10    6     -2.20      0.00
    6   10    6     -2.04      0.00
    8   10    6     -1.39      0.00
   10   10    6     -0.79      0.00
   12   10    6     -0.90      0.00
   14   10    6     -1.44      0.00
   16   10    6     -1.20      0.00
   18   10    6      0.36      0.00
   20   10    6      2.12      0.00
   22   10    6      2.66      0.00
    1   11    6     -2.20      0.00
    3   11    6     -0.37      0.00
    5   11    6      1.97      0.00
    7   11    6      3.50      0.00
    9   11    6      3.59      0.00
   11   11    6      2.12      0.00
   13   11    6     -0.47      0.00
   15   11    6     -2.80      0.00
   17   11    6     -3.32      0.00
   19   11    6     -1.95      0.00
    0   12    6      2.32      0.00
    2   12    6      1.43      0.00
    4   12    6     -0.36      0.00
    6   12    6     -1.72      0.00
    8   12    6     -2.44      0.00
   10   12    6     -3.03      0.00
   12   12    6     -3.32      0.00
   14   12    6     -2.88      0.00
   16   12    6     -2.04      0.00
   18   12    6     -1.51      0.00
    1   13    6     -2.81      0.00
    3   13    6     -1.66      0.00
    5   13    6     -0.75      0.00
    7   13    6     -0.82      0.00
    9   13    6     -0.95      0.00
   11   13    6      0.00      0.00
   13   13    6      1.58      0.00
   15   13    6      2.21      0.00
    0   14    6     -6.44      0.00
    2   14    6     -4.76      0.00
    4   14    6     -1.07      0.00
    6   14    6      2.05      0.00
    8   14    6      3.33      0.00
   10   14    6      3.22      0.00
    1   15    6      4.74      0.00
    3   15    6      2.37      0.00
    2    1    7     -4.89      0.00
    4    1    7     -5.97      0.00
    6    1    7     -1.90      0.00
    8    1    7      3.43      0.00
   10    1    7      3.52      0.00
   12    1    7     -2.53      0.00
   14    1    7     -7.52      0.00
   16    1    7     -5.50      0.00
   18    1    7     -0.30      0.00
   20    1    7      0.05      0.00
   22    1    7     -5.00      0.00
   24    1    7     -8.42      0.00
   26    1    7     -6.41      0.00
   28    1    7     -2.84      0.00
    1    2    7     -4.07      0.00
    3    2    7     -7.48      0.00
    5    2    7     -3.35      0.00
    7    2    7      1.35      0.00
    9    2    7      0.87      0.00
   11    2    7     -2.03      0.00
   13    2    7     -2.34      0.00
   15    2    7     -0.37      0.00
   17    2    7      0.69      0.00
   19    2    7      0.26      0.00
   21    2    7     -0.71      0.00
   23    2    7     -2.87      0.00
   25    2    7     -6.56      0.00
   27    2    7     -8.91      0.00
   29    2    7     -7.19      0.00
    2    3    7      1.60      0.00
    4    3    7      0.98      0.00
    6    3    7     -1.34      0.00
    8    3    7     -3.10      0.00
   10    3    7     -3.04      0.00
   12    3    7     -1.54      0.00
   14    3    7      0.50      0.00
   16    3    7      1.87      0.00
   18    3    7      0.97      0.00
   20    3    7     -2.25      0.00
   22    3    7     -4.58      0.00
   24    3    7     -2.22      0.00
   26    3    7      4.17      0.00
   28    3    7      9.05      0.00
    1    4    7      1.43      0.00
    3    4    7      2.44      0.00
    5    4    7      0.82      0.00
    7    4    7     -0.40      0.00
    9    4    7      0.56      0.00
   11    4    7      1.70      0.00
   13    4    7      1.01      0.00
   15    4    7     -0.53      0.00
   17    4    7     -1.06      0.00
   19    4    7     -0.57      0.00
   21    4    7      0.23      0.00
   23    4    7      1.56      0.00
   25    4    7      3.29      0.00
   27    4    7      3.81      0.00
    2    5    7      0.94      0.00
    4    5    7      1.06      0.00
    6    5    7     -0.46      0.00
    8    5    7     -2.51      0.00
   10    5    7     -2.37      0.00
   12    5    7      0.03      0.00
   14    5    7      0.70      0.00
   16    5    7     -2.64      0.00
   18    5    7     -6.07      0.00
   20    5    7     -4.52      0.00
   22    5    7      0.56      0.00
   24    5    7      3.13      0.00
   26    5    7      1.24      0.00
    1    6    7      2.24      0.00
    3    6    7      4.60      0.00
    5    6    7      3.23      0.00
    7    6    7      0.64      0.00
    9    6    7     -0.65      0.00
   11    6    7     -1.23      0.00
   13    6    7     -2.72      0.00
   15    6    7     -4.53      0.00
   17    6    7     -4.70      0.00
   19    6    7     -2.82      0.00
   21    6    7     -0.34      0.00
   23    6    7      1.56      0.00
   25    6    7      2.74      0.00
   27    6    7      3.04      0.00
    2    7    7      0.46      0.00
    4    7    7      0.93      0.00
    6    7    7      1.77      0.00
    8    7    7      2.66      0.00
   10    7    7      2.16      0.00
   12    7    7     -0.25      0.00
   14    7    7     -2.66      0.00
   16    7    7     -2.69      0.00
   18    7    7     -0.46      0.00
   20    7    7      1.71      0.00
   22    7    7      2.14      0.00
   24    7    7      1.12      0.00
   26    7    7     -0.12      0.00
    1    8    7     -1.58      0.00
    3    8    7     -2.90      0.00
    5    8    7     -1.09      0.00
    7    8    7      1.43      0.00
    9    8    7      2.26      0.00
   11    8    7      1.65      0.00
   13    8    7      0.82      0.00
   15    8    7     -0.17      0.00
   17    8    7     -1.55      0.00
   19    8    7     -2.60      0.00
   21    8    7     -2.64      0.00
   23    8    7     -2.07      0.00
    2    9    7     -3.24      0.00
    4    9    7     -3.86      0.00
    6    9    7     -1.94      0.00
    8    9    7      0.04      0.00
   10    9    7      0.09      0.00
   12    9    7     -1.25      0.00
   14    9    7     -2.05      0.00
   16    9    7     -1.56      0.00
   18    9    7     -0.85      0.00
   20    9    7     -0.97      0.00
   22    9    7     -1.37      0.00
    1   10    7      0.84      0.00
    3   10    7      1.87      0.00
    5   10    7      1.62      0.00
    7   10    7      0.44      0.00
    9   10    7     -1.20      0.00
   11   10    7     -2.83      0.00
   13   10    7     -3.49      0.00
   15   10    7     -2.37      0.00
   17   10    7     -0.13      0.00
   19   10    7      1.37      0.00
   21   10    7      1.24      0.00
    2   11    7     -0.69      0.00
    4   11    7     -0.53      0.00
    6   11    7      0.42      0.00
    8   11    7      1.62      0.00
   10   11    7      2.67      0.00
   12   11    7      3.13      0.00
   14   11    7      2.45      0.00
   16   11    7      0.83      0.00
   18   11    7     -0.42      0.00
    1   12    7     -0.74      0.00
    3   12    7     -2.09      0.00
    5   12    7     -2.88      0.00
    7   12    7     -2.48      0.00
    9   12    7     -0.76      0.00
   11   12    7      1.34      0.00
   13   12    7      2.35      0.00
   15   12    7      1.74      0.00
   17   12    7      0.68      0.00
    2   13    7      2.76      0.00
    4   13    7      3.65      0.00
    6   13    7      2.74      0.00
    8   13    7      1.31      0.00
   10   13    7     -0.02      0.00
   12   13    7     -1.32      0.00
   14   13    7     -2.26      0.00
    1   14    7     -1.75      0.00
    3   14    7     -3.41      0.00
    5   14    7     -1.70      0.00
    7   14    7      1.22      0.00
    9   14    7      2.60      0.00
    0    0    8     -0.32      0.00
    2    0    8      2.77      0.00
    4    0    8      9.46      0.00
    6    0    8     13.37      0.00
    8    0    8      9.59      0.00
   10    0    8      1.40      0.00
   12    0    8     -2.07      0.00
   14    0    8      2.32      0.00
   16    0    8      6.61      0.00
   18    0    8      3.02      0.00
   20    0    8     -4.07      0.00
   22    0    8     -4.43      0.00
   24    0    8      2.59      0.00
   26    0    8      7.10      0.00
   28    0    8      3.32      0.00
    1    1    8      4.89      0.00
    3    1    8      8.88      0.00
    5    1    8     10.62      0.00
    7    1    8      6.72      0.00
    9    1    8      1.10      0.00
   11    1    8     -1.06      0.00
   13    1    8      0.33      0.00
   15    1    8      2.12      0.00
   17    1    8      2.77      0.00
   19    1    8      2.59      0.00
   21    1    8      1.48      0.00
   23    1    8     -0.65      0.00
   25    1    8     -2.32      0.00
   27    1    8     -2.13      0.00
   29    1    8     -0.91      0.00
    0    2    8      6.02      0.00
    2    2    8      4.00      0.00
    4    2    8     -0.13      0.00
    6    2    8     -2.24      0.00
    8    2    8      0.12      0.00
   10    2    8      4.66      0.00
   12    2    8      6.34      0.00
   14    2    8      3.03      0.00
   16    2    8     -1.96      0.00
   18    2    8     -3.94      0.00
   20    2    8     -2.02      0.00
   22    2    8      1.05      0.00
   24    2    8      2.97      0.00
   26    2    8      3.52      0.00
   28    2    8      2.99      0.00
    1    3    8     13.57      0.00
    3    3    8      5.67      0.00
    5    3    8     -0.88      0.00
    7    3    8     -0.46      0.00
    9    3    8      2.68      0.00
   11    3    8      2.64      0.00
   13    3    8      0.09      0.00
   15    3    8     -0.96      0.00
   17    3    8      0.17      0.00
   19    3    8      1.29      0.00
   21    3    8      1.43      0.00
   23    3    8      0.83      0.00
   25    3    8     -0.95      0.00
   27    3    8     -3.59      0.00
    0    4    8      5.28      0.00
    2    4    8      4.52      0.00
    4    4    8      2.91      0.00
    6    4    8      2.34      0.00
    8    4    8      4.04      0.00
   10    4    8      5.93      0.00
   12    4    8      4.08      0.00
   14    4    8     -1.43      0.00
   16    4    8     -4.91      0.00
   18    4    8     -2.37      0.00
   20    4    8      2.17      0.00
   22    4    8      1.82      0.00
   24    4    8     -3.18      0.00
   26    4    8     -5.67      0.00
   28    4    8     -1.87      0.00
    1    5    8      4.33      0.00
    3    5    8      2.85      0.00
    5    5    8      0.94      0.00
    7    5    8     -0.36      0.00
    9    5    8     -1.02      0.00
   11    5    8     -1.64      0.00
   13    5    8     -2.26      0.00
   15    5    8     -2.17      0.00
   17    5    8     -1.11      0.00
   19    5    8     -0.01      0.00
   21    5    8      0.15      0.00
   23    5    8     -0.43      0.00
   25    5    8     -0.98      0.00
   27    5    8     -1.43      0.00
    0    6    8      1.55      0.00
    2    6    8      2.17      0.00
    4    6    8      3.49      0.00
    6    6    8      3.86      0.00
    8    6    8      1.70      0.00
   10    6    8     -1.72      0.00
   12    6    8     -2.60      0.00
   14    6    8      0.50      0.00
   16    6    8      3.94      0.00
   18    6    8      3.45      0.00
   20    6    8     -0.29      0.00
   22    6    8     -3.03      0.00
   24    6    8     -2.82      0.00
   26    6    8     -1.48      0.00
    1    7    8     -2.07      0.00
    3    7    8      1.14      0.00
    5    7    8      3.46      0.00
    7    7    8      2.59      0.00
    9    7    8      0.82      0.00
   11    7    8      1.00      0.00
   13    7    8      2.50      0.00
   15    7    8      2.98      0.00
   17    7    8      1.92      0.00
   19    7    8      0.57      0.00
   21    7    8     -0.40      0.00
   23    7    8     -1.12      0.00
   25    7    8     -1.33      0.00
    0    8    8     -2.92      0.00
    2    8    8     -1.52      0.00
    4    8    8      1.02      0.00
    6    8    8      1.88      0.00
    8    8    8      0.56      0.00
   10    8    8     -0.95      0.00
   12    8    8     -1.14      0.00
   14    8    8     -0.73      0.00
   16    8    8     -1.18      0.00
   18    8    8     -2.43      0.00
   20    8    8     -2.93      0.00
   22    8    8     -1.82      0.00
   24    8    8     -0.22      0.00
    1    9    8      0.28      0.00
    3    9    8     -1.44      0.00
    5    9    8     -3.03      0.00
    7    9    8     -3.08      0.00
    9    9    8     -1.79      0.00
   11    9    8      0.02      0.00
   13    9    8      1.71      0.00
   15    9    8      2.46      0.00
   17    9    8      1.61      0.00
   19    9    8     -0.18      0.00
   21    9    8     -1.29      0.00
   23    9    8     -1.03      0.00
    0   10    8      0.59      0.00
    2   10    8     -0.11      0.00
    4   10    8     -1.31      0.00
    6   10    8     -1.38      0.00
    8   10    8      0.02      0.00
   10   10    8      1.24      0.00
   12   10    8      0.51      0.00
   14   10    8     -1.63      0.00
   16   10    8     -2.73      0.00
   18   10    8     -1.37      0.00
   20   10    8      1.05      0.00
    1   11    8     -1.76      0.00
    3   11    8     -0.62      0.00
    5   11    8      1.50      0.00
    7   11    8      4.02      0.00
    9   11    8      5.65      0.00
   11   11    8      4.89      0.00
   13   11    8      1.69      0.00
   15   11    8     -1.76      0.00
   17   11    8     -2.87      0.00
   19   11    8     -1.38      0.00
    0   12    8      1.35      0.00
    2   12    8      0.46      0.00
    4   12    8     -1.44      0.00
    6   12    8     -3.04      0.00
    8   12    8     -3.94      0.00
   10   12    8     -4.33      0.00
   12   12    8     -3.99      0.00
   14   12    8     -2.79      0.00
   16   12    8     -1.36      0.00
    1   13    8     -3.00      0.00
    3   13    8     -1.36      0.00
    5   13    8      0.10      0.00
    7   13    8      0.13      0.00
    9   13    8     -0.45      0.00
   11   13    8     -0.18      0.00
   13   13    8      0.93      0.00
    0   14    8     -4.26      0.00
    2   14    8     -3.14      0.00
    4   14    8     -0.85      0.00
    6   14    8      0.77      0.00
    8   14    8      1.17      0.00
    2    1    9     -5.10      0.00
    4    1    9     -5.95      0.00
    6    1    9     -2.10      0.00
    8    1    9      1.64      0.00
   10    1    9     -0.26      0.00
   12    1    9     -6.47      0.00
   14    1    9     -9.20      0.00
   16    1    9     -4.56      0.00
   18    1    9      1.31      0.00
   20    1    9      0.57      0.00
   22    1    9     -5.16      0.00
   24    1    9     -7.51      0.00
   26    1    9     -3.68      0.00
   28    1    9      0.48      0.00
    1    2    9     -4.81      0.00
    3    2    9     -8.67      0.00
    5    2    9     -3.06      0.00
    7    2    9      3.80      0.00
    9    2    9      4.12      0.00
   11    2    9      0.09      0.00
   13    2    9     -1.85      0.00
   15    2    9     -0.46      0.00
   17    2    9      0.94      0.00
   19    2    9      0.52      0.00
   21    2    9     -1.04      0.00
   23    2    9     -3.34      0.00
   25    2    9     -6.00      0.00
   27    2    9     -7.18      0.00
    2    3    9     -1.01      0.00
    4    3    9     -0.86      0.00
    6    3    9      0.49      0.00
    8    3    9      1.66      0.00
   10    3    9      1.31      0.00
   12    3    9      0.07      0.00
   14    3    9     -0.02      0.00
   16    3    9      1.13      0.00
   18    3    9      0.56      0.00
   20    3    9     -3.67      0.00
   22    3    9     -8.47      0.00
   24    3    9     -8.41      0.00
   26    3    9     -2.58      0.00
   28    3    9      3.65      0.00
    1    4    9      2.26      0.00
    3    4    9      4.17      0.00
    5    4    9      1.74      0.00
    7    4    9     -1.48      0.00
    9    4    9     -2.18      0.00
   11    4    9     -1.21      0.00
   13    4    9     -0.85      0.00
   15    4    9     -1.23      0.00
   17    4    9     -1.15      0.00
   19    4    9     -0.39      0.00
   21    4    9      0.52      0.00
   23    4    9      1.35      0.00
   25    4    9      1.66      0.00
   27    4    9      0.65      0.00
    2    5    9      3.44      0.00
    4    5    9      3.41      0.00
    6    5    9     -0.50      0.00
    8    5    9     -4.42      0.00
   10    5    9     -3.74      0.00
   12    5    9      0.69      0.00
   14    5    9      2.70      0.00
   16    5    9     -0.99      0.00
   18    5    9     -5.60      0.00
   20    5    9     -4.68      0.00
   22    5    9      0.75      0.00
   24    5    9      3.98      0.00
   26    5    9      2.24      0.00
    1    6    9      2.33      0.00
    3    6    9      4.77      0.00
    5    6    9      3.42      0.00
    7    6    9      1.15      0.00
    9    6    9      0.70      0.00
   11    6    9      1.09      0.00
   13    6    9      0.04      0.00
   15    6    9     -2.28      0.00
   17    6    9     -3.75      0.00
   19    6    9     -3.49      0.00
   21    6    9     -2.61      0.00
   23    6    9     -1.90      0.00
   25    6    9     -0.95      0.00
    2    7    9      1.17      0.00
    4    7    9      1.30      0.00
    6    7    9      0.94      0.00
    8    7    9      0.92      0.00
   10    7    9      0.53      0.00
   12    7    9     -1.24      0.00
   14    7    9     -3.40      0.00
   16    7    9     -3.67      0.00
   18    7    9     -1.47      0.00
   20    7    9      1.34      0.00
   22    7    9      2.50      0.00
   24    7    9      1.61      0.00
    1    8    9     -1.64      0.00
    3    8    9     -3.02      0.00
    5    8    9     -1.11      0.00
    7    8    9      1.77      0.00
    9    8    9      3.00      0.00
   11    8    9      2.43      0.00
   13    8    9      1.23      0.00
   15    8    9      0.01      0.00
   17    8    9     -0.93      0.00
   19    8    9     -1.05      0.00
   21    8    9     -0.33      0.00
   23    8    9      0.28      0.00
    2    9    9     -4.01      0.00
    4    9    9     -4.00      0.00
    6    9    9     -0.34      0.00
    8    9    9      2.90      0.00
   10    9    9      2.65      0.00
   12    9    9      0.02      0.00
   14    9    9     -1.63      0.00
   16    9    9     -0.99      0.00
   18    9    9      0.11      0.00
   20    9    9     -0.24      0.00
   22    9    9     -1.42      0.00
    1   10    9      0.45      0.00
    3   10    9      1.35      0.00
    5   10    9      2.07      0.00
    7   10    9      1.93      0.00
    9   10    9      0.25      0.00
   11   10    9     -2.45      0.00
   13   10    9     -4.21      0.00
   15   10    9     -3.53      0.00
   17   10    9     -1.35      0.00
   19   10    9      0.04      0.00
    2   11    9     -1.32      0.00
    4   11    9     -2.04      0.00
    6   11    9     -1.86      0.00
    8   11    9     -0.62      0.00
   10   11    9      1.46      0.00
   12   11    9      3.24      0.00
   14   11    9      3.17      0.00
   16   11    9      1.05      0.00
   18   11    9     -1.29      0.00
    1   12    9     -0.10      0.00
    3   12    9     -0.63      0.00
    5   12    9     -1.54      0.00
    7   12    9     -1.87      0.00
    9   12    9     -0.73      0.00
   11   12    9      1.33      0.00
   13   12    9      2.57      0.00
   15   12    9      2.00      0.00
    2   13    9      2.18      0.00
    4   13    9      3.32      0.00
    6   13    9      3.47      0.00
    8   13    9      3.14      0.00
   10   13    9      2.31      0.00
   12   13    9      0.86      0.00
    1   14    9     -1.54      0.00
    3   14    9     -3.02      0.00
    5   14    9     -1.54      0.00
    7   14    9      1.10      0.00
    0    0   10      4.48      0.00
    2    0   10      6.23      0.00
    4    0   10      9.56      0.00
    6    0   10      9.89      0.00
    8    0   10      4.63      0.00
   10    0   10     -2.19      0.00
   12    0   10     -3.22      0.00
   14    0   10      2.10      0.00
   16    0   10      5.30      0.00
   18    0   10      0.60      0.00
   20    0   10     -5.77      0.00
   22    0   10     -4.01      0.00
   24    0   10      4.52      0.00
   26    0   10      8.83      0.00
   28    0   10      3.96      0.00
    1    1   10      0.80      0.00
    3    1   10      5.60      0.00
    5    1   10      8.46      0.00
    7    1   10      5.45      0.00
    9    1   10      0.27      0.00
   11    1   10     -1.71      0.00
   13    1   10     -0.21      0.00
   15    1   10      1.52      0.00
   17    1   10      1.90      0.00
   19    1   10      1.64      0.00
   21    1   10      1.17      0.00
   23    1   10      0.23      0.00
   25    1   10     -0.71      0.00
   27    1   10     -0.87      0.00
    0    2   10     -2.18      0.00
    2    2   10     -2.00      0.00
    4    2   10     -1.45      0.00
    6    2   10     -0.29      0.00
    8    2   10      1.71      0.00
   10    2   10      3.64      0.00
   12    2   10      3.64      0.00
   14    2   10      1.27      0.00
   16    2   10     -1.44      0.00
   18    2   10     -2.24      0.00
   20    2   10     -1.19      0.00
   22    2   10      0.26      0.00
   24    2   10      1.52      0.00
   26    2   10      2.80      0.00
    1    3   10     13.03      0.00
    3    3   10      5.00      0.00
    5    3   10     -1.80      0.00
    7    3   10     -1.50      0.00
    9    3   10      1.96      0.00
   11    3   10      2.52      0.00
   13    3   10      0.32      0.00
   15    3   10     -0.97      0.00
   17    3   10     -0.51      0.00
   19    3   10     -0.11      0.00
   21    3   10     -0.38      0.00
   23    3   10     -0.62      0.00
   25    3   10     -0.91      0.00
   27    3   10     -1.46      0.00
    0    4   10      8.09      0.00
    2    4   10      5.97      0.00
    4    4   10      1.66      0.00
    6    4   10     -0.48      0.00
    8    4   10      1.82      0.00
   10    4   10      5.35      0.00
   12    4   10      4.56      0.00
   14    4   10     -0.92      0.00
   16    4   10     -4.71      0.00
   18    4   10     -2.07      0.00
   20    4   10      3.09      0.00
   22    4   10      3.41      0.00
   24    4   10     -1.58      0.00
   26    4   10     -4.98      0.00
    1    5   10     -0.28      0.00
    3    5   10     -0.66      0.00
    5    5   10     -1.01      0.00
    7    5   10     -1.04      0.00
    9    5   10     -1.00      0.00
   11    5   10     -1.25      0.00
   13    5   10     -1.60      0.00
   15    5   10     -1.56      0.00
   17    5   10     -1.21      0.00
   19    5   10     -1.20      0.00
   21    5   10     -1.60      0.00
   23    5   10     -1.54      0.00
   25    5   10     -0.69      0.00
    0    6   10      1.16      0.00
    2    6   10      1.71      0.00
    4    6   10      2.88      0.00
    6    6   10      3.11      0.00
    8    6   10      0.92      0.00
   10    6   10     -2.39      0.00
   12    6   10     -3.02      0.00
   14    6   10      0.56      0.00
   16    6   10      4.77      0.00
   18    6   10      4.99      0.00
   20    6   10      1.31      0.00
   22    6   10     -2.20      0.00
   24    6   10     -2.95      0.00
    1    7   10      1.06      0.00
    3    7   10      3.70      0.00
    5    7   10      5.17      0.00
    7    7   10      3.45      0.00
    9    7   10      0.91      0.00
   11    7   10      0.47      0.00
   13    7   10      1.79      0.00
   15    7   10      2.64      0.00
   17    7   10      2.24      0.00
   19    7   10      1.39      0.00
   21    7   10      0.49      0.00
   23    7   10     -0.63      0.00
    0    8   10     -6.37      0.00
    2    8   10     -4.21      0.00
    4    8   10     -0.11      0.00
    6    8   10      1.75      0.00
    8    8   10      0.33      0.00
   10    8   10     -1.66      0.00
   12    8   10     -1.67      0.00
   14    8   10     -0.35      0.00
   16    8   10     -0.03      0.00
   18    8   10     -1.28      0.00
   20    8   10     -2.24      0.00
   22    8   10     -1.32      0.00
    1    9   10     -2.51      0.00
    3    9   10     -3.28      0.00
    5    9   10     -4.05      0.00
    7    9   10     -4.13      0.00
    9    9   10     -3.20      0.00
   11    9   10     -1.18      0.00
   13    9   10      1.31      0.00
   15    9   10      2.61      0.00
   17    9   10      1.61      0.00
   19    9   10     -0.61      0.00
   21    9   10     -1.78      0.00
    0   10   10      1.46      0.00
    2   10   10      0.66      0.00
    4   10   10     -0.69      0.00
    6   10   10     -0.71      0.00
    8   10   10      1.03      0.00
   10   10   10      2.58      0.00
   12   10   10      1.74      0.00
   14   10   10     -1.19      0.00
   16   10   10     -3.44      0.00
   18   10   10     -2.93      0.00
   20   10   10     -0.58      0.00
    1   11   10     -2.95      0.00
    3   11   10     -1.90      0.00
    5   11   10      0.47      0.00
    7   11   10      3.84      0.00
    9   11   10      6.59      0.00
   11   11   10      6.71      0.00
   13   11   10      3.86      0.00
   15   11   10      0.32      0.00
   17   11   10     -1.19      0.00
    0   12   10      0.66      0.00
    2   12   10      0.30      0.00
    4   12   10     -0.62      0.00
    6   12   10     -1.89      0.00
    8   12   10     -3.36      0.00
   10   12   10     -4.42      0.00
   12   12   10     -4.04      0.00
   14   12   10     -2.08      0.00
    1   13   10     -3.17      0.00
    3   13   10     -1.12      0.00
    5   13   10      0.97      0.00
    7   13   10      1.45      0.00
    9   13   10      0.64      0.00
   11   13   10     -0.06      0.00
    0   14   10     -1.27      0.00
    2   14   10     -1.03      0.00
    4   14   10     -0.66      0.00
    2    1   11     -1.04      0.00
    4    1   11     -1.34      0.00
    6    1   11     -0.52      0.00
    8    1   11     -0.04      0.00
   10    1   11     -2.02      0.00
   12    1   11     -5.25      0.00
   14    1   11     -5.22      0.00
   16    1   11     -0.80      0.00
   18    1   11      2.52      0.00
   20    1   11     -0.20      0.00
   22    1   11     -5.60      0.00
   24    1   11     -6.22      0.00
   26    1   11     -1.20      0.00
    1    2   11     -4.17      0.00
    3    2   11     -7.53      0.00
    5    2   11     -2.72      0.00
    7    2   11      3.13      0.00
    9    2   11      3.51      0.00
   11    2   11      0.48      0.00
   13    2   11     -0.79      0.00
   15    2   11      0.08      0.00
   17    2   11      0.15      0.00
   19    2   11     -1.19      0.00
   21    2   11     -2.24      0.00
   23    2   11     -2.66      0.00
   25    2   11     -3.35      0.00
   27    2   11     -3.90      0.00
    2    3   11     -1.80      0.00
    4    3   11     -1.18      0.00
    6    3   11      1.60      0.00
    8    3   11      3.62      0.00
   10    3   11      2.46      0.00
   12    3   11     -0.70      0.00
   14    3   11     -2.35      0.00
   16    3   11     -1.40      0.00
   18    3   11     -1.09      0.00
   20    3   11     -4.57      0.00
   22    3   11     -9.87      0.00
   24    3   11    -11.55      0.00
   26    3   11     -7.51      0.00
    1    4   11      2.22      0.00
    3    4   11      4.17      0.00
    5    4   11      1.87      0.00
    7    4   11     -1.52      0.00
    9    4   11     -2.82      0.00
   11    4   11     -2.43      0.00
   13    4   11     -2.06      0.00
   15    4   11     -1.71      0.00
   17    4   11     -0.63      0.00
   19    4   11      0.81      0.00
   21    4   11      1.59      0.00
   23    4   11      1.42      0.00
   25    4   11      0.41      0.00
    2    5   11      3.76      0.00
    4    5   11      4.35      0.00
    6    5   11      1.17      0.00
    8    5   11     -2.41      0.00
   10    5   11     -1.92      0.00
   12    5   11      2.41      0.00
   14    5   11      5.08      0.00
   16    5   11      2.42      0.00
   18    5   11     -2.06      0.00
   20    5   11     -2.57      0.00
   22    5   11      0.96      0.00
   24    5   11      3.44      0.00
    1    6   11      1.36      0.00
    3    6   11      2.57      0.00
    5    6   11      1.45      0.00
    7    6   11      0.38      0.00
    9    6   11      1.12      0.00
   11    6   11      2.26      0.00
   13    6   11      1.61      0.00
   15    6   11     -0.61      0.00
   17    6   11     -2.57      0.00
   19    6   11     -3.70      0.00
   21    6   11     -4.70      0.00
   23    6   11     -5.43      0.00
    2    7   11      1.33      0.00
    4    7   11      0.93      0.00
    6    7   11     -0.50      0.00
    8    7   11     -1.31      0.00
   10    7   11     -1.56      0.00
   12    7   11     -2.50      0.00
   14    7   11     -4.06      0.00
   16    7   11     -4.47      0.00
   18    7   11     -2.68      0.00
   20    7   11      0.16      0.00
   22    7   11      1.92      0.00
    1    8   11     -0.82      0.00
    3    8   11     -1.21      0.00
    5    8   11      0.58      0.00
    7    8   11      2.98      0.00
    9    8   11      4.23      0.00
   11    8   11      4.08      0.00
   13    8   11      2.93      0.00
   15    8   11      1.14      0.00
   17    8   11     -0.47      0.00
   19    8   11     -0.75      0.00
   21    8   11      0.33      0.00
    2    9   11     -3.13      0.00
    4    9   11     -2.80      0.00
    6    9   11      0.72      0.00
    8    9   11      3.85      0.00
   10    9   11      3.77      0.00
   12    9   11      1.29      0.00
   14    9   11     -0.55      0.00
   16    9   11     -0.30      0.00
   18    9   11      0.61      0.00
   20    9   11      0.32      0.00
    1   10   11      0.60      0.00
    3   10   11      1.95      0.00
    5   10   11      3.20      0.00
    7   10   11      3.21      0.00
    9   10   11      1.08      0.00
   11   10   11     -2.25      0.00
   13   10   11     -4.29      0.00
   15   10   11     -3.57      0.00
   17   10   11     -1.42      0.00
   19   10   11     -0.26      0.00
    2   11   11     -1.36      0.00
    4   11   11     -2.34      0.00
    6   11   11     -2.50      0.00
    8   11   11     -1.31      0.00
   10   11   11      1.27      0.00
   12   11   11      3.87      0.00
   14   11   11      4.40      0.00
   16   11   11      2.19      0.00
    1   12   11      0.28      0.00
    3   12   11      0.46      0.00
    5   12   11      0.03      0.00
    7   12   11     -0.31      0.00
    9   12   11      0.28      0.00
   11   12   11      1.59      0.00
   13   12   11      2.36      0.00
    2   13   11      0.54      0.00
    4   13   11      1.35      0.00
    6   13   11      2.43      0.00
    8   13   11      3.15      0.00
    0    0   12      7.75      0.00
    2    0   12      6.61      0.00
    4    0   12      4.06      0.00
    6    0   12      1.04      0.00
    8    0   12     -2.39      0.00
   10    0   12     -4.74      0.00
   12    0   12     -3.05      0.00
   14    0   12      1.95      0.00
   16    0   12      4.43      0.00
   18    0   12      1.20      0.00
   20    0   12     -2.33      0.00
   22    0   12      0.74      0.00
   24    0   12      8.03      0.00
   26    0   12     10.30      0.00
    1    1   12     -1.19      0.00
    3    1   12      2.59      0.00
    5    1   12      5.02      0.00
    7    1   12      3.28      0.00
    9    1   12      0.25      0.00
   11    1   12     -0.51      0.00
   13    1   12      0.41      0.00
   15    1   12      0.62      0.00
   17    1   12      0.04      0.00
   19    1   12      0.16      0.00
   21    1   12      0.96      0.00
   23    1   12      1.08      0.00
   25    1   12      0.32      0.00
    0    2   12     -2.40      0.00
    2    2   12     -0.95      0.00
    4    2   12      1.91      0.00
    6    2   12      3.56      0.00
    8    2   12      3.22      0.00
   10    2   12      1.91      0.00
   12    2   12      0.57      0.00
   14    2   12     -0.59      0.00
   16    2   12     -1.36      0.00
   18    2   12     -1.60      0.00
   20    2   12     -1.68      0.00
   22    2   12     -1.79      0.00
   24    2   12     -1.27      0.00
   26    2   12      0.24      0.00
    1    3   12      6.84      0.00
    3    3   12      1.74      0.00
    5    3   12     -2.06      0.00
    7    3   12     -1.12      0.00
    9    3   12      1.13      0.00
   11    3   12      0.86      0.00
   13    3   12     -0.78      0.00
   15    3   12     -1.21      0.00
   17    3   12     -1.05      0.00
   19    3   12     -2.11      0.00
   21    3   12     -3.46      0.00
   23    3   12     -2.98      0.00
   25    3   12     -0.93      0.00
    0    4   12      3.72      0.00
    2    4   12      2.32      0.00
    4    4   12     -0.70      0.00
    6    4   12     -2.40      0.00
    8    4   12     -0.65      0.00
   10    4   12      2.86      0.00
   12    4   12      3.85      0.00
   14    4   12      1.15      0.00
   16    4   12     -1.14      0.00
   18    4   12      0.74      0.00
   20    4   12      4.40      0.00
   22    4   12      4.46      0.00
   24    4   12      0.36      0.00
    1    5   12      0.09      0.00
    3    5   12     -0.01      0.00
    5    5   12     -0.07      0.00
    7    5   12      0.01      0.00
    9    5   12      0.10      0.00
   11    5   12      0.02      0.00
   13    5   12     -0.25      0.00
   15    5   12     -0.68      0.00
   17    5   12     -1.48      0.00
   19    5   12     -2.73      0.00
   21    5   12     -3.66      0.00
   23    5   12     -3.11      0.00
   25    5   12     -1.19      0.00
    0    6   12      1.89      0.00
    2    6   12      1.69      0.00
    4    6   12      1.46      0.00
    6    6   12      1.18      0.00
    8    6   12     -0.12      0.00
   10    6   12     -2.26      0.00
   12    6   12     -2.77      0.00
   14    6   12     -0.03      0.00
   16    6   12      3.75      0.00
   18    6   12      4.80      0.00
   20    6   12      2.39      0.00
   22    6   12     -0.81      0.00
   24    6   12     -2.43      0.00
    1    7   12      2.44      0.00
    3    7   12      3.49      0.00
    5    7   12      3.29      0.00
    7    7   12      1.10      0.00
    9    7   12     -0.90      0.00
   11    7   12     -0.82      0.00
   13    7   12      0.53      0.00
   15    7   12      1.37      0.00
   17    7   12      1.44      0.00
   19    7   12      1.45      0.00
   21    7   12      1.30      0.00
   23    7   12      0.50      0.00
    0    8   12     -5.92      0.00
    2    8   12     -4.11      0.00
    4    8   12     -0.61      0.00
    6    8   12      1.15      0.00
    8    8   12      0.20      0.00
   10    8   12     -1.30      0.00
   12    8   12     -1.20      0.00
   14    8   12      0.09      0.00
   16    8   12      0.61      0.00
   18    8   12     -0.35      0.00
   20    8   12     -1.33      0.00
    1    9   12     -1.77      0.00
    3    9   12     -2.20      0.00
    5    9   12     -3.00      0.00
    7    9   12     -3.82      0.00
    9    9   12     -3.74      0.00
   11    9   12     -1.90      0.00
   13    9   12      1.03      0.00
   15    9   12      2.70      0.00
   17    9   12      1.54      0.00
   19    9   12     -1.11      0.00
    0   10   12     -1.30      0.00
    2   10   12     -1.42      0.00
    4   10   12     -1.44      0.00
    6   10   12     -0.70      0.00
    8   10   12      0.89      0.00
   10   10   12      2.26      0.00
   12   10   12      1.94      0.00
   14   10   12     -0.19      0.00
   16   10   12     -2.34      0.00
   18   10   12     -2.67      0.00
    1   11   12     -5.71      0.00
    3   11   12     -3.95      0.00
    5   11   12     -0.71      0.00
    7   11   12      3.11      0.00
    9   11   12      5.93      0.00
   11   11   12      6.26      0.00
   13   11   12      4.13      0.00
   15   11   12      1.50      0.00
    0   12   12      1.75      0.00
    2   12   12      1.85      0.00
    4   12   12      1.77      0.00
    6   12   12      0.79      0.00
    8   12   12     -1.22      0.00
   10   12   12     -3.09      0.00
   12   12   12     -3.21      0.00
    1   13   12     -3.01      0.00
    3   13   12     -1.12      0.00
    5   13   12      1.05      0.00
    7   13   12      1.96      0.00
    2    1   13      2.62      0.00
    4    1   13      2.58      0.00
    6    1   13      0.80      0.00
    8    1   13     -0.40      0.00
   10    1   13     -0.73      0.00
   12    1   13     -0.86      0.00
   14    1   13     -0.11      0.00
   16    1   13      1.49      0.00
   18    1   13      1.23      0.00
   20    1   13     -2.75      0.00
   22    1   13     -7.12      0.00
   24    1   13     -6.76      0.00
   26    1   13     -1.99      0.00
    1    2   13     -2.46      0.00
    3    2   13     -4.44      0.00
    5    2   13     -1.96      0.00
    7    2   13      0.49      0.00
    9    2   13     -0.05      0.00
   11    2   13     -1.13      0.00
   13    2   13     -0.31      0.00
   15    2   13      0.50      0.00
   17    2   13     -1.08      0.00
   19    2   13     -3.28      0.00
   21    2   13     -3.05      0.00
   23    2   13     -0.93      0.00
   25    2   13      0.15      0.00
    2    3   13     -0.33      0.00
    4    3   13      0.32      0.00
    6    3   13      1.70      0.00
    8    3   13      2.19      0.00
   10    3   13      0.55      0.00
   12    3   13     -2.22      0.00
   14    3   13     -3.47      0.00
   16    3   13     -2.38      0.00
   18    3   13     -1.44      0.00
   20    3   13     -3.37      0.00
   22    3   13     -7.13      0.00
   24    3   13     -8.84      0.00
    1    4   13      1.28      0.00
    3    4   13      2.36      0.00
    5    4   13      1.12      0.00
    7    4   13     -0.48      0.00
    9    4   13     -1.00      0.00
   11    4   13     -1.27      0.00
   13    4   13     -1.92      0.00
   15    4   13     -1.89      0.00
   17    4   13     -0.41      0.00
   19    4   13      1.31      0.00
   21    4   13      1.70      0.00
   23    4   13      0.79      0.00
   25    4   13     -0.45      0.00
    2    5   13      1.92      0.00
    4    5   13      3.31      0.00
    6    5   13      3.05      0.00
    8    5   13      1.47      0.00
   10    5   13      1.12      0.00
   12    5   13      3.34      0.00
   14    5   13      5.56      0.00
   16    5   13      4.73      0.00
   18    5   13      1.79      0.00
   20    5   13      0.22      0.00
   22    5   13      0.92      0.00
   24    5   13      1.61      0.00
    1    6   13     -0.01      0.00
    3    6   13     -0.55      0.00
    5    6   13     -1.44      0.00
    7    6   13     -1.11      0.00
    9    6   13      0.81      0.00
   11    6   13      2.39      0.00
   13    6   13      1.94      0.00
   15    6   13      0.05      0.00
   17    6   13     -1.72      0.00
   19    6   13     -3.13      0.00
   21    6   13     -4.74      0.00
   23    6   13     -5.97      0.00
    2    7   13      1.06      0.00
    4    7   13      0.40      0.00
    6    7   13     -1.33      0.00
    8    7   13     -2.30      0.00
   10    7   13     -2.31      0.00
   12    7   13     -2.62      0.00
   14    7   13     -3.68      0.00
   16    7   13     -4.28      0.00
   18    7   13     -3.25      0.00
   20    7   13     -0.98      0.00
   22    7   13      1.02      0.00
    1    8   13      0.18      0.00
    3    8   13      0.97      0.00
    5    8   13      2.39      0.00
    7    8   13      3.77      0.00
    9    8   13      4.62      0.00
   11    8   13      4.85      0.00
   13    8   13      4.08      0.00
   15    8   13      2.03      0.00
   17    8   13     -0.31      0.00
   19    8   13     -1.29      0.00
    2    9   13     -1.02      0.00
    4    9   13     -0.81      0.00
    6    9   13      0.68      0.00
    8    9   13      2.24      0.00
   10    9   13      2.55      0.00
   12    9   13      1.58      0.00
   14    9   13      0.51      0.00
   16    9   13      0.32      0.00
   18    9   13      0.60      0.00
    1   10   13      1.25      0.00
    3   10   13      3.51      0.00
    5   10   13      4.81      0.00
    7   10   13      4.16      0.00
    9   10   13      1.39      0.00
   11   10   13     -1.95      0.00
   13   10   13     -3.44      0.00
   15   10   13     -2.26      0.00
   17   10   13     -0.19      0.00
    2   11   13     -1.03      0.00
    4   11   13     -1.46      0.00
    6   11   13     -1.06      0.00
    8   11   13      0.24      0.00
   10   11   13      2.35      0.00
   12   11   13      4.41      0.00
   14   11   13      4.94      0.00
    1   12   13      0.20      0.00
    3   12   13      0.57      0.00
    5   12   13      0.89      0.00
    7   12   13      1.18      0.00
    9   12   13      1.51      0.00
   11   12   13      1.79      0.00
    2   13   13     -0.89      0.00
    4   13   13     -0.77      0.00
    0    0   14      7.30      0.00
    2    0   14      4.24      0.00
    4    0   14     -1.70      0.00
    6    0   14     -5.28      0.00
    8    0   14     -5.46      0.00
   10    0   14     -4.09      0.00
   12    0   14     -1.67      0.00
   14    0   14      1.83      0.00
   16    0   14      4.17      0.00
   18    0   14      3.55      0.00
   20    0   14      2.55      0.00
   22    0   14      4.90      0.00
   24    0   14      8.93      0.00
    1    1   14     -1.09      0.00
    3    1   14      0.68      0.00
    5    1   14      1.61      0.00
    7    1   14      0.78      0.00
    9    1   14      0.23      0.00
   11    1   14      1.00      0.00
   13    1   14      1.33      0.00
   15    1   14     -0.11      0.00
   17    1   14     -1.62      0.00
   19    1   14     -1.10      0.00
   21    1   14      0.63      0.00
   23    1   14      1.26      0.00
   25    1   14      0.40      0.00
    0    2   14      0.15      0.00
    2    2   14      1.49      0.00
    4    2   14      3.69      0.00
    6    2   14      3.82      0.00
    8    2   14      1.60      0.00
   10    2   14     -0.75      0.00
   12    2   14     -1.65      0.00
   14    2   14     -1.47      0.00
   16    2   14     -1.27      0.00
   18    2   14     -1.49      0.00
   20    2   14     -2.03      0.00
   22    2   14     -2.49      0.00
   24    2   14     -2.28      0.00
    1    3   14     -0.90      0.00
    3    3   14     -1.96      0.00
    5    3   14     -1.67      0.00
    7    3   14      0.05      0.00
    9    3   14      0.42      0.00
   11    3   14     -1.25      0.00
   13    3   14     -2.23      0.00
   15    3   14     -1.29      0.00
   17    3   14     -1.07      0.00
   19    3   14     -3.47      0.00
   21    3   14     -5.90      0.00
   23    3   14     -4.88      0.00
    0    4   14     -2.78      0.00
    2    4   14     -2.16      0.00
    4    4   14     -1.34      0.00
    6    4   14     -1.39      0.00
    8    4   14     -1.27      0.00
   10    4   14      0.32      0.00
   12    4   14      2.41      0.00
   14    4   14      3.27      0.00
   16    4   14      3.34      0.00
   18    4   14      4.12      0.00
   20    4   14      5.04      0.00
   22    4   14      4.01      0.00
   24    4   14      1.09      0.00
    1    5   14      1.94      0.00
    3    5   14      1.68      0.00
    5    5   14      1.30      0.00
    7    5   14      0.99      0.00
    9    5   14      0.82      0.00
   11    5   14      0.67      0.00
   13    5   14      0.38      0.00
   15    5   14     -0.24      0.00
   17    5   14     -1.40      0.00
   19    5   14     -2.94      0.00
   21    5   14     -3.93      0.00
   23    5   14     -3.30      0.00
    0    6   14      1.77      0.00
    2    6   14      0.78      0.00
    4    6   14     -0.87      0.00
    6    6   14     -1.38      0.00
    8    6   14     -1.22      0.00
   10    6   14     -1.70      0.00
   12    6   14     -2.16      0.00
   14    6   14     -0.98      0.00
   16    6   14      1.51      0.00
   18    6   14      3.06      0.00
   20    6   14      2.45      0.00
   22    6   14      0.57      0.00
    1    7   14      3.34      0.00
    3    7   14      2.47      0.00
    5    7   14      0.31      0.00
    7    7   14     -2.22      0.00
    9    7   14     -3.08      0.00
   11    7   14     -1.69      0.00
   13    7   14      0.18      0.00
   15    7   14      0.82      0.00
   17    7   14      0.50      0.00
   19    7   14      0.31      0.00
   21    7   14      0.37      0.00
    0    8   14     -2.51      0.00
    2    8   14     -1.89      0.00
    4    8   14     -0.68      0.00
    6    8   14     -0.04      0.00
    8    8   14     -0.22      0.00
   10    8   14     -0.45      0.00
   12    8   14     -0.02      0.00
   14    8   14      0.76      0.00
   16    8   14      0.98      0.00
   18    8   14      0.28      0.00
    1    9   14      0.85      0.00
    3    9   14      0.23      0.00
    5    9   14     -1.17      0.00
    7    9   14     -2.95      0.00
    9    9   14     -3.78      0.00
   11    9   14     -2.39      0.00
   13    9   14      0.51      0.00
   15    9   14      2.32      0.00
   17    9   14      1.38      0.00
    0   10   14     -4.87      0.00
    2   10   14     -3.86      0.00
    4   10   14     -1.76      0.00
    6   10   14     -0.11      0.00
    8   10   14      0.62      0.00
   10   10   14      0.97      0.00
   12   10   14      1.09      0.00
   14   10   14      0.60      0.00
    1   11   14     -7.41      0.00
    3   11   14     -4.87      0.00
    5   11   14     -1.07      0.00
    7   11   14      2.31      0.00
    9   11   14      4.04      0.00
   11   11   14      3.81      0.00
   13   11   14      2.36      0.00
    0   12   14      2.78      0.00
    2   12   14      2.99      0.00
    4   12   14      3.18      0.00
    6   12   14      2.49      0.00
    8   12   14      0.70      0.00
    2    1   15      3.82      0.00
    4    1   15      3.27      0.00
    6    1   15     -0.05      0.00
    8    1   15     -1.60      0.00
   10    1   15     -0.34      0.00
   12    1   15      1.06      0.00
   14    1   15      0.94      0.00
   16    1   15     -0.20      0.00
   18    1   15     -2.19      0.00
   20    1   15     -5.27      0.00
   22    1   15     -7.83      0.00
   24    1   15     -7.34      0.00
    1    2   15     -0.54      0.00
    3    2   15     -0.79      0.00
    5    2   15     -0.45      0.00
    7    2   15     -1.40      0.00
    9    2   15     -3.04      0.00
   11    2   15     -2.51      0.00
   13    2   15      0.16      0.00
   15    2   15      1.09      0.00
   17    2   15     -1.51      0.00
   19    2   15     -4.06      0.00
   21    2   15     -2.81      0.00
   23    2   15      0.73      0.00
    2    3   15      2.41      0.00
    4    3   15      3.17      0.00
    6    3   15      2.23      0.00
    8    3   15      0.69      0.00
   10    3   15     -0.57      0.00
   12    3   15     -1.19      0.00
   14    3   15     -0.85      0.00
   16    3   15      0.20      0.00
   18    3   15      0.70      0.00
   20    3   15     -0.43      0.00
   22    3   15     -2.43      0.00
    1    4   15      0.27      0.00
    3    4   15      0.44      0.00
    5    4   15      0.31      0.00
    7    4   15      0.63      0.00
    9    4   15      0.94      0.00
   11    4   15     -0.04      0.00
   13    4   15     -1.91      0.00
   15    4   15     -2.61      0.00
   17    4   15     -1.34      0.00
   19    4   15      0.14      0.00
   21    4   15      0.14      0.00
   23    4   15     -0.74      0.00
    2    5   15     -0.88      0.00
    4    5   15      0.77      0.00
    6    5   15      3.36      0.00
    8    5   15      3.78      0.00
   10    5   15      2.29      0.00
   12    5   15      1.68      0.00
   14    5   15      2.80      0.00
   16    5   15      3.74      0.00
   18    5   15      3.15      0.00
   20    5   15      1.78      0.00
   22    5   15      0.62      0.00
    1    6   15     -1.06      0.00
    3    6   15     -2.81      0.00
    5    6   15     -3.15      0.00
    7    6   15     -1.31      0.00
    9    6   15      1.70      0.00
   11    6   15      3.41      0.00
   13    6   15      2.58      0.00
   15    6   15      0.45      0.00
   17    6   15     -1.11      0.00
   19    6   15     -1.90      0.00
   21    6   15     -2.66      0.00
    2    7   15      0.61      0.00
    4    7   15      0.10      0.00
    6    7   15     -0.98      0.00
    8    7   15     -1.42      0.00
   10    7   15     -1.18      0.00
   12    7   15     -1.31      0.00
   14    7   15     -2.18      0.00
   16    7   15     -3.00      0.00
   18    7   15     -2.83      0.00
   20    7   15     -1.49      0.00
    1    8   15      0.68      0.00
    3    8   15      1.84      0.00
    5    8   15      2.42      0.00
    7    8   15      2.45      0.00
    9    8   15      2.50      0.00
   11    8   15      2.91      0.00
   13    8   15      2.91      0.00
   15    8   15      1.60      0.00
   17    8   15     -0.45      0.00
    2    9   15      1.39      0.00
    4    9   15      1.37      0.00
    6    9   15      0.34      0.00
    8    9   15     -0.14      0.00
   10    9   15      0.52      0.00
   12    9   15      1.39      0.00
   14    9   15      1.53      0.00
   16    9   15      1.07      0.00
    1   10   15      1.81      0.00
    3   10   15      4.78      0.00
    5   10   15      5.94      0.00
    7   10   15      4.76      0.00
    9   10   15      1.87      0.00
   11   10   15     -0.89      0.00
   13   10   15     -1.67      0.00
    2   11   15     -0.84      0.00
    4   11   15     -0.57      0.00
    6   11   15      0.64      0.00
    8   11   15      1.89      0.00
   10   11   15      2.72      0.00
    1   12   15     -0.13      0.00
    3   12   15      0.01      0.00
    5   12   15      0.82      0.00
    0    0   16      8.44      0.00
    2    0   16      4.64      0.00
    4    0   16     -2.33      0.00
    6    0   16     -5.35      0.00
    8    0   16     -3.49      0.00
   10    0   16     -0.94      0.00
   12    0   16      0.19      0.00
   14    0   16      1.38      0.00
   16    0   16      3.21      0.00
   18    0   16      4.19      0.00
   20    0   16      4.10      0.00
   22    0   16      4.43      0.00
    1    1   16     -0.01      0.00
    3    1   16      0.01      0.00
    5    1   16     -0.59      0.00
    7    1   16     -1.13      0.00
    9    1   16     -0.18      0.00
   11    1   16      1.64      0.00
   13    1   16      1.82      0.00
   15    1   16     -0.28      0.00
   17    1   16     -2.12      0.00
   19    1   16     -1.56      0.00
   21    1   16      0.19      0.00
   23    1   16      0.72      0.00
    0    2   16     -0.85      0.00
    2    2   16     -0.09      0.00
    4    2   16      0.80      0.00
    6    2   16     -0.14      0.00
    8    2   16     -2.30      0.00
   10    2   16     -3.33      0.00
   12    2   16     -2.31      0.00
   14    2   16     -0.69      0.00
   16    2   16     -0.05      0.00
   18    2   16     -0.39      0.00
   20    2   16     -0.84      0.00
   22    2   16     -0.86      0.00
    1    3   16     -4.59      0.00
    3    3   16     -3.27      0.00
    5    3   16     -0.86      0.00
    7    3   16      0.74      0.00
    9    3   16     -0.36      0.00
   11    3   16     -2.64      0.00
   13    3   16     -2.68      0.00
   15    3   16     -0.49      0.00
   17    3   16     -0.01      0.00
   19    3   16     -3.02      0.00
   21    3   16     -6.01      0.00
    0    4   16     -6.05      0.00
    2    4   16     -3.63      0.00
    4    4   16      0.59      0.00
    6    4   16      1.82      0.00
    8    4   16     -0.12      0.00
   10    4   16     -1.35      0.00
   12    4   16      0.35      0.00
   14    4   16      3.31      0.00
   16    4   16      5.10      0.00
   18    4   16      5.14      0.00
   20    4   16      4.00      0.00
   22    4   16      2.21      0.00
    1    5   16      0.31      0.00
    3    5   16      0.50      0.00
    5    5   16      0.68      0.00
    7    5   16      0.66      0.00
    9    5   16      0.39      0.00
   11    5   16     -0.03      0.00
   13    5   16     -0.35      0.00
   15    5   16     -0.49      0.00
   17    5   16     -0.69      0.00
   19    5   16     -1.23      0.00
   21    5   16     -1.73      0.00
    0    6   16      0.90      0.00
    2    6   16     -0.38      0.00
    4    6   16     -2.44      0.00
    6    6   16     -2.62      0.00
    8    6   16     -1.20      0.00
   10    6   16     -0.42      0.00
   12    6   16     -0.88      0.00
   14    6   16     -1.12      0.00
   16    6   16     -0.17      0.00
   18    6   16      1.21      0.00
   20    6   16      1.85      0.00
    1    7   16      5.35      0.00
    3    7   16      2.99      0.00
    5    7   16     -0.75      0.00
    7    7   16     -3.63      0.00
    9    7   16     -3.60      0.00
   11    7   16     -1.05      0.00
   13    7   16      1.32      0.00
   15    7   16      1.51      0.00
   17    7   16      0.09      0.00
   19    7   16     -1.24      0.00
    0    8   16      0.19      0.00
    2    8   16     -0.40      0.00
    4    8   16     -1.54      0.00
    6    8   16     -2.04      0.00
    8    8   16     -1.41      0.00
   10    8   16     -0.22      0.00
   12    8   16      0.73      0.00
   14    8   16      1.14      0.00
   16    8   16      1.13      0.00
    1    9   16      2.18      0.00
    3    9   16      1.43      0.00
    5    9   16     -0.22      0.00
    7    9   16     -2.37      0.00
    9    9   16     -3.66      0.00
   11    9   16     -2.81      0.00
   13    9   16     -0.35      0.00
   15    9   16      1.47      0.00
    0   10   16     -5.30      0.00
    2   10   16     -3.48      0.00
    4   10   16      0.07      0.00
    6   10   16      1.99      0.00
    8   10   16      1.39      0.00
   10   10   16      0.18      0.00
   12   10   16      0.07      0.00
    1   11   16     -6.12      0.00
    3   11   16     -3.60      0.00
    5   11   16     -0.39      0.00
    7   11   16      1.58      0.00
    2    1   17      3.78      0.00
    4    1   17      2.59      0.00
    6    1   17     -1.70      0.00
    8    1   17     -3.66      0.00
   10    1   17     -2.00      0.00
   12    1   17     -0.25      0.00
   14    1   17     -0.89      0.00
   16    1   17     -2.78      0.00
   18    1   17     -4.16      0.00
   20    1   17     -4.94      0.00
   22    1   17     -5.42      0.00
    1    2   17      0.60      0.00
    3    2   17      1.54      0.00
    5    2   17      1.16      0.00
    7    2   17     -1.06      0.00
    9    2   17     -2.98      0.00
   11    2   17     -1.83      0.00
   13    2   17      1.23      0.00
   15    2   17      1.95      0.00
   17    2   17     -0.88      0.00
   19    2   17     -3.33      0.00
   21    2   17     -2.03      0.00
    2    3   17      4.40      0.00
    4    3   17      5.44      0.00
    6    3   17      3.29      0.00
    8    3   17      0.90      0.00
   10    3   17      0.48      0.00
   12    3   17      1.77      0.00
   14    3   17      3.23      0.00
   16    3   17      3.82      0.00
   18    3   17      3.25      0.00
   20    3   17      1.84      0.00
    1    4   17      0.11      0.00
    3    4   17      0.29      0.00
    5    4   17      0.67      0.00
    7    4   17      1.37      0.00
    9    4   17      1.42      0.00
   11    4   17     -0.18      0.00
   13    4   17     -2.51      0.00
   15    4   17     -3.44      0.00
   17    4   17     -2.54      0.00
   19    4   17     -1.57      0.00
   21    4   17     -1.73      0.00
    2    5   17     -2.91      0.00
    4    5   17     -1.63      0.00
    6    5   17      2.13      0.00
    8    5   17      3.49      0.00
   10    5   17      1.25      0.00
   12    5   17     -1.22      0.00
   14    5   17     -1.14      0.00
   16    5   17      0.66      0.00
   18    5   17      1.90      0.00
   20    5   17      1.63      0.00
    1    6   17     -1.38      0.00
    3    6   17     -3.27      0.00
    5    6   17     -2.80      0.00
    7    6   17      0.21      0.00
    9    6   17      3.77      0.00
   11    6   17      5.08      0.00
   13    6   17      3.31      0.00
   15    6   17      0.48      0.00
   17    6   17     -1.00      0.00
   19    6   17     -0.81      0.00
    2    7   17      0.27      0.00
    4    7   17      0.19      0.00
    6    7   17      0.06      0.00
    8    7   17      0.26      0.00
   10    7   17      0.46      0.00
   12    7   17      0.12      0.00
   14    7   17     -0.72      0.00
   16    7   17     -1.55      0.00
    1    8   17      0.49      0.00
    3    8   17      1.04      0.00
    5    8   17      0.61      0.00
    7    8   17     -0.46      0.00
    9    8   17     -1.06      0.00
   11    8   17     -0.52      0.00
   13    8   17      0.36      0.00
   15    8   17      0.33      0.00
    2    9   17      2.90      0.00
    4    9   17      2.84      0.00
    6    9   17      0.42      0.00
    8    9   17     -1.24      0.00
   10    9   17     -0.43      0.00
   12    9   17      1.47      0.00
    1   10   17      1.73      0.00
    3   10   17      4.46      0.00
    5   10   17      5.39      0.00
    7   10   17      4.38      0.00
    9   10   17      2.26      0.00
    2   11   17     -0.88      0.00
    4   11   17     -0.37      0.00
    0    0   18     11.16      0.00
    2    0   18      7.20      0.00
    4    0   18     -0.01      0.00
    6    0   18     -2.88      0.00
    8    0   18     -0.59      0.00
   10    0   18      1.81      0.00
   12    0   18      1.59      0.00
   14    0   18      0.84      0.00
   16    0   18      1.55      0.00
   18    0   18      2.57      0.00
   20    0   18      2.35      0.00
    1    1   18      0.98      0.00
    3    1   18      0.32      0.00
    5    1   18     -0.96      0.00
    7    1   18     -1.71      0.00
    9    1   18     -0.68      0.00
   11    1   18      1.27      0.00
   13    1   18      1.75      0.00
   15    1   18      0.18      0.00
   17    1   18     -1.31      0.00
   19    1   18     -1.07      0.00
   21    1   18     -0.10      0.00
    0    2   18     -4.06      0.00
    2    2   18     -3.51      0.00
    4    2   18     -2.93      0.00
    6    2   18     -3.67      0.00
    8    2   18     -4.84      0.00
   10    2   18     -4.35      0.00
   12    2   18     -1.83      0.00
   14    2   18      0.78      0.00
   16    2   18      1.75      0.00
   18    2   18      1.26      0.00
   20    2   18      0.66      0.00
    1    3   18     -3.04      0.00
    3    3   18     -2.18      0.00
    5    3   18     -0.81      0.00
    7    3   18     -0.37      0.00
    9    3   18     -1.79      0.00
   11    3   18     -3.20      0.00
   13    3   18     -1.96      0.00
   15    3   18      1.02      0.00
   17    3   18      1.84      0.00
   19    3   18     -0.81      0.00
    0    4   18     -5.74      0.00
    2    4   18     -2.72      0.00
    4    4   18      2.62      0.00
    6    4   18      4.12      0.00
    8    4   18      0.98      0.00
   10    4   18     -2.16      0.00
   12    4   18     -1.74      0.00
   14    4   18      1.08      0.00
   16    4   18      3.18      0.00
   18    4   18      3.23      0.00
    1    5   18     -3.76      0.00
    3    5   18     -2.52      0.00
    5    5   18     -0.92      0.00
    7    5   18     -0.04      0.00
    9    5   18     -0.29      0.00
   11    5   18     -1.13      0.00
   13    5   18     -1.52      0.00
   15    5   18     -0.87      0.00
   17    5   18      0.34      0.00
    0    6   18      0.67      0.00
    2    6   18     -0.36      0.00
    4    6   18     -1.91      0.00
    6    6   18     -1.66      0.00
    8    6   18      0.09      0.00
   10    6   18      1.16      0.00
   12    6   18      0.72      0.00
   14    6   18     -0.11      0.00
   16    6   18     -0.22      0.00
    1    7   18      6.44      0.00
    3    7   18      3.82      0.00
    5    7   18     -0.07      0.00
    7    7   18     -2.76      0.00
    9    7   18     -2.35      0.00
   11    7   18      0.41      0.00
   13    7   18      2.64      0.00
   15    7   18      2.34      0.00
    0    8   18      0.39      0.00
    2    8   18     -0.70      0.00
    4    8   18     -2.76      0.00
    6    8   18     -3.58      0.00
    8    8   18     -2.44      0.00
   10    8   18     -0.59      0.00
   12    8   18      0.51      0.00
   14    8   18      0.76      0.00
    1    9   18      1.68      0.00
    3    9   18      1.13      0.00
    5    9   18     -0.14      0.00
    7    9   18     -1.88      0.00
    9    9   18     -3.08      0.00
   11    9   18     -2.67      0.00
    0   10   18     -2.82      0.00
    2   10   18     -0.97      0.00
    4   10   18      2.49      0.00
    6   10   18      3.91      0.00
    2    1   19      3.99      0.00
    4    1   19      2.88      0.00
    6    1   19     -1.66      0.00
    8    1   19     -4.15      0.00
   10    1   19     -2.88      0.00
   12    1   19     -1.02      0.00
   14    1   19     -1.15      0.00
   16    1   19     -2.32      0.00
   18    1   19     -2.59      0.00
    1    2   19      0.52      0.00
    3    2   19      1.50      0.00
    5    2   19      1.72      0.00
    7    2   19      0.56      0.00
    9    2   19     -0.58      0.00
   11    2   19      0.29      0.00
   13    2   19      2.32      0.00
   15    2   19      2.40      0.00
   17    2   19     -0.10      0.00
   19    2   19     -2.18      0.00
    2    3   19      4.37      0.00
    4    3   19      5.48      0.00
    6    3   19      3.59      0.00
    8    3   19      1.67      0.00
   10    3   19      1.78      0.00
   12    3   19      3.39      0.00
   14    3   19      4.77      0.00
   16    3   19      4.91      0.00
   18    3   19      3.85      0.00
    1    4   19      0.82      0.00
    3    4   19      1.98      0.00
    5    4   19      2.32      0.00
    7    4   19      2.10      0.00
    9    4   19      1.20      0.00
   11    4   19     -0.54      0.00
   13    4   19     -2.30      0.00
   15    4   19     -2.82      0.00
   17    4   19     -2.22      0.00
    2    5   19     -3.27      0.00
    4    5   19     -2.57      0.00
    6    5   19      0.66      0.00
    8    5   19      1.95      0.00
   10    5   19     -0.09      0.00
   12    5   19     -2.69      0.00
   14    5   19     -3.17      0.00
   16    5   19     -1.80      0.00
    1    6   19     -0.98      0.00
    3    6   19     -2.13      0.00
    5    6   19     -1.21      0.00
    7    6   19      1.71      0.00
    9    6   19      4.61      0.00
   11    6   19      4.97      0.00
   13    6   19      2.43      0.00
   15    6   19     -0.66      0.00
    2    7   19      0.24      0.00
    4    7   19      0.59      0.00
    6    7   19      1.08      0.00
    8    7   19      1.43      0.00
   10    7   19      1.23      0.00
   12    7   19      0.54      0.00
   14    7   19     -0.11      0.00
    1    8   19     -0.05      0.00
    3    8   19     -0.39      0.00
    5    8   19     -1.27      0.00
    7    8   19     -2.42      0.00
    9    8   19     -2.94      0.00
   11    8   19     -2.26      0.00
    2    9   19      2.79      0.00
    4    9   19      2.82      0.00
    6    9   19      0.63      0.00
    8    9   19     -0.88      0.00
    0    0   20     11.26      0.00
    2    0   20      7.59      0.00
    4    0   20      0.85      0.00
    6    0   20     -1.92      0.00
    8    0   20      0.20      0.00
   10    0   20      2.57      0.00
   12    0   20      2.31      0.00
   14    0   20      1.01      0.00
   16    0   20      0.77      0.00
   18    0   20      1.15      0.00
    1    1   20      1.44      0.00
    3    1   20      1.11      0.00
    5    1   20      0.07      0.00
    7    1   20     -1.02      0.00
    9    1   20     -0.87      0.00
   11    1   20      0.46      0.00
   13    1   20      1.32      0.00
   15    1   20      0.89      0.00
   17    1   20      0.14      0.00
    0    2   20     -5.16      0.00
    2    2   20     -4.55      0.00
    4    2   20     -3.71      0.00
    6    2   20     -3.96      0.00
    8    2   20     -4.69      0.00
   10    2   20     -4.07      0.00
   12    2   20     -1.64      0.00
   14    2   20      1.00      0.00
   16    2   20      2.12      0.00
    1    3   20      0.28      0.00
    3    3   20     -0.91      0.00
    5    3   20     -2.14      0.00
    7    3   20     -2.95      0.00
    9    3   20     -3.62      0.00
   11    3   20     -3.37      0.00
   13    3   20     -1.11      0.00
   15    3   20      2.00      0.00
   17    3   20      3.12      0.00
    0    4   20     -4.05      0.00
    2    4   20     -1.57      0.00
    4    4   20      2.82      0.00
    6    4   20      4.02      0.00
    8    4   20      1.23      0.00
   10    4   20     -1.91      0.00
   12    4   20     -2.49      0.00
   14    4   20     -1.14      0.00
   16    4   20      0.17      0.00
    1    5   20     -5.18      0.00
    3    5   20     -3.39      0.00
    5    5   20     -1.08      0.00
    7    5   20      0.20      0.00
    9    5   20     -0.14      0.00
   11    5   20     -1.32      0.00
   13    5   20     -1.80      0.00
   15    5   20     -0.76      0.00
    0    6   20      1.01      0.00
    2    6   20      0.42      0.00
    4    6   20     -0.41      0.00
    6    6   20     -0.16      0.00
    8    6   20      0.88      0.00
   10    6   20      1.47      0.00
   12    6   20      1.27      0.00
    1    7   20      3.94      0.00
    3    7   20      2.53      0.00
    5    7   20      0.28      0.00
    7    7   20     -1.35      0.00
    9    7   20     -0.97      0.00
   11    7   20      1.00      0.00
    0    8   20     -0.18      0.00
    2    8   20     -0.99      0.00
    4    8   20     -2.44      0.00
    6    8   20     -2.84      0.00
    8    8   20     -1.77      0.00
    1    9   20      1.00      0.00
    3    9   20      0.74      0.00
    2    1   21      4.04      0.00
    4    1   21      3.61      0.00
    6    1   21     -0.05      0.00
    8    1   21     -2.34      0.00
   10    1   21     -1.47      0.00
   12    1   21      0.31      0.00
   14    1   21      0.82      0.00
   16    1   21      0.38      0.00
    1    2   21     -0.34      0.00
    3    2   21     -0.22      0.00
    5    2   21      0.91      0.00
    7    2   21      1.69      0.00
    9    2   21      1.70      0.00
   11    2   21      1.95      0.00
   13    2   21      2.49      0.00
   15    2   21      1.95      0.00
    2    3   21      2.90      0.00
    4    3   21      3.76      0.00
    6    3   21      2.79      0.00
    8    3   21      1.84      0.00
   10    3   21      2.01      0.00
   12    3   21      2.81      0.00
   14    3   21      3.35      0.00
    1    4   21      1.48      0.00
    3    4   21      3.49      0.00
    5    4   21      3.66      0.00
    7    4   21      2.65      0.00
    9    4   21      1.35      0.00
   11    4   21      0.15      0.00
   13    4   21     -0.60      0.00
    2    5   21     -2.36      0.00
    4    5   21     -2.12      0.00
    6    5   21     -0.22      0.00
    8    5   21      0.58      0.00
   10    5   21     -0.52      0.00
   12    5   21     -1.99      0.00
    1    6   21     -0.14      0.00
    3    6   21     -0.23      0.00
    5    6   21      0.36      0.00
    7    6   21      1.78      0.00
    9    6   21      2.99      0.00
   11    6   21      2.44      0.00
    2    7   21      0.41      0.00
    4    7   21      0.98      0.00
    6    7   21      1.56      0.00
    8    7   21      1.68      0.00
    1    8   21     -0.46      0.00
    3    8   21     -1.21      0.00
    0    0   22      8.06      0.00
    2    0   22      5.26      0.00
    4    0   22      0.12      0.00
    6    0   22     -2.04      0.00
    8    0   22     -0.38      0.00
   10    0   22      1.79      0.00
   12    0   22      2.20      0.00
   14    0   22      1.62      0.00
    1    1   22      1.26      0.00
    3    1   22      1.61      0.00
    5    1   22      1.21      0.00
    7    1   22     -0.07      0.00
    9    1   22     -0.86      0.00
   11    1   22     -0.35      0.00
   13    1   22      0.70      0.00
    0    2   22     -3.86      0.00
    2    2   22     -3.37      0.00
    4    2   22     -2.68      0.00
    6    2   22     -2.87      0.00
    8    2   22     -3.62      0.00
   10    2   22     -3.58      0.00
   12    2   22     -2.20      0.00
    1    3   22      2.03      0.00
    3    3   22     -0.64      0.00
    5    3   22     -3.49      0.00
    7    3   22     -4.68      0.00
    9    3   22     -4.37      0.00
   11    3   22     -3.08      0.00
   13    3   22     -0.83      0.00
    0    4   22     -2.29      0.00
    2    4   22     -0.81      0.00
    4    4   22      1.79      0.00
    6    4   22      2.54      0.00
    8    4   22      1.03      0.00
   10    4   22     -0.74      0.00
    1    5   22     -2.29      0.00
    3    5   22     -1.24      0.00
    5    5   22      0.11      0.00
    7    5   22      0.77      0.00
    9    5   22      0.32      0.00
    0    6   22      0.84      0.00
    2    6   22      0.58      0.00
    4    6   22      0.17      0.00
    6    6   22      0.05      0.00
    8    6   22      0.04      0.00
    1    7   22     -0.57      0.00
    3    7   22     -0.20      0.00
    2    1   23      2.84      0.00
    4    1   23      2.88      0.00
    6    1   23      0.91      0.00
    8    1   23     -0.27      0.00
   10    1   23      0.31      0.00
    1    2   23     -1.10      0.00
    3    2   23     -1.86      0.00
    5    2   23     -0.28      0.00
    7    2   23      1.72      0.00
    9    2   23      2.43      0.00
   11    2   23      2.21      0.00
    2    3   23      1.48      0.00
    4    3   23      2.01      0.00
    6    3   23      1.80      0.00
    8    3   23      1.70      0.00
   10    3   23      1.91      0.00
    1    4   23      1.28      0.00
    3    4   23      2.95      0.00
    5    4   23      2.96      0.00
    7    4   23      2.14      0.00
    2    5   23     -1.19      0.00
    4    5   23     -1.22      0.00
    6    5   23     -0.54      0.00
    0    0   24      4.80      0.00
    2    0   24      3.17      0.00
    4    0   24      0.14      0.00
    6    0   24     -1.30      0.00
    1    1   24      0.50      0.00
    3    1   24      1.24      0.00
    5    1   24      1.30      0.00
    7    1   24      0.14      0.00
    0    2   24     -2.59      0.00
    2    2   24     -2.49      0.00
    4    2   24     -2.44      0.00
    6    2   24     -2.71      0.00
    1    3   24      1.95      0.00
    3    3   24     -0.59      0.00
    5    3   24     -3.05      0.00
    0    4   24     -0.87      0.00
    0    0    0      0.00      0.00
# SQUEEZE RESULTS (APPEND TO CIF)
# Note: Data are Listed for all Voids in the P1 Unit Cell
# i.e. Centre of Gravity, Solvent Accessible Volume,
# Recovered number of Electrons in the Void and
# Details about the Squeezed Material
loop_
  _platon_squeeze_void_nr
  _platon_squeeze_void_average_x
  _platon_squeeze_void_average_y
  _platon_squeeze_void_average_z
  _platon_squeeze_void_volume
  _platon_squeeze_void_count_electrons
  _platon_squeeze_void_content
   1  0.000 -0.018  0.000       169        32 ' '
   2  0.500 -0.003  0.000       169        32 ' '
   3  0.000 -0.020  0.500       169        32 ' '
   4  0.500 -0.015  0.500       169        32 ' '
_platon_squeeze_details
TITL 3         I b a m      R = 0.06
CELL   23.1060   11.6464   18.6100     90.00     90.00     90.00
SPGR Ibam
# Note: Atoms in Void as Cxxx and Qxxx all others
Q101 1.000 0.031 0.259 !       3.42 eA-3
Q102 0.814 0.500 0.005 !       3.03 eA-3
Q103 0.500 0.672 0.251 !       2.79 eA-3
C104 0.946 0.328 0.001 !       2.34 eA-3
Q105 0.187 0.125 0.002 !       2.29 eA-3
Q106 0.965 0.028 0.248 !       2.22 eA-3
Q107 0.686 0.922-0.001 !       2.12 eA-3
Q108 0.855 0.469-0.005 !       2.11 eA-3
C109 0.540 0.906-0.002 !       2.03 eA-3
Q110 0.153 0.172-0.002 !       2.02 eA-3
Q111 0.903 0.148 0.049 !       1.97 eA-3
Q112 0.486 0.623 0.266 !       1.86 eA-3
C113 0.487 0.493 0.018 !       1.74 eA-3
Q114 0.383 0.156 0.001 !       1.71 eA-3
C115 0.072 0.875 0.000 !       1.68 eA-3
Q116 0.687 0.297-0.001 !       1.67 eA-3
Q117 0.671 0.453 0.002 !       1.67 eA-3
C118 0.990 0.813-0.002 !       1.66 eA-3
Q119 0.577 0.906 0.001 !       1.60 eA-3
Q120 0.365 0.891-0.004 !       1.54 eA-3
Q121 0.842 0.359 0.000 !       1.51 eA-3
Q122 0.722 0.328 0.001 !       1.42 eA-3
C123 0.045 0.969-0.005 !       1.36 eA-3
Q124 0.041 0.171 0.294 !       1.36 eA-3
Q125 0.337 0.050 0.031 !       1.34 eA-3
Q126 0.228 0.312 0.049 !       1.34 eA-3
Q127 0.478 0.215 0.383 !       1.34 eA-3
Q128 0.234 0.609 0.000 !       1.31 eA-3
C129 0.548 0.889 0.033 !       1.31 eA-3
Q130 0.306 0.477 0.015 !       1.29 eA-3
Q131 0.069 0.028 0.280 !       1.24 eA-3
Q132 0.842 0.254 0.470 !       1.23 eA-3
Q133 0.514 0.279 0.311 !       1.21 eA-3
Q134 0.196 0.422-0.009 !       1.21 eA-3
Q135 0.365 0.906 0.450 !       1.21 eA-3
Q136 0.021 0.279 0.046 !       1.18 eA-3
Q137 0.303 0.156-0.001 !       1.18 eA-3
Q138 0.766 0.646 0.080 !       1.17 eA-3
Q139 0.268 0.187 0.079 !       1.15 eA-3
Q140 0.172 0.813 0.001 !       1.13 eA-3
Q141 0.859 0.495 0.376 !       1.12 eA-3
Q142 0.141 0.505 0.624 !       1.12 eA-3
Q143 0.297 0.745 0.050 !       1.09 eA-3
Q144 0.016 0.266-0.001 !       1.08 eA-3
Q145 0.066 0.610 0.361 !       1.08 eA-3
Q146 0.801 0.797 0.172 !       1.08 eA-3
Q147 0.307 0.781 0.000 !       1.08 eA-3
C148 0.987 0.336 0.044 !       1.08 eA-3
Q149 0.202 0.909 0.220 !       1.07 eA-3
Q150 0.965 0.191 0.829 !       1.07 eA-3
Q151 0.465 0.691 0.329 !       1.07 eA-3
Q152 0.670 0.406 0.053 !       1.07 eA-3
Q153 0.238 0.453 0.003 !       1.06 eA-3
Q154 0.045 0.667 0.406 !       1.06 eA-3
Q155 0.277 0.422 0.001 !       1.04 eA-3
Q156 0.828 0.656-0.005 !       1.03 eA-3
Q157 0.212 0.546 0.030 !       1.02 eA-3
Q158 0.742 0.719-0.001 !       1.02 eA-3
Q159 0.147 0.438 0.004 !       1.01 eA-3
Q160 0.983 0.666 0.345 !       1.00 eA-3
Q161 0.748 0.455 0.032 !       1.00 eA-3
Q162 0.358 0.617 0.126 !       1.00 eA-3
C163 0.935 0.813 0.467 !       0.99 eA-3
Q164 0.798 0.160 0.170 !       0.99 eA-3
Q165 0.998 0.607 0.111 !       0.99 eA-3
Q166 0.654 0.115 0.064 !       0.98 eA-3
Q167 0.198 0.226 0.358 !       0.98 eA-3
Q168 0.874 0.487 0.249 !       0.97 eA-3
Q169 0.097 0.344 0.002 !       0.97 eA-3
Q170 0.254 0.328-0.001 !       0.96 eA-3
Q171 0.342 0.436 0.405 !       0.96 eA-3
Q172 0.631 0.048 0.437 !       0.96 eA-3
Q173 0.368 0.313 0.001 !       0.96 eA-3
C174 0.420 0.297 0.077 !       0.96 eA-3
Q175 0.804 0.500 0.169 !       0.96 eA-3
Q176 0.284 0.284 0.182 !       0.95 eA-3
Q177 0.134 0.750-0.001 !       0.95 eA-3
Q178 0.479 0.386 0.283 !       0.94 eA-3
Q179 0.648 0.274 0.372 !       0.94 eA-3
Q180 0.119 0.534 0.405 !       0.93 eA-3
Q181 0.119 0.471 0.908 !       0.93 eA-3
Q182 0.521 0.172-0.001 !       0.93 eA-3
Q183 0.900 0.203-0.005 !       0.93 eA-3
Q184 0.028 0.595 0.077 !       0.92 eA-3
Q185 0.325 0.717 0.327 !       0.92 eA-3
Q186 0.623 0.933 0.114 !       0.92 eA-3
Q187 0.142 0.764 0.031 !       0.91 eA-3
Q188 0.834 0.479 0.408 !       0.91 eA-3
Q189 0.933 0.908 0.048 !       0.91 eA-3
Q190 0.023 0.051 0.213 !       0.90 eA-3
Q191 0.548 0.328 0.002 !       0.90 eA-3
C192 0.029 0.828-0.001 !       0.89 eA-3
Q193 0.271 0.434 0.030 !       0.89 eA-3
Q194 0.224 0.161 0.371 !       0.88 eA-3
Q195 0.140 0.156 0.277 !       0.88 eA-3
Q196 0.181 0.578 0.108 !       0.88 eA-3
Q197 0.781 0.848 0.216 !       0.88 eA-3
Q198 0.194 0.564 0.217 !       0.87 eA-3
Q199 0.906 0.483 0.078 !       0.87 eA-3
;
_shelx_fab_checksum              11300
loop_
_space_group_symop_operation_xyz
'x, y, z'
'-x, -y, z'
'-x+1/2, y+1/2, -z'
'x+1/2, -y+1/2, -z'
'x+1/2, y+1/2, z+1/2'
'-x+1/2, -y+1/2, z+1/2'
'-x+1, y+1, -z+1/2'
'x+1, -y+1, -z+1/2'
'-x, -y, -z'
'x, y, -z'
'x-1/2, -y-1/2, z'
'-x-1/2, y-1/2, z'
'-x+1/2, -y+1/2, -z+1/2'
'x+1/2, y+1/2, -z+1/2'
'x, -y, z+1/2'
'-x, y, z+1/2'
loop_
_atom_site_label
_atom_site_type_symbol
_atom_site_fract_x
_atom_site_fract_y
_atom_site_fract_z
_atom_site_U_iso_or_equiv
_atom_site_adp_type
_atom_site_occupancy
_atom_site_site_symmetry_order
_atom_site_calc_flag
_atom_site_refinement_flags_posn
_atom_site_refinement_flags_adp
_atom_site_refinement_flags_occupancy
_atom_site_disorder_assembly
_atom_site_disorder_group
Er1 Er 0.18590(2) 0.16858(5) 0.0000 0.0329(2) Uani 0.4016 2 d S T P A 1
Er2 Er 0.0000 0.0000 0.2500 0.0539(3) Uani 0.4016 4 d S T P A 1
Yb1 Yb 0.18590(2) 0.16858(5) 0.0000 0.0329(2) Uani 0.5984 2 d S T P A 1
Yb2 Yb 0.0000 0.0000 0.2500 0.0539(3) Uani 0.5984 4 d S T P A 1
O1 O 0.0667(3) 0.0338(6) 0.1649(3) 0.0427(16) Uani 1 1 d . . . A 1
O2 O 0.1239(3) 0.1180(7) 0.0871(3) 0.0470(17) Uani 1 1 d . . . A 1
O3 O 0.2601(3) 0.1345(6) 0.0874(4) 0.0478(17) Uani 1 1 d . . . A 1
O4 O 0.2255(4) 0.3056(6) 0.0768(4) 0.059(2) Uani 1 1 d . . . A 1
O6 O 0.1175(6) 0.3143(10) 0.0000 0.071(3) Uani 1 2 d S T P A 1
O7 O 0.1946(5) -0.0300(8) 0.0000 0.055(3) Uani 1 2 d S T P A 1
C4 C 0.2932(4) 0.2778(8) 0.1710(5) 0.036(2) Uani 1 1 d . . . A 1
C7 C 0.1096(4) 0.0942(8) 0.1507(5) 0.0349(19) Uani 1 1 d . . . A 1
C1 C 0.1452(4) 0.1400(8) 0.2117(4) 0.0307(18) Uani 1 1 d . . . A 1
C8 C 0.2584(4) 0.2384(8) 0.1080(5) 0.036(2) Uani 1 1 d . . . A 1
C5 C 0.2956(4) 0.3954(8) 0.1845(4) 0.0331(18) Uani 1 1 d . . . A 1
H5 H 0.2764 0.4460 0.1540 0.040 Uiso 1 1 calc R U . A 1
C6 C 0.1735(3) 0.0617(7) 0.2569(5) 0.0287(17) Uani 1 1 d . . . A 1
C2 C 0.1488(4) 0.2577(8) 0.2248(5) 0.041(2) Uani 1 1 d . . . A 1
H2 H 0.1309 0.3095 0.1940 0.049 Uiso 1 1 calc R U . A 1
C3 C 0.3207(4) 0.2028(8) 0.2158(5) 0.041(2) Uani 1 1 d . . . A 1
H3 H 0.3189 0.1244 0.2066 0.049 Uiso 1 1 calc R U . A 1
C12 C 0.1847(7) -0.1703(15) 0.0000 0.058(4) Uani 1 2 d S T P A 1
H12A H 0.1891 -0.1993 0.0480 0.087 Uiso 0.5 1 calc R U P A 1
H12B H 0.2128 -0.2058 -0.0309 0.087 Uiso 0.5 1 calc R U P A 1
H12C H 0.1465 -0.1874 -0.0171 0.087 Uiso 0.5 1 calc R U P A 1
O5 O 0.0257(6) 0.1868(12) 0.3003(8) 0.052(4) Uani 0.5 1 d . U P B 2
C9 C 0.0000 0.232(3) 0.2500 0.063(6) Uani 0.5 2 d DS TU P B 2
C10 C 0.0000 0.363(3) 0.2500 0.070(6) Uani 0.5 2 d DS TU P B 2
C11 C 0.0044(13) 0.438(2) 0.3132(16) 0.082(6) Uani 0.5 1 d . U P B 2
H11 H 0.0136 0.4032 0.3569 0.099 Uiso 0.5 1 calc R U P B 2
O1W O 0.3633(7) 0.0038(17) 0.0911(13) 0.091(7) Uani 0.5 1 d . . P C 2
loop_
_atom_site_aniso_label
_atom_site_aniso_U_11
_atom_site_aniso_U_22
_atom_site_aniso_U_33
_atom_site_aniso_U_23
_atom_site_aniso_U_13
_atom_site_aniso_U_12
Er1 0.0392(3) 0.0403(3) 0.0192(3) 0.000 0.000 -0.0058(3)
Er2 0.0197(4) 0.1201(9) 0.0221(4) 0.000 0.000 0.000
Yb1 0.0392(3) 0.0403(3) 0.0192(3) 0.000 0.000 -0.0058(3)
Yb2 0.0197(4) 0.1201(9) 0.0221(4) 0.000 0.000 0.000
O1 0.032(3) 0.072(5) 0.024(3) -0.002(3) 0.001(3) -0.012(3)
O2 0.043(4) 0.078(5) 0.020(3) 0.004(3) 0.001(3) -0.014(4)
O3 0.058(4) 0.049(4) 0.037(3) -0.011(3) -0.014(3) 0.003(3)
O4 0.088(6) 0.045(4) 0.045(4) -0.006(3) -0.028(4) 0.002(4)
O6 0.086(9) 0.068(8) 0.060(7) 0.000 0.000 0.002(7)
O7 0.087(8) 0.039(5) 0.040(6) 0.000 0.000 -0.003(5)
C4 0.032(5) 0.046(5) 0.030(4) 0.001(4) -0.002(4) -0.007(4)
C7 0.029(4) 0.045(5) 0.030(4) -0.004(4) -0.001(4) -0.001(4)
C1 0.025(4) 0.048(5) 0.019(4) -0.002(3) 0.004(3) -0.001(4)
C8 0.043(5) 0.041(5) 0.025(4) -0.001(4) 0.001(4) -0.011(4)
C5 0.037(5) 0.039(5) 0.023(4) -0.001(3) -0.002(4) -0.001(4)
C6 0.026(4) 0.033(4) 0.027(4) -0.002(3) 0.007(3) -0.003(3)
C2 0.049(6) 0.040(5) 0.033(5) -0.002(4) -0.007(4) 0.005(4)
C3 0.050(6) 0.035(4) 0.037(5) -0.001(4) 0.004(4) -0.004(4)
C12 0.069(11) 0.079(11) 0.026(7) 0.000 0.000 0.026(10)
O5 0.052(8) 0.046(8) 0.059(9) 0.000(7) 0.017(7) -0.012(6)
C9 0.041(10) 0.092(13) 0.056(11) 0.000 0.027(10) 0.000
C10 0.054(10) 0.097(13) 0.058(11) 0.000 0.020(10) 0.000
C11 0.076(12) 0.098(14) 0.072(12) 0.006(9) 0.015(11) 0.004(9)
O1W 0.058(10) 0.084(12) 0.130(18) -0.060(13) -0.014(11) 0.014(10)
loop_
_atom_type_symbol
_atom_type_description
_atom_type_scat_dispersion_real
_atom_type_scat_dispersion_imag
_atom_type_scat_source
C C 0.0033 0.0016 'International Tables Vol C Tables 4.2.6.8 and 6.1.1.4'
Er Er -0.2586 4.9576 'International Tables Vol C Tables 4.2.6.8 and 6.1.1.4'
H H 0.0000 0.0000 'International Tables Vol C Tables 4.2.6.8 and 6.1.1.4'
O O 0.0106 0.0060 'International Tables Vol C Tables 4.2.6.8 and 6.1.1.4'
Yb Yb -0.3850 5.5486 'International Tables Vol C Tables 4.2.6.8 and 6.1.1.4'
loop_
_geom_angle_atom_site_label_1
_geom_angle_atom_site_label_2
_geom_angle_atom_site_label_3
_geom_angle
_geom_angle_site_symmetry_1
_geom_angle_site_symmetry_3
O2 Er1 O2 92.6(3) 10 .
O2 Er1 O6 75.9(3) 10 .
O2 Er1 O6 75.9(3) . .
O2 Er1 O7 78.1(3) 10 .
O2 Er1 O7 78.1(3) . .
O6 Er1 O7 142.0(4) . .
O2 Er1 O4 89.3(3) 10 10
O2 Er1 O4 151.0(3) . 10
O6 Er1 O4 76.5(3) . 10
O7 Er1 O4 130.4(3) . 10
O2 Er1 O4 151.0(3) 10 .
O2 Er1 O4 89.3(3) . .
O6 Er1 O4 76.5(3) . .
O7 Er1 O4 130.4(3) . .
O4 Er1 O4 75.7(4) 10 .
O2 Er1 O3 154.7(3) 10 .
O2 Er1 O3 85.6(3) . .
O6 Er1 O3 127.5(2) . .
O7 Er1 O3 76.9(3) . .
O4 Er1 O3 104.4(3) 10 .
O4 Er1 O3 54.3(2) . .
O2 Er1 O3 85.6(3) 10 10
O2 Er1 O3 154.7(3) . 10
O6 Er1 O3 127.5(2) . 10
O7 Er1 O3 76.9(3) . 10
O4 Er1 O3 54.3(2) 10 10
O4 Er1 O3 104.4(3) . 10
O3 Er1 O3 85.5(4) . 10
O2 Er1 C8 177.4(3) 10 .
O2 Er1 C8 86.5(3) . .
O6 Er1 C8 101.5(3) . .
O7 Er1 C8 104.1(3) . .
O4 Er1 C8 90.3(3) 10 .
O4 Er1 C8 26.7(3) . .
O3 Er1 C8 27.6(3) . .
O3 Er1 C8 96.2(3) 10 .
O2 Er1 C8 86.5(3) 10 10
O2 Er1 C8 177.4(3) . 10
O6 Er1 C8 101.5(3) . 10
O7 Er1 C8 104.1(3) . 10
O4 Er1 C8 26.7(3) 10 10
O4 Er1 C8 90.3(3) . 10
O3 Er1 C8 96.3(3) . 10
O3 Er1 C8 27.6(3) 10 10
C8 Er1 C8 94.3(4) . 10
O1 Er2 O1 159.8(4) 2 8_445
O1 Er2 O1 93.3(3) 2 7_445
O1 Er2 O1 90.3(3) 8_445 7_445
O1 Er2 O1 90.3(3) 2 .
O1 Er2 O1 93.3(3) 8_445 .
O1 Er2 O1 159.8(4) 7_445 .
C7 O1 Er2 142.7(6) . .
C7 O2 Er1 154.7(6) . .
C8 O3 Er1 91.4(6) . .
C8 O4 Er1 95.5(5) . .
C12 O7 Er1 167.1(10) . .
C3 C4 C5 120.0(8) . .
C3 C4 C8 122.2(9) . .
C5 C4 C8 117.7(8) . .
O1 C7 O2 122.1(8) . .
O1 C7 C1 118.6(8) . .
O2 C7 C1 119.3(8) . .
C2 C1 C6 120.4(8) . .
C2 C1 C7 121.0(8) . .
C6 C1 C7 118.6(8) . .
O4 C8 O3 118.7(8) . .
O4 C8 C4 120.3(8) . .
O3 C8 C4 120.8(9) . .
O4 C8 Er1 57.8(5) . .
O3 C8 Er1 61.0(5) . .
C4 C8 Er1 174.8(7) . .
C4 C5 C6 120.9(8) . 13
C5 C6 C1 118.3(8) 13 .
C5 C6 C6 119.3(8) 13 8_445
C1 C6 C6 122.4(9) . 8_445
C3 C2 C1 119.7(9) 13 .
C4 C3 C2 120.7(9) . 13
O5 C9 O5 129(3) 7_445 .
O5 C9 C10 115.5(15) 7_445 .
O5 C9 C10 115.5(15) . .
C11 C10 C11 107(3) 7_445 .
C11 C10 C9 126.5(15) 7_445 .
C11 C10 C9 126.5(15) . .
C11 C11 C10 125.4(17) 2_565 .
loop_
_geom_bond_atom_site_label_1
_geom_bond_atom_site_label_2
_geom_bond_distance
_geom_bond_site_symmetry_2
Er1 O2 2.242(6) 10
Er1 O2 2.242(6) .
Er1 O6 2.319(13) .
Er1 O7 2.322(10) .
Er1 O4 2.330(7) 10
Er1 O4 2.330(7) .
Er1 O3 2.397(7) .
Er1 O3 2.397(7) 10
Er1 C8 2.740(9) .
Er1 C8 2.740(9) 10
Er2 O1 2.245(6) 2
Er2 O1 2.245(6) 8_445
Er2 O1 2.245(6) 7_445
Er2 O1 2.245(6) .
O1 C7 1.244(11) .
O2 C7 1.261(10) .
O3 C8 1.270(11) .
O4 C8 1.235(12) .
O7 C12 1.649(19) .
C4 C3 1.366(13) .
C4 C5 1.393(13) .
C4 C8 1.494(12) .
C7 C1 1.499(12) .
C1 C2 1.395(13) .
C1 C6 1.403(12) .
C5 C6 1.396(12) 13
C6 C5 1.396(12) 13
C6 C6 1.460(16) 8_445
C2 C3 1.388(13) 13
C3 C2 1.388(13) 13
O5 C9 1.23(2) .
C9 O5 1.23(2) 7_445
C9 C10 1.517(19) .
C10 C11 1.47(3) 7_445
C10 C11 1.47(3) .
C11 C11 1.47(5) 2_565
