#------------------------------------------------------------------------------
#$Date: 2019-11-17 10:51:22 +0200 (Sun, 17 Nov 2019) $
#$Revision: 229439 $
#$URL: file:///home/coder/svn-repositories/cod/cif/7/04/75/7047572.cif $
#------------------------------------------------------------------------------
#
# This file is available in the Crystallography Open Database (COD),
# http://www.crystallography.net/
#
# All data on this site have been placed in the public domain by the
# contributors.
#
data_7047572
loop_
_publ_author_name
'Feng, Dan-Dan'
'Dong, Hui-Ming'
'Liu, Zheng-Yu'
'Zhao, Xiao-Jun'
'Yang, En-Cui'
_publ_section_title
;
 Three microporous metal-organic frameworks assembled from dodecanuclear
 {NiLn} subunits: synthesis, structure, gas adsorption and magnetism.
;
_journal_issue                   43
_journal_name_full
'Dalton transactions (Cambridge, England : 2003)'
_journal_page_first              15344
_journal_page_last               15352
_journal_paper_doi               10.1039/c8dt02816h
_journal_volume                  47
_journal_year                    2018
_chemical_formula_moiety         '0.04(C672 H816 Gd48 N240 Ni24 O336)'
_chemical_formula_sum            'C28 H34 Gd2 N10 Ni O14'
_chemical_formula_weight         1107.86
_space_group_crystal_system      cubic
_space_group_IT_number           206
_space_group_name_Hall           '-I 2b 2c 3'
_space_group_name_H-M_alt        'I a -3'
_symmetry_space_group_name_Hall  '-I 2b 2c 3'
_symmetry_space_group_name_H-M   'I a -3'
_atom_sites_solution_hydrogens   mixed
_atom_sites_solution_primary     dual
_audit_creation_date             2018-08-15
_audit_creation_method
;
Olex2 1.2
(compiled 2018.05.29 svn.r3508 for OlexSys, GUI svn.r5506)
;
_audit_update_record
;
2018-09-13 deposited with the CCDC.
2018-09-17 downloaded from the CCDC.
;
_cell_angle_alpha                90
_cell_angle_beta                 90
_cell_angle_gamma                90
_cell_formula_units_Z            24
_cell_length_a                   32.6462(5)
_cell_length_b                   32.6462(5)
_cell_length_c                   32.6462(5)
_cell_measurement_reflns_used    3034
_cell_measurement_temperature    173.00(10)
_cell_measurement_theta_max      73.7750
_cell_measurement_theta_min      5.0510
_cell_volume                     34793.5(9)
_computing_cell_refinement       'CrysAlisPro 1.171.38.41 (Rigaku OD, 2015)'
_computing_data_collection       'CrysAlisPro 1.171.38.41 (Rigaku OD, 2015)'
_computing_data_reduction        'CrysAlisPro 1.171.38.41 (Rigaku OD, 2015)'
_computing_molecular_graphics    'Olex2 (Dolomanov et al., 2009)'
_computing_publication_material  'Olex2 (Dolomanov et al., 2009)'
_computing_structure_refinement  'ShelXL (Sheldrick, 2015)'
_computing_structure_solution    'ShelXT (Sheldrick, 2015)'
_diffrn_ambient_environment      N~2~
_diffrn_ambient_temperature      173.00(10)
_diffrn_detector                 'CCD plate'
_diffrn_detector_area_resol_mean 5.2740
_diffrn_detector_type            AtlasS2
_diffrn_measured_fraction_theta_full 0.998
_diffrn_measured_fraction_theta_max 0.998
_diffrn_measurement_details
;
List of Runs (angles in degrees, time in seconds):

  # Type    Start    End  Width  t~exp~   \w     \q     \k     \f   Frames
#--------------------------------------------------------------------------
  1  \w    -49.00  -1.00   1.00   27.54    --  -41.49  19.00  30.00   48
  2  \w     35.00 109.00   1.00   40.15    --  107.08 -95.00 150.00   74
;
_diffrn_measurement_device       'four-circle diffractometer'
_diffrn_measurement_device_type  'SuperNova, Dual, Cu at zero, AtlasS2'
_diffrn_measurement_method       '\w scans'
_diffrn_orient_matrix_type
'CrysAlisPro convention (1999,Acta A55,543-557)'
_diffrn_orient_matrix_UB_11      0.0322844000
_diffrn_orient_matrix_UB_12      -0.0226594000
_diffrn_orient_matrix_UB_13      -0.0258823000
_diffrn_orient_matrix_UB_21      0.0178551000
_diffrn_orient_matrix_UB_22      0.0414117000
_diffrn_orient_matrix_UB_23      -0.0140442000
_diffrn_orient_matrix_UB_31      0.0294512000
_diffrn_orient_matrix_UB_32      -0.0001986000
_diffrn_orient_matrix_UB_33      0.0368298000
_diffrn_radiation_monochromator  mirror
_diffrn_radiation_probe          x-ray
_diffrn_radiation_type           CuK\a
_diffrn_radiation_wavelength     1.54184
_diffrn_reflns_av_R_equivalents  0.0451
_diffrn_reflns_av_unetI/netI     0.0576
_diffrn_reflns_Laue_measured_fraction_full 0.998
_diffrn_reflns_Laue_measured_fraction_max 0.998
_diffrn_reflns_limit_h_max       25
_diffrn_reflns_limit_h_min       -7
_diffrn_reflns_limit_k_max       36
_diffrn_reflns_limit_k_min       -27
_diffrn_reflns_limit_l_max       38
_diffrn_reflns_limit_l_min       -19
_diffrn_reflns_number            11691
_diffrn_reflns_point_group_measured_fraction_full 0.998
_diffrn_reflns_point_group_measured_fraction_max 0.998
_diffrn_reflns_theta_full        66.934
_diffrn_reflns_theta_max         66.934
_diffrn_reflns_theta_min         3.830
_diffrn_source                   'micro-focus sealed X-ray tube'
_diffrn_source_type              'SuperNova (Cu) X-ray Source'
_exptl_absorpt_coefficient_mu    15.402
_exptl_absorpt_correction_T_max  1.00000
_exptl_absorpt_correction_T_min  0.86961
_exptl_absorpt_correction_type   multi-scan
_exptl_absorpt_process_details
;
CrysAlisPro 1.171.38.41 (Rigaku Oxford Diffraction, 2015)
Empirical absorption correction using spherical harmonics,
 implemented in SCALE3 ABSPACK scaling algorithm.
;
_exptl_crystal_colour            red
_exptl_crystal_colour_primary    red
_exptl_crystal_density_diffrn    1.269
_exptl_crystal_description       block
_exptl_crystal_F_000             12960
_exptl_crystal_size_max          0.25
_exptl_crystal_size_mid          0.2
_exptl_crystal_size_min          0.18
_refine_diff_density_max         0.970
_refine_diff_density_min         -0.519
_refine_diff_density_rms         0.076
_refine_ls_extinction_method     none
_refine_ls_goodness_of_fit_ref   1.022
_refine_ls_hydrogen_treatment    mixed
_refine_ls_matrix_type           full
_refine_ls_number_parameters     265
_refine_ls_number_reflns         5173
_refine_ls_number_restraints     36
_refine_ls_restrained_S_all      1.039
_refine_ls_R_factor_all          0.0645
_refine_ls_R_factor_gt           0.0432
_refine_ls_shift/su_max          0.001
_refine_ls_shift/su_mean         0.000
_refine_ls_structure_factor_coef Fsqd
_refine_ls_weighting_details
'w=1/[\s^2^(Fo^2^)+(0.0582P)^2^] where P=(Fo^2^+2Fc^2^)/3'
_refine_ls_weighting_scheme      calc
_refine_ls_wR_factor_gt          0.1090
_refine_ls_wR_factor_ref         0.1178
_reflns_Friedel_coverage         0.000
_reflns_number_gt                3805
_reflns_number_total             5173
_reflns_threshold_expression     'I > 2\s(I)'
_cod_data_source_file            c8dt02816h2.cif
_cod_data_source_block           a151118b_sq
_cod_depositor_comments
'Adding full bibliography for 7047570--7047572.cif.'
_cod_original_cell_volume        34793.6(16)
_cod_database_code               7047572
_shelx_shelxl_version_number     2018/3
_shelx_space_group_comment
;
The symmetry employed for this shelxl refinement is uniquely defined
by the following loop, which should always be used as a source of
symmetry information in preference to the above space-group names.
They are only intended as comments.
;
_reflns_odcompleteness_completeness 99.76
_reflns_odcompleteness_iscentric 1
_reflns_odcompleteness_theta     66.97
_olex2_refinement_description
;
1. Fixed Uiso
 At 1.5 times of:
  All C(H,H,H) groups, All O(H) groups
2. Uiso/Uaniso restraints and constraints
Uanis(C14) \\sim Ueq: with sigma of 0.005 and sigma for terminal atoms of 0.01
Uanis(O5) \\sim Ueq, Uanis(O6) \\sim Ueq, Uanis(C10) \\sim Ueq, Uanis(C11)
\\sim Ueq: with sigma of 0.005 and sigma for terminal atoms of 0.01
Uanis(C15) \\sim Ueq: with sigma of 0.005 and sigma for terminal atoms of 0.005
3. Others
 Fixed Sof: H2(0.5) C15(0.5) H15A(0.5) H15B(0.5) H15C(0.5)
4.a Riding coordinates:
 O2(H2), C9(H9A,H9B,H9C), C11(H11A,H11B,H11C), C15(H15A,H15B,H15C)
4.b Aromatic/amide H refined with riding coordinates:
 C2(H2A), C3(H3), C4(H4)
4.c Idealised Me refined as rotating group:
 C6(H6A,H6B,H6C), C13(H13A,H13B,H13C)
;
_shelx_res_file
;
TITL a151118b_a.res in Ia-3
    a151118b_sq.res
    created by SHELXL-2018/3 at 16:00:33 on 15-Aug-2018
CELL 1.54184 32.646228 32.646228 32.646228 90 90 90
ZERR 24 0.000504 0.000504 0.000504 0 0 0
LATT 2
SYMM 0.5-X,-Y,0.5+Z
SYMM -X,0.5+Y,0.5-Z
SYMM 0.5+X,0.5-Y,-Z
SYMM +Z,+X,+Y
SYMM 0.5+Z,0.5-X,-Y
SYMM 0.5-Z,-X,0.5+Y
SYMM -Z,0.5+X,0.5-Y
SYMM +Y,+Z,+X
SYMM -Y,0.5+Z,0.5-X
SYMM 0.5+Y,0.5-Z,-X
SYMM 0.5-Y,-Z,0.5+X
SFAC C H Gd N Ni O
UNIT 672 816 48 240 24 336
ISOR 0.005 0.01 C14
ISOR 0.005 0.01 O5 O6 C10 C11
ISOR 0.005 0.005 C15

L.S. 20 0 78
PLAN  20
FREE Gd1 C10
BOND $H
MORE -1
CONF
ABIN
fmap 2
acta
SHEL 999 0.837
REM <olex2.extras>
REM <HklSrc "%.\\a151118b_sq.hkl">
REM </olex2.extras>

WGHT    0.058200
FVAR       0.39141
GD1   3    0.364012    0.033531    0.300820    11.00000    0.04064    0.03574 =
         0.03428   -0.00394    0.00059    0.00592
NI1   5    0.473897    0.000000    0.250000    10.50000    0.03484    0.03780 =
         0.03782    0.00096    0.00000    0.00000
O1    6    0.436994    0.024922    0.297416    11.00000    0.03859    0.03299 =
         0.03604    0.00092   -0.00054   -0.00108
O2    6    0.556780    0.019566    0.281864    11.00000    0.03052    0.10963 =
         0.05216   -0.01547    0.00044   -0.00809
PART -1
AFIX   3
H2    2    0.560440    0.019216    0.257004    10.50000   -1.50000
AFIX   0
PART 0
O6    6    0.391285    0.104244    0.300289    11.00000    0.08934    0.05726 =
         0.07610   -0.00033   -0.01497   -0.00291
O5    6    0.322479    0.094813    0.294533    11.00000    0.09002    0.07586 =
         0.09106    0.01060    0.01685    0.03252
O3    6    0.374000    0.038011    0.229831    11.00000    0.04189    0.03634 =
         0.03147    0.00385   -0.00399   -0.00313
O4    6    0.365708    0.033192    0.163595    11.00000    0.05467    0.04400 =
         0.03745    0.00345    0.00181   -0.00375
O7    6    0.299226    0.009608    0.282760    11.00000    0.03977    0.09882 =
         0.03723   -0.01539   -0.00730    0.00152
N1    4    0.322108    0.037366    0.367475    11.00000    0.04219    0.04525 =
         0.03924   -0.00232    0.00283    0.01108
N2    4    0.280943    0.030148    0.442160    11.00000    0.03923    0.04639 =
         0.04428   -0.00851    0.00424    0.00531
N3    4    0.403035    0.043461    0.366383    11.00000    0.04563    0.03150 =
         0.04202   -0.00486    0.00213    0.00258
N4    4    0.445126    0.047126    0.364062    11.00000    0.03980    0.04980 =
         0.03944   -0.00537    0.00040   -0.00740
N5    4    0.516276    0.021291    0.289814    11.00000    0.03641    0.06281 =
         0.03990    0.00086   -0.00019   -0.00970
C1    1    0.342338    0.039119    0.403971    11.00000    0.04120    0.03896 =
         0.03517   -0.00702   -0.00059    0.00671
C2    1    0.281910    0.032453    0.369206    11.00000    0.04735    0.06859 =
         0.04915   -0.01129   -0.00616    0.00714
AFIX  43
H2A   2    0.267048    0.031097    0.344941    11.00000    0.05513
AFIX   0
C3    1    0.261132    0.029239    0.406654    11.00000    0.04242    0.06255 =
         0.03852   -0.00904    0.00338    0.01018
AFIX  43
H3    2    0.232786    0.026401    0.406623    11.00000    0.04735
AFIX   0
C4    1    0.321570    0.035576    0.440292    11.00000    0.04334    0.03993 =
         0.03352   -0.00918    0.00009    0.00209
AFIX  43
H4    2    0.336292    0.037001    0.464639    11.00000    0.02894
AFIX   0
C5    1    0.386747    0.044336    0.402187    11.00000    0.04543    0.03662 =
         0.03670   -0.00667   -0.00123    0.00423
C6    1    0.409653    0.049486    0.442115    11.00000    0.05413    0.07986 =
         0.04474   -0.00959   -0.00948   -0.00960
AFIX 137
H6A   2    0.437956    0.055169    0.436516    11.00000    0.09414
H6B   2    0.407554    0.024751    0.457880    11.00000    0.09213
H6C   2    0.397990    0.071806    0.457297    11.00000    0.06941
AFIX   0
C7    1    0.458818    0.037543    0.328167    11.00000    0.04554    0.03467 =
         0.03754   -0.00183   -0.00354   -0.00971
C8    1    0.504378    0.037981    0.323472    11.00000    0.04433    0.05881 =
         0.04178    0.00216    0.00263   -0.01037
C9    1    0.532617    0.054740    0.354970    11.00000    0.05190    0.12187 =
         0.07027   -0.03553   -0.00793   -0.01105
AFIX   3
H9A   2    0.523077    0.047310    0.381770    11.00000   -1.50000
H9B   2    0.534327    0.084020    0.352930    11.00000   -1.50000
H9C   2    0.559217    0.043040    0.350430    11.00000   -1.50000
AFIX   0
C10   1    0.354399    0.118464    0.297997    11.00000    0.10959    0.07718 =
         0.07198   -0.00187    0.00414    0.01423
C11   1    0.349289    0.163613    0.290008    11.00000    0.17606    0.08469 =
         0.13955   -0.01707   -0.00476    0.02463
AFIX   3
H11A  2    0.352509    0.174993    0.316928    11.00000   -1.50000
H11B  2    0.322539    0.170193    0.279718    11.00000   -1.50000
H11C  2    0.369729    0.174853    0.272108    11.00000   -1.50000
AFIX   0
C12   1    0.366515    0.054552    0.195304    11.00000    0.03845    0.03816 =
         0.04442    0.00028    0.00065   -0.00584
C13   1    0.359194    0.098924    0.193225    11.00000    0.06858    0.03890 =
         0.04294    0.01082   -0.00492    0.00323
AFIX 137
H13A  2    0.363575    0.108302    0.165701    11.00000    0.07528
H13B  2    0.377732    0.112778    0.211368    11.00000    0.03804
H13C  2    0.331495    0.104675    0.201249    11.00000    0.11797
AFIX   0
C14   1    0.281938    0.000000    0.250000    10.50000    0.05881    0.08440 =
         0.06323   -0.00781    0.00000    0.00000
PART -1
C15   1    0.238330   -0.022978    0.254021    10.50000    0.10845    0.12463 =
         0.10936   -0.00523   -0.00016   -0.00380
AFIX   3
H15A  2    0.238280   -0.052198    0.257232    10.50000   -1.50000
H15B  2    0.223880   -0.015788    0.229431    10.50000   -1.50000
H15C  2    0.225090   -0.010558    0.277162    10.50000   -1.50000
AFIX   0
HKLF 4




REM  a151118b_a.res in Ia-3
REM wR2 = 0.1178, GooF = S = 1.022, Restrained GooF = 1.039 for all data
REM R1 = 0.0432 for 3805 Fo > 4sig(Fo) and 0.0645 for all 5173 data
REM 265 parameters refined using 36 restraints

END

WGHT      0.0578      0.0000

REM Highest difference peak  0.970,  deepest hole -0.519,  1-sigma level  0.076
Q1    1   0.2340  0.0000  0.2500  10.50000  0.05    0.97
Q2    1   0.2302 -0.0739  0.2317  11.00000  0.05    0.51
Q3    1   0.2824  0.0205  0.2478  11.00000  0.05    0.45
Q4    1   0.1803  0.0415  0.3490  11.00000  0.05    0.45
Q5    1   0.3791  0.1304  0.3362  11.00000  0.05    0.41
Q6    1   0.4076  0.1313  0.3094  11.00000  0.05    0.38
Q7    1   0.3367  0.0376  0.3006  11.00000  0.05    0.36
Q8    1   0.3051  0.0793  0.2790  11.00000  0.05    0.36
Q9    1   0.3979  0.1371  0.3081  11.00000  0.05    0.34
Q10   1   0.3507  0.0492  0.3299  11.00000  0.05    0.34
Q11   1   0.3483  0.0325  0.2678  11.00000  0.05    0.33
Q12   1   0.5802 -0.0637  0.3370  11.00000  0.05    0.32
Q13   1   0.5644  0.0749  0.3411  11.00000  0.05    0.31
Q14   1   0.3757  0.0068  0.2335  11.00000  0.05    0.31
Q15   1   0.4421  0.0000  0.2500  10.50000  0.05    0.31
Q16   1   0.4039  0.0973  0.2811  11.00000  0.05    0.29
Q17   1   0.3402  0.1694  0.2511  11.00000  0.05    0.29
Q18   1   0.4197  0.1044  0.2869  11.00000  0.05    0.29
Q19   1   0.4179  0.0831  0.3293  11.00000  0.05    0.28
Q20   1   0.3284  0.1161  0.0692  11.00000  0.05    0.27
;
_shelx_res_checksum              63800
_shelx_fab_file
;
    0    2    2     98.73      0.00
    2    2    2     28.37      0.00
    2    1    3    353.73      0.00
    1    2    3     -7.57      0.00
    2    3    3   -302.25      0.00
    0    0    4   -371.55      0.00
    2    0    4    -67.88      0.00
    1    1    4    100.37      0.00
    3    1    4   -101.67      0.00
    0    2    4    -77.72      0.00
    2    2    4    169.07      0.00
    1    3    4    -23.22      0.00
    3    3    4   -243.97      0.00
    0    4    4    -54.48      0.00
    2    4    4     67.86      0.00
    4    4    4     88.16      0.00
    2    1    5    419.53      0.00
    4    1    5   -177.22      0.00
    1    2    5     26.88      0.00
    3    2    5    -95.22      0.00
    2    3    5    135.94      0.00
    4    3    5     51.62      0.00
    1    4    5     71.70      0.00
    3    4    5    162.21      0.00
    2    5    5    -90.92      0.00
    4    5    5     55.85      0.00
    0    0    6    -62.24      0.00
    2    0    6    237.65      0.00
    4    0    6     11.88      0.00
    1    1    6     74.91      0.00
    3    1    6   -113.70      0.00
    5    1    6     31.36      0.00
    0    2    6    500.86      0.00
    2    2    6   -131.75      0.00
    4    2    6   -135.96      0.00
    1    3    6     -7.71      0.00
    3    3    6    -96.35      0.00
    5    3    6    -43.13      0.00
    2    4    6      0.62      0.00
    4    4    6     32.55      0.00
    1    5    6    -29.83      0.00
    3    5    6     11.96      0.00
    5    5    6    -38.03      0.00
    0    6    6    -38.79      0.00
    2    6    6     15.83      0.00
    4    6    6    -25.75      0.00
    6    6    6     79.20      0.00
    2    1    7    -58.09      0.00
    4    1    7    -12.07      0.00
    6    1    7    -30.56      0.00
    1    2    7    221.68      0.00
    3    2    7    -24.19      0.00
    5    2    7    -78.80      0.00
    2    3    7   -176.92      0.00
    4    3    7     60.46      0.00
    6    3    7      4.81      0.00
    1    4    7    -10.92      0.00
    3    4    7    118.76      0.00
    5    4    7    -34.71      0.00
    2    5    7     55.37      0.00
    4    5    7    -72.67      0.00
    6    5    7     24.53      0.00
    1    6    7     91.79      0.00
    3    6    7     75.03      0.00
    5    6    7    -41.13      0.00
    2    7    7     62.23      0.00
    4    7    7     48.35      0.00
    6    7    7     47.40      0.00
    0    0    8   -123.44      0.00
    2    0    8     12.40      0.00
    4    0    8    123.25      0.00
    6    0    8   -112.65      0.00
    1    1    8    100.64      0.00
    3    1    8   -136.00      0.00
    5    1    8    -58.56      0.00
    7    1    8     32.26      0.00
    0    2    8    -88.22      0.00
    2    2    8     57.53      0.00
    4    2    8     48.18      0.00
    6    2    8     13.82      0.00
    1    3    8     53.13      0.00
    3    3    8      6.85      0.00
    5    3    8    -50.13      0.00
    7    3    8     38.25      0.00
    0    4    8    159.25      0.00
    2    4    8     -7.47      0.00
    4    4    8     22.89      0.00
    6    4    8     -4.67      0.00
    1    5    8     78.16      0.00
    3    5    8    -35.77      0.00
    5    5    8    -26.96      0.00
    7    5    8      0.94      0.00
    0    6    8    -12.70      0.00
    2    6    8     24.78      0.00
    4    6    8    -53.62      0.00
    6    6    8     36.71      0.00
    1    7    8    108.55      0.00
    3    7    8    -89.61      0.00
    5    7    8    -25.56      0.00
    7    7    8    -12.05      0.00
    2    8    8    -73.51      0.00
    4    8    8    -49.85      0.00
    6    8    8      2.61      0.00
    8    8    8     18.84      0.00
    2    1    9    -60.79      0.00
    4    1    9     13.14      0.00
    6    1    9    -93.04      0.00
    8    1    9     17.39      0.00
    1    2    9     -7.39      0.00
    3    2    9    -40.47      0.00
    5    2    9   -112.78      0.00
    7    2    9      8.20      0.00
    2    3    9    -38.40      0.00
    4    3    9     35.29      0.00
    6    3    9    -18.20      0.00
    8    3    9    -32.69      0.00
    1    4    9    -15.57      0.00
    3    4    9    -34.12      0.00
    5    4    9     14.22      0.00
    7    4    9     -2.26      0.00
    2    5    9    -37.99      0.00
    4    5    9    -53.80      0.00
    6    5    9     30.75      0.00
    8    5    9     27.87      0.00
    1    6    9    -31.60      0.00
    3    6    9     -7.02      0.00
    5    6    9     21.60      0.00
    7    6    9     24.99      0.00
    2    7    9      8.79      0.00
    4    7    9    -48.46      0.00
    6    7    9      9.53      0.00
    8    7    9     -4.32      0.00
    1    8    9    -12.51      0.00
    3    8    9    -56.12      0.00
    5    8    9      4.54      0.00
    7    8    9    -32.70      0.00
    2    9    9      8.01      0.00
    4    9    9     41.30      0.00
    6    9    9     39.80      0.00
    8    9    9    -17.26      0.00
    0    0   10   -235.02      0.00
    2    0   10     47.15      0.00
    4    0   10    100.76      0.00
    6    0   10   -108.01      0.00
    8    0   10      2.11      0.00
    1    1   10    -10.69      0.00
    3    1   10     15.63      0.00
    5    1   10     -5.38      0.00
    7    1   10     29.24      0.00
    9    1   10    -38.21      0.00
    0    2   10   -101.39      0.00
    2    2   10     27.27      0.00
    4    2   10     25.33      0.00
    6    2   10      1.57      0.00
    8    2   10     37.02      0.00
    1    3   10    -24.32      0.00
    3    3   10     46.86      0.00
    5    3   10    -10.02      0.00
    7    3   10     10.19      0.00
    9    3   10      1.30      0.00
    0    4   10    -71.12      0.00
    2    4   10     -2.94      0.00
    4    4   10     23.58      0.00
    6    4   10     20.73      0.00
    8    4   10     15.74      0.00
    1    5   10    -22.71      0.00
    3    5   10     20.66      0.00
    5    5   10      9.51      0.00
    7    5   10     10.34      0.00
    9    5   10     16.49      0.00
    0    6   10     10.75      0.00
    2    6   10      9.44      0.00
    4    6   10     17.22      0.00
    6    6   10     -2.65      0.00
    8    6   10    -21.43      0.00
    1    7   10     -6.29      0.00
    3    7   10      1.84      0.00
    5    7   10      7.43      0.00
    7    7   10    -26.09      0.00
    9    7   10    -23.28      0.00
    0    8   10     81.52      0.00
    2    8   10    -20.41      0.00
    4    8   10    -23.35      0.00
    6    8   10     42.13      0.00
    8    8   10    -12.29      0.00
    1    9   10     42.50      0.00
    3    9   10     -8.19      0.00
    5    9   10      9.15      0.00
    7    9   10     -4.48      0.00
    9    9   10    -21.27      0.00
    0   10   10     55.48      0.00
    2   10   10    -20.66      0.00
    4   10   10    -30.83      0.00
    6   10   10     -8.50      0.00
    8   10   10    -12.96      0.00
   10   10   10     61.07      0.00
    2    1   11     88.11      0.00
    4    1   11    -18.11      0.00
    6    1   11    -11.69      0.00
    8    1   11    -22.81      0.00
   10    1   11     -5.74      0.00
    1    2   11     14.24      0.00
    3    2   11     34.76      0.00
    5    2   11    -50.23      0.00
    7    2   11    -18.16      0.00
    9    2   11     27.15      0.00
    2    3   11     61.84      0.00
    4    3   11    -33.10      0.00
    6    3   11     23.37      0.00
    8    3   11     -7.28      0.00
   10    3   11     14.18      0.00
    1    4   11    -11.85      0.00
    3    4   11    -21.35      0.00
    5    4   11     10.78      0.00
    7    4   11    -31.94      0.00
    9    4   11      4.24      0.00
    2    5   11     14.48      0.00
    4    5   11     14.56      0.00
    6    5   11    -17.44      0.00
    8    5   11     -9.98      0.00
   10    5   11    -13.94      0.00
    1    6   11      3.26      0.00
    3    6   11     -3.22      0.00
    5    6   11    -45.41      0.00
    7    6   11    -49.18      0.00
    9    6   11      1.53      0.00
    2    7   11     -4.74      0.00
    4    7   11     -1.78      0.00
    6    7   11    -36.67      0.00
    8    7   11     16.56      0.00
   10    7   11    -15.67      0.00
    1    8   11      5.47      0.00
    3    8   11    -18.40      0.00
    5    8   11     10.02      0.00
    7    8   11     24.10      0.00
    9    8   11     12.48      0.00
    2    9   11    -66.35      0.00
    4    9   11      4.32      0.00
    6    9   11    -20.80      0.00
    8    9   11     21.17      0.00
   10    9   11     16.16      0.00
    1   10   11    -51.34      0.00
    3   10   11    -29.63      0.00
    5   10   11     -8.03      0.00
    7   10   11     17.37      0.00
    9   10   11      3.36      0.00
    2   11   11    -31.54      0.00
    4   11   11      5.20      0.00
    6   11   11     24.03      0.00
    8   11   11    -17.44      0.00
   10   11   11     27.98      0.00
    0    0   12     58.69      0.00
    2    0   12    -74.81      0.00
    4    0   12    -11.66      0.00
    6    0   12      9.67      0.00
    8    0   12    -26.27      0.00
   10    0   12     76.56      0.00
    1    1   12    -25.01      0.00
    3    1   12     24.97      0.00
    5    1   12    -25.61      0.00
    7    1   12     -6.14      0.00
    9    1   12     35.83      0.00
   11    1   12      3.93      0.00
    0    2   12     62.14      0.00
    2    2   12      5.20      0.00
    4    2   12    -20.51      0.00
    6    2   12      5.07      0.00
    8    2   12    -18.32      0.00
   10    2   12     18.93      0.00
    1    3   12    -37.69      0.00
    3    3   12      0.89      0.00
    5    3   12     -0.81      0.00
    7    3   12     -2.94      0.00
    9    3   12     31.24      0.00
   11    3   12     -1.69      0.00
    0    4   12     55.33      0.00
    2    4   12     29.54      0.00
    4    4   12    -31.80      0.00
    6    4   12      9.41      0.00
    8    4   12     17.96      0.00
   10    4   12    -15.60      0.00
    1    5   12    -25.29      0.00
    3    5   12     51.96      0.00
    5    5   12      1.31      0.00
    7    5   12    -27.56      0.00
    9    5   12     18.54      0.00
   11    5   12     -6.18      0.00
    0    6   12    -79.62      0.00
    2    6   12      0.36      0.00
    4    6   12     20.88      0.00
    6    6   12    -33.59      0.00
    8    6   12     32.99      0.00
   10    6   12     -0.31      0.00
    1    7   12    -53.53      0.00
    3    7   12     37.33      0.00
    5    7   12      4.04      0.00
    7    7   12      4.53      0.00
    9    7   12     27.29      0.00
   11    7   12    -29.72      0.00
    0    8   12     -2.36      0.00
    2    8   12     13.33      0.00
    4    8   12     -0.73      0.00
    6    8   12     11.95      0.00
    8    8   12     39.28      0.00
   10    8   12    -28.73      0.00
    1    9   12    -44.54      0.00
    3    9   12     -4.37      0.00
    5    9   12      6.52      0.00
    7    9   12     40.29      0.00
    9    9   12    -18.72      0.00
   11    9   12      0.83      0.00
    0   10   12     13.85      0.00
    2   10   12     -5.44      0.00
    4   10   12     22.29      0.00
    6   10   12      7.32      0.00
    8   10   12    -13.48      0.00
   10   10   12     -4.00      0.00
    1   11   12     14.00      0.00
    3   11   12     27.00      0.00
    5   11   12      9.29      0.00
    7   11   12     -9.86      0.00
    9   11   12    -17.92      0.00
   11   11   12    -17.91      0.00
    0   12   12    -19.79      0.00
    2   12   12      2.30      0.00
    4   12   12      0.62      0.00
    6   12   12      3.69      0.00
    8   12   12     -6.09      0.00
   10   12   12      8.71      0.00
   12   12   12    -20.06      0.00
    2    1   13    -46.91      0.00
    4    1   13      7.72      0.00
    6    1   13     39.11      0.00
    8    1   13     -5.57      0.00
   10    1   13     -0.47      0.00
   12    1   13      9.88      0.00
    1    2   13     16.76      0.00
    3    2   13     -2.07      0.00
    5    2   13    -59.51      0.00
    7    2   13    -16.76      0.00
    9    2   13     45.63      0.00
   11    2   13     -5.30      0.00
    2    3   13     21.00      0.00
    4    3   13      9.20      0.00
    6    3   13     18.37      0.00
    8    3   13     11.15      0.00
   10    3   13    -31.88      0.00
   12    3   13    -11.72      0.00
    1    4   13     45.63      0.00
    3    4   13     27.80      0.00
    5    4   13     21.74      0.00
    7    4   13     -3.93      0.00
    9    4   13     -7.63      0.00
   11    4   13     -5.46      0.00
    2    5   13    -28.26      0.00
    4    5   13     -0.61      0.00
    6    5   13    -14.99      0.00
    8    5   13    -21.46      0.00
   10    5   13      5.46      0.00
   12    5   13      1.75      0.00
    1    6   13     61.95      0.00
    3    6   13     49.93      0.00
    5    6   13     -8.68      0.00
    7    6   13     15.12      0.00
    9    6   13    -13.94      0.00
   11    6   13      0.97      0.00
    2    7   13     39.83      0.00
    4    7   13    -15.78      0.00
    6    7   13     -4.56      0.00
    8    7   13     27.05      0.00
   10    7   13    -18.12      0.00
   12    7   13    -19.52      0.00
    1    8   13     50.88      0.00
    3    8   13     -1.27      0.00
    5    8   13    -76.42      0.00
    7    8   13      3.86      0.00
    9    8   13    -15.07      0.00
   11    8   13      1.33      0.00
    2    9   13     33.51      0.00
    4    9   13    -21.86      0.00
    6    9   13    -27.71      0.00
    8    9   13     -6.64      0.00
   10    9   13     -1.39      0.00
   12    9   13      6.01      0.00
    1   10   13     11.33      0.00
    3   10   13     14.83      0.00
    5   10   13     14.88      0.00
    7   10   13     -9.88      0.00
    9   10   13    -31.71      0.00
   11   10   13      4.17      0.00
    2   11   13    -23.39      0.00
    4   11   13     -4.21      0.00
    6   11   13      0.86      0.00
    8   11   13    -36.87      0.00
   10   11   13      0.18      0.00
   12   11   13      3.56      0.00
    1   12   13    -14.41      0.00
    3   12   13     15.28      0.00
    5   12   13      4.06      0.00
    7   12   13      0.80      0.00
    9   12   13     20.08      0.00
   11   12   13     -1.75      0.00
    2   13   13    -14.34      0.00
    4   13   13     -3.03      0.00
    6   13   13     -1.59      0.00
    8   13   13     24.00      0.00
   10   13   13     17.08      0.00
   12   13   13     -5.47      0.00
    0    0   14     -0.43      0.00
    2    0   14    -19.20      0.00
    4    0   14     39.07      0.00
    6    0   14      1.13      0.00
    8    0   14    -62.12      0.00
   10    0   14     40.87      0.00
   12    0   14     23.68      0.00
    1    1   14     49.44      0.00
    3    1   14     23.06      0.00
    5    1   14     -5.52      0.00
    7    1   14    -26.09      0.00
    9    1   14     -9.55      0.00
   11    1   14     -2.37      0.00
   13    1   14    -24.77      0.00
    0    2   14     39.92      0.00
    2    2   14      0.18      0.00
    4    2   14      1.36      0.00
    6    2   14     22.53      0.00
    8    2   14    -16.26      0.00
   10    2   14     -5.75      0.00
   12    2   14     -0.51      0.00
    1    3   14     37.72      0.00
    3    3   14    -31.92      0.00
    5    3   14     24.80      0.00
    7    3   14    -14.59      0.00
    9    3   14      2.62      0.00
   11    3   14     14.43      0.00
   13    3   14    -36.78      0.00
    0    4   14     60.73      0.00
    2    4   14     29.90      0.00
    4    4   14     -2.44      0.00
    6    4   14      0.01      0.00
    8    4   14    -21.99      0.00
   10    4   14    -12.27      0.00
   12    4   14      3.50      0.00
    1    5   14    -13.84      0.00
    3    5   14    -59.03      0.00
    5    5   14     -5.03      0.00
    7    5   14     17.86      0.00
    9    5   14     12.63      0.00
   11    5   14     20.81      0.00
   13    5   14     -5.76      0.00
    0    6   14    -16.74      0.00
    2    6   14     -9.64      0.00
    4    6   14      7.18      0.00
    6    6   14    -28.63      0.00
    8    6   14     22.66      0.00
   10    6   14     28.18      0.00
   12    6   14      7.17      0.00
    1    7   14     33.67      0.00
    3    7   14     19.38      0.00
    5    7   14    -28.88      0.00
    7    7   14    -12.65      0.00
    9    7   14      3.46      0.00
   11    7   14      9.28      0.00
   13    7   14      6.55      0.00
    0    8   14    -12.48      0.00
    2    8   14     -9.90      0.00
    4    8   14    -29.83      0.00
    6    8   14     15.71      0.00
    8    8   14     28.77      0.00
   10    8   14     -0.05      0.00
   12    8   14      4.47      0.00
    1    9   14     36.34      0.00
    3    9   14    -22.73      0.00
    5    9   14    -18.04      0.00
    7    9   14     14.34      0.00
    9    9   14    -18.63      0.00
   11    9   14      3.11      0.00
   13    9   14      7.63      0.00
    0   10   14     23.43      0.00
    2   10   14     23.37      0.00
    4   10   14      0.02      0.00
    6   10   14      8.56      0.00
    8   10   14      1.34      0.00
   10   10   14    -17.14      0.00
   12   10   14     12.57      0.00
    1   11   14    -24.83      0.00
    3   11   14    -21.13      0.00
    5   11   14      2.21      0.00
    7   11   14     16.74      0.00
    9   11   14      8.81      0.00
   11   11   14     -2.93      0.00
   13   11   14      5.06      0.00
    0   12   14    -53.07      0.00
    2   12   14      2.62      0.00
    4   12   14     17.91      0.00
    6   12   14     -3.96      0.00
    8   12   14     12.50      0.00
   10   12   14      0.43      0.00
   12   12   14      1.99      0.00
    1   13   14    -17.26      0.00
    3   13   14      2.91      0.00
    5   13   14     12.23      0.00
    7   13   14      0.72      0.00
    9   13   14      7.30      0.00
   11   13   14      2.62      0.00
    0   14   14    -24.63      0.00
    2   14   14    -16.86      0.00
    4   14   14      9.88      0.00
    6   14   14     -4.00      0.00
    8   14   14     20.35      0.00
   10   14   14      2.15      0.00
    2    1   15    -59.29      0.00
    4    1   15     -4.78      0.00
    6    1   15    -26.25      0.00
    8    1   15    -19.79      0.00
   10    1   15     -0.05      0.00
   12    1   15      3.31      0.00
   14    1   15      0.84      0.00
    1    2   15    -14.73      0.00
    3    2   15     30.15      0.00
    5    2   15      6.54      0.00
    7    2   15     12.89      0.00
    9    2   15     -1.14      0.00
   11    2   15    -23.91      0.00
   13    2   15    -22.32      0.00
    2    3   15    -12.91      0.00
    4    3   15     28.05      0.00
    6    3   15     13.07      0.00
    8    3   15     24.14      0.00
   10    3   15      8.33      0.00
   12    3   15    -36.72      0.00
   14    3   15      9.36      0.00
    1    4   15    -51.93      0.00
    3    4   15    -27.21      0.00
    5    4   15      6.23      0.00
    7    4   15      5.20      0.00
    9    4   15     -6.25      0.00
   11    4   15     16.04      0.00
   13    4   15      8.54      0.00
    2    5   15    -36.80      0.00
    4    5   15     20.17      0.00
    6    5   15     -5.98      0.00
    8    5   15      8.76      0.00
   10    5   15     16.43      0.00
   12    5   15    -10.61      0.00
   14    5   15    -10.26      0.00
    1    6   15    -12.05      0.00
    3    6   15      2.85      0.00
    5    6   15     29.20      0.00
    7    6   15      3.86      0.00
    9    6   15      1.58      0.00
   11    6   15     -1.83      0.00
   13    6   15     -2.77      0.00
    2    7   15    -11.70      0.00
    4    7   15    -38.57      0.00
    6    7   15    -23.59      0.00
    8    7   15     -9.14      0.00
   10    7   15      5.05      0.00
   12    7   15     -6.87      0.00
   14    7   15     -8.13      0.00
    1    8   15      4.82      0.00
    3    8   15      6.24      0.00
    5    8   15     -3.61      0.00
    7    8   15     14.28      0.00
    9    8   15      6.90      0.00
   11    8   15    -24.22      0.00
   13    8   15     -2.45      0.00
    2    9   15     62.17      0.00
    4    9   15    -12.12      0.00
    6    9   15     31.52      0.00
    8    9   15      2.68      0.00
   10    9   15    -27.48      0.00
   12    9   15      6.93      0.00
   14    9   15     -2.62      0.00
    1   10   15     -4.69      0.00
    3   10   15    -22.72      0.00
    5   10   15     -0.34      0.00
    7   10   15     -0.32      0.00
    9   10   15     -3.50      0.00
   11   10   15     -0.65      0.00
   13   10   15      4.36      0.00
    2   11   15     31.30      0.00
    4   11   15      0.94      0.00
    6   11   15      6.20      0.00
    8   11   15      1.08      0.00
   10   11   15     -7.41      0.00
   12   11   15     23.33      0.00
    1   12   15     23.72      0.00
    3   12   15      8.91      0.00
    5   12   15     10.85      0.00
    7   12   15     -8.42      0.00
    9   12   15     -9.89      0.00
   11   12   15     12.55      0.00
    2   13   15      0.17      0.00
    4   13   15    -26.47      0.00
    6   13   15    -11.56      0.00
    8   13   15    -11.90      0.00
   10   13   15     -4.28      0.00
   12   13   15    -11.47      0.00
   14   13   15     18.96      0.00
    1   14   15     22.19      0.00
    3   14   15      6.19      0.00
    5   14   15     10.19      0.00
    7   14   15      0.87      0.00
    9   14   15    -12.17      0.00
   11   14   15    -17.80      0.00
   13   14   15     15.94      0.00
    2   15   15     14.75      0.00
    4   15   15      8.22      0.00
    6   15   15    -18.89      0.00
    8   15   15     -7.16      0.00
   10   15   15     -7.50      0.00
   12   15   15      5.68      0.00
   14   15   15      4.11      0.00
    0    0   16     -5.66      0.00
    2    0   16     57.41      0.00
    4    0   16     27.99      0.00
    6    0   16    -34.96      0.00
    8    0   16     11.06      0.00
   10    0   16    -34.93      0.00
   12    0   16      4.57      0.00
   14    0   16     -0.07      0.00
    1    1   16    -13.29      0.00
    3    1   16     22.36      0.00
    5    1   16     25.31      0.00
    7    1   16     -9.38      0.00
    9    1   16     -4.47      0.00
   11    1   16      1.66      0.00
   13    1   16    -17.20      0.00
   15    1   16    -18.56      0.00
    0    2   16    -63.34      0.00
    2    2   16     -4.92      0.00
    4    2   16     36.13      0.00
    6    2   16     -3.86      0.00
    8    2   16     24.62      0.00
   10    2   16    -21.49      0.00
   12    2   16     18.85      0.00
   14    2   16      4.51      0.00
    1    3   16     15.86      0.00
    3    3   16     17.04      0.00
    5    3   16     15.08      0.00
    7    3   16    -21.14      0.00
    9    3   16    -34.00      0.00
   11    3   16     20.93      0.00
   13    3   16      1.78      0.00
   15    3   16    -10.86      0.00
    0    4   16    -45.60      0.00
    2    4   16    -21.63      0.00
    4    4   16    -10.04      0.00
    6    4   16     21.61      0.00
    8    4   16     16.25      0.00
   10    4   16      2.95      0.00
   12    4   16     -1.20      0.00
   14    4   16     21.02      0.00
    1    5   16    -10.42      0.00
    3    5   16      0.67      0.00
    5    5   16      7.48      0.00
    7    5   16     -0.77      0.00
    9    5   16    -14.98      0.00
   11    5   16     16.67      0.00
   13    5   16     -0.14      0.00
   15    5   16    -17.55      0.00
    0    6   16     38.31      0.00
    2    6   16     33.20      0.00
    4    6   16     16.91      0.00
    6    6   16     -1.89      0.00
    8    6   16    -34.00      0.00
   10    6   16      4.13      0.00
   12    6   16    -20.60      0.00
   14    6   16      9.21      0.00
    1    7   16    -10.64      0.00
    3    7   16     18.09      0.00
    5    7   16     -5.13      0.00
    7    7   16    -19.00      0.00
    9    7   16      9.78      0.00
   11    7   16     -5.21      0.00
   13    7   16     -9.61      0.00
   15    7   16     13.35      0.00
    0    8   16     23.17      0.00
    2    8   16      0.35      0.00
    4    8   16     -2.35      0.00
    6    8   16     10.01      0.00
    8    8   16    -11.81      0.00
   10    8   16     22.14      0.00
   12    8   16    -20.14      0.00
   14    8   16     -9.82      0.00
    1    9   16     20.85      0.00
    3    9   16      2.87      0.00
    5    9   16     -3.35      0.00
    7    9   16    -13.39      0.00
    9    9   16      1.39      0.00
   11    9   16     -4.96      0.00
   13    9   16     12.73      0.00
   15    9   16     -6.10      0.00
    0   10   16     12.65      0.00
    2   10   16    -25.39      0.00
    4   10   16    -25.46      0.00
    6   10   16     13.81      0.00
    8   10   16      6.45      0.00
   10   10   16      7.83      0.00
   12   10   16     26.89      0.00
   14   10   16      0.53      0.00
    1   11   16      6.40      0.00
    3   11   16    -39.97      0.00
    5   11   16      4.70      0.00
    7   11   16      5.25      0.00
    9   11   16    -15.63      0.00
   11   11   16      6.18      0.00
   13   11   16     -3.06      0.00
   15   11   16      5.10      0.00
    0   12   16     26.30      0.00
    2   12   16      9.80      0.00
    4   12   16    -18.21      0.00
    6   12   16      0.29      0.00
    8   12   16    -14.26      0.00
   10   12   16      5.30      0.00
   12   12   16      9.41      0.00
   14   12   16     -5.12      0.00
    1   13   16     -2.79      0.00
    3   13   16    -11.24      0.00
    5   13   16    -15.37      0.00
    7   13   16     -3.27      0.00
    9   13   16     -1.33      0.00
   11   13   16     10.70      0.00
   13   13   16     -1.98      0.00
   15   13   16      0.36      0.00
    0   14   16     11.94      0.00
    2   14   16      1.07      0.00
    4   14   16     -3.06      0.00
    6   14   16     -2.52      0.00
    8   14   16     13.59      0.00
   10   14   16    -15.14      0.00
   12   14   16     -2.31      0.00
   14   14   16      6.40      0.00
    1   15   16     -3.44      0.00
    3   15   16      2.68      0.00
    5   15   16     -3.87      0.00
    7   15   16      5.58      0.00
    9   15   16     -2.32      0.00
   11   15   16     -0.36      0.00
   13   15   16     20.07      0.00
   15   15   16      2.48      0.00
    0   16   16     -4.11      0.00
    2   16   16    -10.33      0.00
    4   16   16      1.56      0.00
    6   16   16      4.70      0.00
    8   16   16     12.77      0.00
   10   16   16      9.10      0.00
   12   16   16      7.75      0.00
   14   16   16     -4.71      0.00
   16   16   16      7.79      0.00
    2    1   17     34.10      0.00
    4    1   17    -19.29      0.00
    6    1   17     11.75      0.00
    8    1   17     -8.89      0.00
   10    1   17    -11.87      0.00
   12    1   17      9.01      0.00
   14    1   17    -12.29      0.00
   16    1   17     -8.98      0.00
    1    2   17     19.27      0.00
    3    2   17     10.11      0.00
    5    2   17      7.87      0.00
    7    2   17      4.25      0.00
    9    2   17      2.53      0.00
   11    2   17      9.42      0.00
   13    2   17     -9.43      0.00
   15    2   17     13.40      0.00
    2    3   17     18.53      0.00
    4    3   17    -25.35      0.00
    6    3   17    -33.03      0.00
    8    3   17     -2.04      0.00
   10    3   17      0.60      0.00
   12    3   17     16.27      0.00
   14    3   17      6.21      0.00
   16    3   17      4.41      0.00
    1    4   17    -10.30      0.00
    3    4   17    -16.88      0.00
    5    4   17    -15.73      0.00
    7    4   17    -12.82      0.00
    9    4   17      0.50      0.00
   11    4   17     17.91      0.00
   13    4   17    -12.39      0.00
   15    4   17     -0.75      0.00
    2    5   17     -2.79      0.00
    4    5   17     25.51      0.00
    6    5   17     10.60      0.00
    8    5   17    -24.06      0.00
   10    5   17      0.34      0.00
   12    5   17     -1.20      0.00
   14    5   17     -0.14      0.00
   16    5   17      1.38      0.00
    1    6   17    -34.94      0.00
    3    6   17    -19.01      0.00
    5    6   17      0.23      0.00
    7    6   17    -28.32      0.00
    9    6   17      4.85      0.00
   11    6   17     -1.72      0.00
   13    6   17    -11.37      0.00
   15    6   17      9.46      0.00
    2    7   17    -29.89      0.00
    4    7   17     15.64      0.00
    6    7   17      5.06      0.00
    8    7   17      1.62      0.00
   10    7   17     11.72      0.00
   12    7   17    -15.25      0.00
   14    7   17     -4.79      0.00
   16    7   17     -3.72      0.00
    1    8   17    -14.59      0.00
    3    8   17     16.69      0.00
    5    8   17     12.81      0.00
    7    8   17     10.28      0.00
    9    8   17     20.08      0.00
   11    8   17     -7.08      0.00
   13    8   17     -2.19      0.00
   15    8   17     10.22      0.00
    2    9   17     -3.80      0.00
    4    9   17    -26.34      0.00
    6    9   17    -31.97      0.00
    8    9   17     24.09      0.00
   10    9   17      0.72      0.00
   12    9   17     -4.53      0.00
   14    9   17     10.08      0.00
   16    9   17     -4.55      0.00
    1   10   17     -8.88      0.00
    3   10   17     -3.75      0.00
    5   10   17      0.09      0.00
    7   10   17      6.49      0.00
    9   10   17     24.34      0.00
   11   10   17    -14.32      0.00
   13   10   17     -0.64      0.00
   15   10   17     -4.72      0.00
    2   11   17    -11.14      0.00
    4   11   17     15.88      0.00
    6   11   17      9.52      0.00
    8   11   17     -5.01      0.00
   10   11   17     -2.64      0.00
   12   11   17     -3.31      0.00
   14   11   17      1.13      0.00
   16   11   17      0.91      0.00
    1   12   17    -16.74      0.00
    3   12   17    -13.73      0.00
    5   12   17    -10.14      0.00
    7   12   17     -6.22      0.00
    9   12   17     -5.89      0.00
   11   12   17      4.22      0.00
   13   12   17     -2.36      0.00
   15   12   17     -3.57      0.00
    2   13   17     -5.78      0.00
    4   13   17     17.58      0.00
    6   13   17      9.45      0.00
    8   13   17      6.58      0.00
   10   13   17      8.89      0.00
   12   13   17     -5.94      0.00
   14   13   17    -12.63      0.00
   16   13   17     -9.08      0.00
    1   14   17      9.83      0.00
    3   14   17      6.72      0.00
    5   14   17      8.03      0.00
    7   14   17     -6.60      0.00
    9   14   17     -4.17      0.00
   11   14   17     13.20      0.00
   13   14   17     -4.06      0.00
   15   14   17    -14.21      0.00
    2   15   17      2.43      0.00
    4   15   17    -19.94      0.00
    6   15   17      7.61      0.00
    8   15   17     -5.37      0.00
   10   15   17     -6.79      0.00
   12   15   17     10.60      0.00
   14   15   17     -4.73      0.00
   16   15   17      2.47      0.00
    1   16   17     10.61      0.00
    3   16   17      2.75      0.00
    5   16   17     16.03      0.00
    7   16   17     19.45      0.00
    9   16   17    -10.78      0.00
   11   16   17      9.36      0.00
   13   16   17     -0.47      0.00
   15   16   17     -7.17      0.00
    2   17   17     13.47      0.00
    4   17   17     -4.24      0.00
    6   17   17      5.43      0.00
    8   17   17    -16.55      0.00
   10   17   17    -15.52      0.00
   12   17   17      5.51      0.00
   14   17   17      2.80      0.00
   16   17   17     -6.22      0.00
    0    0   18    -15.27      0.00
    2    0   18    -19.51      0.00
    4    0   18    -20.49      0.00
    6    0   18     29.88      0.00
    8    0   18     32.42      0.00
   10    0   18     -8.05      0.00
   12    0   18      0.54      0.00
   14    0   18     10.08      0.00
   16    0   18     -2.57      0.00
    1    1   18    -17.72      0.00
    3    1   18     -4.74      0.00
    5    1   18      4.06      0.00
    7    1   18     -1.53      0.00
    9    1   18     12.14      0.00
   11    1   18      5.05      0.00
   13    1   18      8.04      0.00
   15    1   18     -7.30      0.00
   17    1   18      7.16      0.00
    0    2   18     21.15      0.00
    2    2   18      7.49      0.00
    4    2   18    -23.64      0.00
    6    2   18    -10.23      0.00
    8    2   18      8.24      0.00
   10    2   18     12.41      0.00
   12    2   18     -3.11      0.00
   14    2   18      6.33      0.00
   16    2   18     -0.86      0.00
    1    3   18    -15.51      0.00
    3    3   18     -2.57      0.00
    5    3   18    -11.63      0.00
    7    3   18     11.20      0.00
    9    3   18      7.51      0.00
   11    3   18     -3.30      0.00
   13    3   18     13.67      0.00
   15    3   18      0.90      0.00
   17    3   18      0.07      0.00
    0    4   18      9.86      0.00
    2    4   18      1.32      0.00
    4    4   18     -4.94      0.00
    6    4   18      9.68      0.00
    8    4   18     -7.81      0.00
   10    4   18     -0.07      0.00
   12    4   18      0.68      0.00
   14    4   18     -1.17      0.00
   16    4   18     -8.87      0.00
    1    5   18      2.99      0.00
    3    5   18     28.67      0.00
    5    5   18      8.66      0.00
    7    5   18     -2.15      0.00
    9    5   18    -12.57      0.00
   11    5   18    -23.12      0.00
   13    5   18     14.13      0.00
   15    5   18     -6.82      0.00
   17    5   18     -2.89      0.00
    0    6   18     -6.37      0.00
    2    6   18    -13.77      0.00
    4    6   18     25.64      0.00
    6    6   18    -11.18      0.00
    8    6   18     -4.46      0.00
   10    6   18     15.42      0.00
   12    6   18     10.36      0.00
   14    6   18     -6.94      0.00
   16    6   18     11.32      0.00
    1    7   18    -45.52      0.00
    3    7   18     33.70      0.00
    5    7   18      5.91      0.00
    7    7   18     -1.25      0.00
    9    7   18     19.75      0.00
   11    7   18     -2.17      0.00
   13    7   18    -14.93      0.00
   15    7   18     -4.45      0.00
   17    7   18     -6.15      0.00
    0    8   18    -22.80      0.00
    2    8   18     13.15      0.00
    4    8   18     18.46      0.00
    6    8   18    -10.21      0.00
    8    8   18      8.96      0.00
   10    8   18      4.76      0.00
   12    8   18     -3.82      0.00
   14    8   18     -1.33      0.00
   16    8   18     -0.57      0.00
    1    9   18    -13.91      0.00
    3    9   18     -2.21      0.00
    5    9   18    -12.64      0.00
    7    9   18    -11.59      0.00
    9    9   18      2.87      0.00
   11    9   18     -4.96      0.00
   13    9   18     18.26      0.00
   15    9   18     14.47      0.00
   17    9   18     -9.98      0.00
    0   10   18    -14.06      0.00
    2   10   18      4.31      0.00
    4   10   18      4.88      0.00
    6   10   18      0.68      0.00
    8   10   18     -3.19      0.00
   10   10   18    -15.51      0.00
   12   10   18    -10.16      0.00
   14   10   18      0.93      0.00
   16   10   18     -0.21      0.00
    1   11   18     12.62      0.00
    3   11   18    -15.37      0.00
    5   11   18      8.81      0.00
    7   11   18      7.26      0.00
    9   11   18    -32.00      0.00
   11   11   18    -10.43      0.00
   13   11   18     -2.35      0.00
   15   11   18     -5.80      0.00
   17   11   18      3.04      0.00
    0   12   18     10.72      0.00
    2   12   18     -7.41      0.00
    4   12   18     -3.07      0.00
    6   12   18      0.53      0.00
    8   12   18      4.91      0.00
   10   12   18     -7.29      0.00
   12   12   18      8.92      0.00
   14   12   18      1.08      0.00
   16   12   18     -6.11      0.00
    1   13   18    -14.64      0.00
    3   13   18      5.40      0.00
    5   13   18      1.04      0.00
    7   13   18      0.19      0.00
    9   13   18      9.20      0.00
   11   13   18     -1.91      0.00
   13   13   18     -1.20      0.00
   15   13   18     -6.31      0.00
   17   13   18     -0.18      0.00
    0   14   18     14.35      0.00
    2   14   18      7.90      0.00
    4   14   18     -7.36      0.00
    6   14   18      5.09      0.00
    8   14   18     -5.62      0.00
   10   14   18      8.19      0.00
   12   14   18     -4.23      0.00
   14   14   18      1.99      0.00
   16   14   18      9.81      0.00
    1   15   18      6.61      0.00
    3   15   18     -1.50      0.00
    5   15   18    -22.26      0.00
    7   15   18     -3.15      0.00
    9   15   18      1.16      0.00
   11   15   18     12.72      0.00
   13   15   18     -5.95      0.00
   15   15   18      5.03      0.00
   17   15   18      7.95      0.00
    0   16   18     16.60      0.00
    2   16   18      4.33      0.00
    4   16   18     -2.50      0.00
    6   16   18      9.31      0.00
    8   16   18    -19.24      0.00
   10   16   18     -4.94      0.00
   12   16   18      0.16      0.00
   14   16   18    -10.81      0.00
   16   16   18      1.67      0.00
    1   17   18      1.76      0.00
    3   17   18     -8.91      0.00
    5   17   18      3.33      0.00
    7   17   18    -15.19      0.00
    9   17   18      2.31      0.00
   11   17   18      4.06      0.00
   13   17   18    -16.44      0.00
   15   17   18      6.78      0.00
   17   17   18     13.37      0.00
    0   18   18     -5.69      0.00
    2   18   18     -5.08      0.00
    4   18   18      6.95      0.00
    6   18   18     -2.97      0.00
    8   18   18      4.29      0.00
   10   18   18     11.14      0.00
   12   18   18     10.55      0.00
   14   18   18     -0.96      0.00
   16   18   18      7.44      0.00
   18   18   18     -0.49      0.00
    2    1   19      2.80      0.00
    4    1   19     14.35      0.00
    6    1   19     19.71      0.00
    8    1   19     -6.45      0.00
   10    1   19    -13.27      0.00
   12    1   19      7.71      0.00
   14    1   19      4.82      0.00
   16    1   19    -12.22      0.00
   18    1   19      7.16      0.00
    1    2   19      5.38      0.00
    3    2   19    -17.25      0.00
    5    2   19    -12.96      0.00
    7    2   19     -8.52      0.00
    9    2   19    -21.90      0.00
   11    2   19     10.80      0.00
   13    2   19     15.84      0.00
   15    2   19     -3.17      0.00
   17    2   19      2.25      0.00
    2    3   19     -1.93      0.00
    4    3   19    -15.58      0.00
    6    3   19      5.93      0.00
    8    3   19     12.97      0.00
   10    3   19     -0.13      0.00
   12    3   19     -6.96      0.00
   14    3   19     -7.92      0.00
   16    3   19    -13.69      0.00
   18    3   19    -15.03      0.00
    1    4   19     36.46      0.00
    3    4   19      9.57      0.00
    5    4   19     10.37      0.00
    7    4   19     20.11      0.00
    9    4   19    -13.03      0.00
   11    4   19     -2.04      0.00
   13    4   19      7.92      0.00
   15    4   19    -11.94      0.00
   17    4   19      8.85      0.00
    2    5   19      4.28      0.00
    4    5   19     -3.59      0.00
    6    5   19     -6.09      0.00
    8    5   19    -13.07      0.00
   10    5   19     -9.66      0.00
   12    5   19      0.62      0.00
   14    5   19     -7.39      0.00
   16    5   19     10.52      0.00
   18    5   19     13.96      0.00
    1    6   19     20.59      0.00
    3    6   19      7.01      0.00
    5    6   19     -0.55      0.00
    7    6   19      1.23      0.00
    9    6   19      3.32      0.00
   11    6   19     13.63      0.00
   13    6   19     -7.51      0.00
   15    6   19    -18.00      0.00
   17    6   19      4.40      0.00
    2    7   19     10.74      0.00
    4    7   19     -5.74      0.00
    6    7   19     -3.57      0.00
    8    7   19      4.12      0.00
   10    7   19      7.56      0.00
   12    7   19      3.24      0.00
   14    7   19     -6.18      0.00
   16    7   19     14.10      0.00
   18    7   19     -6.25      0.00
    1    8   19      0.09      0.00
    3    8   19      4.20      0.00
    5    8   19    -25.55      0.00
    7    8   19    -23.57      0.00
    9    8   19     -6.86      0.00
   11    8   19      0.19      0.00
   13    8   19      8.57      0.00
   15    8   19      7.95      0.00
   17    8   19     10.75      0.00
    2    9   19     16.19      0.00
    4    9   19    -14.15      0.00
    6    9   19     -3.80      0.00
    8    9   19     11.87      0.00
   10    9   19      3.55      0.00
   12    9   19    -12.80      0.00
   14    9   19      7.94      0.00
   16    9   19     -2.86      0.00
   18    9   19      0.66      0.00
    1   10   19      5.81      0.00
    3   10   19      0.08      0.00
    5   10   19      6.82      0.00
    7   10   19      1.48      0.00
    9   10   19      5.95      0.00
   11   10   19     -6.05      0.00
   13   10   19      2.20      0.00
   15   10   19     -2.31      0.00
   17   10   19     -1.37      0.00
    2   11   19    -12.03      0.00
    4   11   19      6.59      0.00
    6   11   19    -12.36      0.00
    8   11   19     -8.93      0.00
   10   11   19     -5.29      0.00
   12   11   19      2.24      0.00
   14   11   19      8.14      0.00
   16   11   19     -4.32      0.00
   18   11   19      4.91      0.00
    1   12   19     -1.38      0.00
    3   12   19      5.13      0.00
    5   12   19      6.44      0.00
    7   12   19      6.87      0.00
    9   12   19      9.82      0.00
   11   12   19     13.19      0.00
   13   12   19    -13.60      0.00
   15   12   19     -5.90      0.00
   17   12   19    -11.93      0.00
    2   13   19    -18.42      0.00
    4   13   19     11.43      0.00
    6   13   19     -8.17      0.00
    8   13   19      2.92      0.00
   10   13   19      4.25      0.00
   12   13   19      0.01      0.00
   14   13   19      3.59      0.00
   16   13   19      1.18      0.00
   18   13   19      8.80      0.00
    1   14   19     -9.78      0.00
    3   14   19     -3.71      0.00
    5   14   19    -18.19      0.00
    7   14   19     -1.92      0.00
    9   14   19    -10.18      0.00
   11   14   19      3.88      0.00
   13   14   19     -0.72      0.00
   15   14   19      9.62      0.00
   17   14   19      4.74      0.00
    2   15   19    -10.92      0.00
    4   15   19      6.42      0.00
    6   15   19      4.32      0.00
    8   15   19     -3.38      0.00
   10   15   19     17.05      0.00
   12   15   19      0.64      0.00
   14   15   19     -2.34      0.00
   16   15   19      3.76      0.00
   18   15   19      4.42      0.00
    1   16   19      2.14      0.00
    3   16   19     -4.35      0.00
    5   16   19     -6.26      0.00
    7   16   19     -5.05      0.00
    9   16   19     13.71      0.00
   11   16   19     -9.22      0.00
   13   16   19     -1.81      0.00
   15   16   19      2.65      0.00
   17   16   19     -1.98      0.00
    2   17   19     -2.39      0.00
    4   17   19     -4.28      0.00
    6   17   19      5.47      0.00
    8   17   19     -7.57      0.00
   10   17   19      2.32      0.00
   12   17   19     -3.12      0.00
   14   17   19     -7.08      0.00
   16   17   19     -2.95      0.00
   18   17   19     -3.24      0.00
    1   18   19     -2.17      0.00
    3   18   19     -4.69      0.00
    5   18   19     15.47      0.00
    7   18   19     12.36      0.00
    9   18   19     11.28      0.00
   11   18   19     10.19      0.00
   13   18   19      4.04      0.00
   15   18   19     -9.05      0.00
   17   18   19    -13.24      0.00
    2   19   19      1.54      0.00
    4   19   19    -10.83      0.00
    6   19   19     -4.47      0.00
    8   19   19     -0.09      0.00
   10   19   19     -0.18      0.00
   12   19   19    -10.34      0.00
   14   19   19      4.43      0.00
   16   19   19     -2.59      0.00
   18   19   19    -14.45      0.00
    0    0   20     20.33      0.00
    2    0   20      3.39      0.00
    4    0   20    -17.18      0.00
    6    0   20     -3.67      0.00
    8    0   20    -11.01      0.00
   10    0   20     15.32      0.00
   12    0   20    -11.97      0.00
   14    0   20     -0.71      0.00
   16    0   20     -6.09      0.00
   18    0   20      7.62      0.00
    1    1   20     10.90      0.00
    3    1   20     11.69      0.00
    5    1   20     -3.03      0.00
    7    1   20    -15.68      0.00
    9    1   20      4.59      0.00
   11    1   20      2.25      0.00
   13    1   20    -23.65      0.00
   15    1   20     -6.38      0.00
   17    1   20      5.72      0.00
   19    1   20      6.31      0.00
    0    2   20     10.28      0.00
    2    2   20     -5.03      0.00
    4    2   20     -6.14      0.00
    6    2   20     -3.20      0.00
    8    2   20    -10.41      0.00
   10    2   20      4.17      0.00
   12    2   20      6.26      0.00
   14    2   20     -2.25      0.00
   16    2   20      7.86      0.00
   18    2   20     -1.87      0.00
    1    3   20      8.44      0.00
    3    3   20     -6.97      0.00
    5    3   20     -1.77      0.00
    7    3   20      6.73      0.00
    9    3   20      1.88      0.00
   11    3   20     -4.39      0.00
   13    3   20     -1.65      0.00
   15    3   20     -2.84      0.00
   17    3   20     -4.27      0.00
   19    3   20      2.49      0.00
    0    4   20      9.86      0.00
    2    4   20     -7.15      0.00
    4    4   20      9.23      0.00
    6    4   20      7.13      0.00
    8    4   20     -0.26      0.00
   10    4   20     -2.03      0.00
   12    4   20      0.85      0.00
   14    4   20     -0.97      0.00
   16    4   20      2.88      0.00
   18    4   20      3.96      0.00
    1    5   20      0.28      0.00
    3    5   20    -24.10      0.00
    5    5   20     -6.94      0.00
    7    5   20     10.94      0.00
    9    5   20      6.55      0.00
   11    5   20     16.18      0.00
   13    5   20     17.72      0.00
   15    5   20      2.21      0.00
   17    5   20     -5.98      0.00
   19    5   20     -6.68      0.00
    0    6   20      2.63      0.00
    2    6   20    -13.94      0.00
    4    6   20    -17.12      0.00
    6    6   20     23.62      0.00
    8    6   20      9.94      0.00
   10    6   20      0.89      0.00
   12    6   20      8.05      0.00
   14    6   20     -0.45      0.00
   16    6   20     -1.12      0.00
   18    6   20      3.18      0.00
    1    7   20      7.82      0.00
    3    7   20     -4.34      0.00
    5    7   20     -4.22      0.00
    7    7   20      2.59      0.00
    9    7   20      2.42      0.00
   11    7   20     -0.59      0.00
   13    7   20    -10.60      0.00
   15    7   20     -0.53      0.00
   17    7   20      2.40      0.00
   19    7   20     -7.22      0.00
    0    8   20     -4.30      0.00
    2    8   20      6.48      0.00
    4    8   20      0.32      0.00
    6    8   20    -21.00      0.00
    8    8   20     -6.38      0.00
   10    8   20      7.53      0.00
   12    8   20      2.48      0.00
   14    8   20     11.01      0.00
   16    8   20     12.49      0.00
   18    8   20     -7.52      0.00
    1    9   20     -7.16      0.00
    3    9   20      3.10      0.00
    5    9   20     -1.49      0.00
    7    9   20    -10.64      0.00
    9    9   20     -0.40      0.00
   11    9   20     -2.39      0.00
   13    9   20     -8.95      0.00
   15    9   20      3.14      0.00
   17    9   20     -5.01      0.00
   19    9   20     -6.40      0.00
    0   10   20    -17.45      0.00
    2   10   20      6.42      0.00
    4   10   20     10.55      0.00
    6   10   20      6.81      0.00
    8   10   20      9.64      0.00
   10   10   20     -6.82      0.00
   12   10   20    -17.00      0.00
   14   10   20     -8.19      0.00
   16   10   20     -5.05      0.00
   18   10   20     15.63      0.00
    1   11   20     -8.93      0.00
    3   11   20     -4.88      0.00
    5   11   20     -6.85      0.00
    7   11   20     -2.15      0.00
    9   11   20     17.52      0.00
   11   11   20      1.37      0.00
   13   11   20      7.37      0.00
   15   11   20      6.45      0.00
   17   11   20     -4.32      0.00
   19   11   20     -7.85      0.00
    0   12   20     -5.70      0.00
    2   12   20     -5.82      0.00
    4   12   20      9.07      0.00
    6   12   20     -8.44      0.00
    8   12   20      5.63      0.00
   10   12   20      1.48      0.00
   12   12   20     19.46      0.00
   14   12   20      3.08      0.00
   16   12   20     -5.77      0.00
   18   12   20     -3.54      0.00
    1   13   20     -6.04      0.00
    3   13   20      3.49      0.00
    5   13   20      0.35      0.00
    7   13   20      3.07      0.00
    9   13   20     -1.87      0.00
   11   13   20     -1.20      0.00
   13   13   20     -4.25      0.00
   15   13   20     -5.49      0.00
   17   13   20     -5.43      0.00
   19   13   20     18.99      0.00
    0   14   20     -9.43      0.00
    2   14   20      8.77      0.00
    4   14   20      7.35      0.00
    6   14   20     -5.61      0.00
    8   14   20     -3.61      0.00
   10   14   20     -1.60      0.00
   12   14   20     -9.31      0.00
   14   14   20     10.69      0.00
   16   14   20     -0.71      0.00
   18   14   20      8.38      0.00
    1   15   20     -1.26      0.00
    3   15   20     -6.16      0.00
    5   15   20      2.09      0.00
    7   15   20      6.43      0.00
    9   15   20     -7.17      0.00
   11   15   20    -10.54      0.00
   13   15   20     -3.01      0.00
   15   15   20      4.77      0.00
   17   15   20      1.80      0.00
   19   15   20      3.70      0.00
    0   16   20    -11.08      0.00
    2   16   20     -0.71      0.00
    4   16   20      7.97      0.00
    6   16   20      3.77      0.00
    8   16   20     11.38      0.00
   10   16   20     -3.91      0.00
   12   16   20     -7.87      0.00
   14   16   20     -7.01      0.00
   16   16   20     -7.77      0.00
   18   16   20     10.46      0.00
    1   17   20     -6.68      0.00
    3   17   20     -3.11      0.00
    5   17   20     -6.59      0.00
    7   17   20     15.62      0.00
    9   17   20     16.34      0.00
   11   17   20     -1.35      0.00
   13   17   20      0.65      0.00
   15   17   20      0.26      0.00
   17   17   20      3.26      0.00
   19   17   20     -0.99      0.00
    0   18   20     10.04      0.00
    2   18   20     12.39      0.00
    4   18   20     -1.21      0.00
    6   18   20      3.02      0.00
    8   18   20     -1.49      0.00
   10   18   20      8.28      0.00
   12   18   20     -4.36      0.00
   14   18   20      2.83      0.00
   16   18   20      1.28      0.00
   18   18   20     -7.34      0.00
    1   19   20      2.58      0.00
    3   19   20      0.19      0.00
    5   19   20      2.99      0.00
    7   19   20     -3.58      0.00
    9   19   20     -3.36      0.00
   11   19   20     15.59      0.00
   13   19   20    -13.03      0.00
   15   19   20     -8.70      0.00
   17   19   20      8.65      0.00
   19   19   20      4.57      0.00
    0   20   20     10.93      0.00
    2   20   20     -2.63      0.00
    4   20   20     17.69      0.00
    6   20   20     -8.12      0.00
    8   20   20      0.96      0.00
   10   20   20      4.70      0.00
   12   20   20      3.76      0.00
   14   20   20     -2.38      0.00
   16   20   20     13.98      0.00
   18   20   20      5.07      0.00
   20   20   20      3.39      0.00
    2    1   21    -29.01      0.00
    4    1   21      1.97      0.00
    6    1   21    -12.96      0.00
    8    1   21      3.36      0.00
   10    1   21      4.62      0.00
   12    1   21    -13.96      0.00
   14    1   21      5.26      0.00
   16    1   21     -1.10      0.00
   18    1   21      1.55      0.00
   20    1   21     14.91      0.00
    1    2   21     -1.57      0.00
    3    2   21     -3.52      0.00
    5    2   21     13.74      0.00
    7    2   21     17.73      0.00
    9    2   21     13.93      0.00
   11    2   21     -1.39      0.00
   13    2   21     -1.35      0.00
   15    2   21    -19.18      0.00
   17    2   21     -6.05      0.00
   19    2   21     -4.87      0.00
    2    3   21      5.27      0.00
    4    3   21     22.28      0.00
    6    3   21     11.49      0.00
    8    3   21     23.34      0.00
   10    3   21      2.84      0.00
   12    3   21    -17.05      0.00
   14    3   21      6.30      0.00
   16    3   21     -7.04      0.00
   18    3   21    -11.21      0.00
   20    3   21     -9.17      0.00
    1    4   21      2.06      0.00
    3    4   21      5.59      0.00
    5    4   21      7.74      0.00
    7    4   21     -0.14      0.00
    9    4   21    -18.44      0.00
   11    4   21     -9.42      0.00
   13    4   21      3.07      0.00
   15    4   21      2.47      0.00
   17    4   21      4.28      0.00
   19    4   21     18.37      0.00
    2    5   21     -2.31      0.00
    4    5   21      3.55      0.00
    6    5   21      7.22      0.00
    8    5   21     -7.40      0.00
   10    5   21     -1.11      0.00
   12    5   21      8.77      0.00
   14    5   21    -11.64      0.00
   16    5   21    -10.16      0.00
   18    5   21     -2.32      0.00
   20    5   21     -0.89      0.00
    1    6   21    -14.71      0.00
    3    6   21    -13.27      0.00
    5    6   21      7.10      0.00
    7    6   21      9.33      0.00
    9    6   21     -3.35      0.00
   11    6   21      7.45      0.00
   13    6   21      5.93      0.00
   15    6   21    -14.32      0.00
   17    6   21     -5.46      0.00
   19    6   21     -9.05      0.00
    2    7   21     -3.11      0.00
    4    7   21     -4.17      0.00
    6    7   21      2.44      0.00
    8    7   21    -31.59      0.00
   10    7   21    -13.89      0.00
   12    7   21      6.52      0.00
   14    7   21      0.37      0.00
   16    7   21      6.55      0.00
   18    7   21     11.45      0.00
   20    7   21    -10.07      0.00
    1    8   21      8.48      0.00
    3    8   21      4.34      0.00
    5    8   21     15.02      0.00
    7    8   21      5.06      0.00
    9    8   21      2.01      0.00
   11    8   21     13.21      0.00
   13    8   21     -9.68      0.00
   15    8   21     -9.23      0.00
   17    8   21     -9.28      0.00
   19    8   21     -4.20      0.00
    2    9   21      6.65      0.00
    4    9   21     -0.90      0.00
    6    9   21      6.18      0.00
    8    9   21     16.46      0.00
   10    9   21     -5.31      0.00
   12    9   21     -2.05      0.00
   14    9   21     -5.52      0.00
   16    9   21      3.65      0.00
   18    9   21     -9.21      0.00
   20    9   21     -5.17      0.00
    1   10   21     15.55      0.00
    3   10   21      5.13      0.00
    5   10   21    -22.10      0.00
    7   10   21     16.73      0.00
    9   10   21     -3.79      0.00
   11   10   21    -13.54      0.00
   13   10   21     -4.64      0.00
   15   10   21     11.23      0.00
   17   10   21    -10.46      0.00
   19   10   21      2.18      0.00
    2   11   21     11.25      0.00
    4   11   21     -1.60      0.00
    6   11   21      4.76      0.00
    8   11   21      5.61      0.00
   10   11   21      3.25      0.00
   12   11   21      0.69      0.00
   14   11   21      0.88      0.00
   16   11   21     -1.44      0.00
   18   11   21     -3.54      0.00
   20   11   21     -0.79      0.00
    1   12   21      4.89      0.00
    3   12   21    -11.71      0.00
    5   12   21    -13.58      0.00
    7   12   21      5.79      0.00
    9   12   21      6.47      0.00
   11   12   21    -14.39      0.00
   13   12   21      8.53      0.00
   15   12   21     -7.37      0.00
   17   12   21      6.56      0.00
   19   12   21     -2.92      0.00
    2   13   21     12.97      0.00
    4   13   21     -9.01      0.00
    6   13   21    -19.07      0.00
    8   13   21     -4.83      0.00
   10   13   21     -5.05      0.00
   12   13   21     12.71      0.00
   14   13   21     -0.84      0.00
   16   13   21      3.42      0.00
   18   13   21     19.30      0.00
   20   13   21     12.98      0.00
    1   14   21     -2.42      0.00
    3   14   21     10.40      0.00
    5   14   21     10.62      0.00
    7   14   21     -6.71      0.00
    9   14   21      7.29      0.00
   11   14   21     -8.57      0.00
   13   14   21     10.34      0.00
   15   14   21      7.65      0.00
   17   14   21     -6.16      0.00
   19   14   21     -1.47      0.00
    2   15   21      1.70      0.00
    4   15   21      3.48      0.00
    6   15   21     -9.89      0.00
    8   15   21      1.42      0.00
   10   15   21      9.96      0.00
   12   15   21     -5.23      0.00
   14   15   21    -13.47      0.00
   16   15   21      5.53      0.00
   18   15   21     14.98      0.00
   20   15   21    -10.28      0.00
    1   16   21      6.25      0.00
    3   16   21      5.65      0.00
    5   16   21      4.68      0.00
    7   16   21      3.64      0.00
    9   16   21      6.22      0.00
   11   16   21     -9.74      0.00
   13   16   21     -0.08      0.00
   15   16   21     -9.76      0.00
   17   16   21      2.79      0.00
   19   16   21      4.37      0.00
    2   17   21     -8.81      0.00
    4   17   21      3.32      0.00
    6   17   21      4.28      0.00
    8   17   21      8.02      0.00
   10   17   21     -9.71      0.00
   12   17   21      2.20      0.00
   14   17   21      4.55      0.00
   16   17   21      0.33      0.00
   18   17   21     -1.41      0.00
   20   17   21      1.46      0.00
    1   18   21    -12.22      0.00
    3   18   21     -7.44      0.00
    5   18   21     -2.39      0.00
    7   18   21     -2.39      0.00
    9   18   21    -21.25      0.00
   11   18   21      8.84      0.00
   13   18   21      0.06      0.00
   15   18   21     11.80      0.00
   17   18   21     13.57      0.00
   19   18   21     -1.78      0.00
    2   19   21     -4.65      0.00
    4   19   21    -12.35      0.00
    6   19   21     -0.75      0.00
    8   19   21    -11.89      0.00
   10   19   21     -7.81      0.00
   12   19   21    -10.09      0.00
   14   19   21      7.92      0.00
   16   19   21     15.48      0.00
   18   19   21      2.88      0.00
   20   19   21     -5.31      0.00
    1   20   21     -4.26      0.00
    3   20   21     -4.29      0.00
    5   20   21     -1.92      0.00
    7   20   21      2.41      0.00
    9   20   21     16.57      0.00
   11   20   21     -6.68      0.00
   13   20   21      2.96      0.00
   15   20   21      7.93      0.00
   17   20   21      2.08      0.00
   19   20   21     14.22      0.00
    2   21   21     10.92      0.00
    4   21   21     -6.74      0.00
    6   21   21     -0.92      0.00
    8   21   21     -6.62      0.00
   10   21   21      3.61      0.00
   12   21   21     -0.20      0.00
   14   21   21      4.41      0.00
   16   21   21     -9.72      0.00
   18   21   21     -5.68      0.00
   20   21   21      4.59      0.00
    0    0   22    -16.76      0.00
    2    0   22      3.72      0.00
    4    0   22     11.87      0.00
    6    0   22     11.98      0.00
    8    0   22      1.19      0.00
   10    0   22    -40.40      0.00
   12    0   22     -2.81      0.00
   14    0   22    -10.76      0.00
   16    0   22    -10.22      0.00
   18    0   22     22.84      0.00
   20    0   22      2.42      0.00
    1    1   22      0.50      0.00
    3    1   22      0.57      0.00
    5    1   22     -4.21      0.00
    7    1   22    -10.55      0.00
    9    1   22      0.59      0.00
   11    1   22      9.86      0.00
   13    1   22      0.24      0.00
   15    1   22      7.29      0.00
   17    1   22      7.88      0.00
   19    1   22     -7.93      0.00
   21    1   22     -4.31      0.00
    0    2   22    -18.23      0.00
    2    2   22      4.20      0.00
    4    2   22     -5.01      0.00
    6    2   22     -2.18      0.00
    8    2   22     -0.01      0.00
   10    2   22     -5.58      0.00
   12    2   22      1.55      0.00
   14    2   22     12.70      0.00
   16    2   22      4.05      0.00
   18    2   22     -0.39      0.00
   20    2   22      1.76      0.00
    1    3   22      1.35      0.00
    3    3   22      6.44      0.00
    5    3   22      8.76      0.00
    7    3   22      2.33      0.00
    9    3   22     -2.69      0.00
   11    3   22     -5.65      0.00
   13    3   22     -3.40      0.00
   15    3   22     -3.95      0.00
   17    3   22      5.28      0.00
   19    3   22     10.65      0.00
   21    3   22     -7.79      0.00
    0    4   22     -6.00      0.00
    2    4   22     -5.41      0.00
    4    4   22     -0.90      0.00
    6    4   22     -5.98      0.00
    8    4   22      2.01      0.00
   10    4   22      0.37      0.00
   12    4   22     13.00      0.00
   14    4   22     10.42      0.00
   16    4   22      5.31      0.00
   18    4   22      1.52      0.00
   20    4   22     -8.33      0.00
    1    5   22     10.75      0.00
    3    5   22     -6.58      0.00
    5    5   22      4.25      0.00
    7    5   22      0.98      0.00
    9    5   22     -9.25      0.00
   11    5   22      4.21      0.00
   13    5   22     -2.19      0.00
   15    5   22     -4.99      0.00
   17    5   22      0.83      0.00
   19    5   22     -0.48      0.00
   21    5   22     -2.21      0.00
    0    6   22     16.43      0.00
    2    6   22      6.00      0.00
    4    6   22      4.53      0.00
    6    6   22     -2.44      0.00
    8    6   22     -8.25      0.00
   10    6   22      6.73      0.00
   12    6   22    -14.43      0.00
   14    6   22    -13.09      0.00
   16    6   22     -1.73      0.00
   18    6   22      6.27      0.00
   20    6   22     16.63      0.00
    1    7   22      2.74      0.00
    3    7   22     -5.86      0.00
    5    7   22      0.54      0.00
    7    7   22    -12.08      0.00
    9    7   22     -4.86      0.00
   11    7   22      7.04      0.00
   13    7   22     -2.06      0.00
   15    7   22      3.98      0.00
   17    7   22     -6.70      0.00
   19    7   22     -1.26      0.00
   21    7   22      3.93      0.00
    0    8   22      0.59      0.00
    2    8   22     -3.53      0.00
    4    8   22     12.12      0.00
    6    8   22    -16.04      0.00
    8    8   22     -7.71      0.00
   10    8   22      7.91      0.00
   12    8   22     12.27      0.00
   14    8   22     -4.11      0.00
   16    8   22      3.48      0.00
   18    8   22     -2.40      0.00
   20    8   22     -0.26      0.00
    1    9   22     -3.11      0.00
    3    9   22    -13.55      0.00
    5    9   22     11.30      0.00
    7    9   22     10.17      0.00
    9    9   22      6.90      0.00
   11    9   22     -6.20      0.00
   13    9   22    -13.89      0.00
   15    9   22    -11.80      0.00
   17    9   22      3.24      0.00
   19    9   22     -3.03      0.00
   21    9   22     11.06      0.00
    0   10   22     -5.21      0.00
    2   10   22     -0.45      0.00
    4   10   22     -4.85      0.00
    6   10   22      2.49      0.00
    8   10   22      2.74      0.00
   10   10   22      5.75      0.00
   12   10   22      6.50      0.00
   14   10   22     10.19      0.00
   16   10   22     10.98      0.00
   18   10   22      0.58      0.00
   20   10   22    -11.20      0.00
    1   11   22      1.62      0.00
    3   11   22     -8.05      0.00
    5   11   22     -4.23      0.00
    7   11   22      3.45      0.00
    9   11   22     -6.72      0.00
   11   11   22     10.73      0.00
   13   11   22     17.85      0.00
   15   11   22      7.36      0.00
   17   11   22    -14.46      0.00
   19   11   22     -4.38      0.00
   21   11   22      1.96      0.00
    0   12   22      6.09      0.00
    2   12   22      0.04      0.00
    4   12   22     -8.00      0.00
    6   12   22     17.26      0.00
    8   12   22     -1.76      0.00
   10   12   22      4.17      0.00
   12   12   22    -17.96      0.00
   14   12   22     -1.12      0.00
   16   12   22     -4.71      0.00
   18   12   22      2.86      0.00
   20   12   22      7.69      0.00
    1   13   22     -0.51      0.00
    3   13   22     -3.10      0.00
    5   13   22     12.35      0.00
    7   13   22      4.12      0.00
    9   13   22     -4.48      0.00
   11   13   22     -7.61      0.00
   13   13   22      8.23      0.00
   15   13   22     -6.78      0.00
   17   13   22      9.91      0.00
   19   13   22      3.33      0.00
   21   13   22     -9.18      0.00
    0   14   22      7.17      0.00
    2   14   22     11.19      0.00
    4   14   22     -6.80      0.00
    6   14   22     -9.06      0.00
    8   14   22     -7.43      0.00
   10   14   22      3.09      0.00
   12   14   22      3.96      0.00
   14   14   22     -5.11      0.00
   16   14   22     18.70      0.00
   18   14   22     -7.22      0.00
   20   14   22     -5.58      0.00
    1   15   22     -6.53      0.00
    3   15   22     -0.91      0.00
    5   15   22     -3.55      0.00
    7   15   22      7.70      0.00
    9   15   22     -3.94      0.00
   11   15   22      8.35      0.00
   13   15   22      9.79      0.00
   15   15   22    -12.56      0.00
   17   15   22     -1.58      0.00
   19   15   22      2.36      0.00
   21   15   22     -2.63      0.00
    0   16   22     -4.87      0.00
    2   16   22     -1.98      0.00
    4   16   22      1.16      0.00
    6   16   22      8.53      0.00
    8   16   22     23.43      0.00
   10   16   22    -16.01      0.00
   12   16   22      8.83      0.00
   14   16   22     15.95      0.00
   16   16   22     -6.67      0.00
   18   16   22     -1.23      0.00
   20   16   22      6.40      0.00
    1   17   22      5.42      0.00
    3   17   22      9.78      0.00
    5   17   22     -7.38      0.00
    7   17   22     -3.57      0.00
    9   17   22     -4.43      0.00
   11   17   22      8.73      0.00
   13   17   22     11.42      0.00
   15   17   22      7.33      0.00
   17   17   22     -1.21      0.00
   19   17   22     -9.64      0.00
   21   17   22      6.58      0.00
    0   18   22      0.32      0.00
    2   18   22     -2.38      0.00
    4   18   22      8.13      0.00
    6   18   22     -2.86      0.00
    8   18   22     15.39      0.00
   10   18   22      0.73      0.00
   12   18   22      5.35      0.00
   14   18   22      2.25      0.00
   16   18   22      1.94      0.00
   18   18   22      1.09      0.00
   20   18   22      5.89      0.00
    1   19   22    -17.15      0.00
    3   19   22     16.62      0.00
    5   19   22      0.87      0.00
    7   19   22      8.29      0.00
    9   19   22     12.84      0.00
   11   19   22      0.21      0.00
   13   19   22      6.01      0.00
   15   19   22     -0.84      0.00
   17   19   22      3.81      0.00
   19   19   22     11.22      0.00
   21   19   22     -2.95      0.00
    0   20   22     -6.63      0.00
    2   20   22     16.16      0.00
    4   20   22      5.61      0.00
    6   20   22     12.11      0.00
    8   20   22    -21.53      0.00
   10   20   22      2.68      0.00
   12   20   22      4.23      0.00
   14   20   22      3.10      0.00
   16   20   22     -7.29      0.00
   18   20   22      4.07      0.00
   20   20   22     -2.92      0.00
    1   21   22    -18.85      0.00
    3   21   22     -4.24      0.00
    5   21   22      2.50      0.00
    7   21   22     11.47      0.00
    9   21   22     -4.77      0.00
   11   21   22      4.49      0.00
   13   21   22    -19.37      0.00
   15   21   22      8.62      0.00
   17   21   22      8.43      0.00
   19   21   22      1.14      0.00
   21   21   22      3.59      0.00
    0   22   22      5.84      0.00
    2   22   22      2.89      0.00
    4   22   22      4.78      0.00
    6   22   22     -2.75      0.00
    8   22   22     18.66      0.00
   10   22   22      0.18      0.00
   12   22   22     -2.66      0.00
   14   22   22     -8.35      0.00
   16   22   22    -11.54      0.00
   18   22   22      1.03      0.00
   20   22   22      2.82      0.00
    2    1   23      7.33      0.00
    4    1   23      3.42      0.00
    6    1   23      8.60      0.00
    8    1   23     -0.34      0.00
   10    1   23     11.43      0.00
   12    1   23     11.87      0.00
   14    1   23     -5.46      0.00
   16    1   23      3.02      0.00
   18    1   23    -10.83      0.00
   20    1   23     -5.47      0.00
   22    1   23      6.92      0.00
    1    2   23     -3.43      0.00
    3    2   23     -1.07      0.00
    5    2   23     14.88      0.00
    7    2   23     -4.71      0.00
    9    2   23     14.61      0.00
   11    2   23      9.83      0.00
   13    2   23     -3.94      0.00
   15    2   23     -1.12      0.00
   17    2   23     -5.80      0.00
   19    2   23    -13.91      0.00
   21    2   23    -11.97      0.00
    2    3   23      6.97      0.00
    4    3   23      0.06      0.00
    6    3   23    -13.15      0.00
    8    3   23    -17.06      0.00
   10    3   23    -14.51      0.00
   12    3   23     -8.66      0.00
   14    3   23      9.33      0.00
   16    3   23     11.34      0.00
   18    3   23      0.41      0.00
   20    3   23     -1.09      0.00
   22    3   23     -4.30      0.00
    1    4   23    -12.66      0.00
    3    4   23     -2.92      0.00
    5    4   23     -2.77      0.00
    7    4   23    -15.57      0.00
    9    4   23     11.98      0.00
   11    4   23     -1.08      0.00
   13    4   23     -3.54      0.00
   15    4   23      6.02      0.00
   17    4   23    -11.80      0.00
   19    4   23      7.38      0.00
   21    4   23      2.91      0.00
    2    5   23     -8.92      0.00
    4    5   23     -4.41      0.00
    6    5   23     -7.46      0.00
    8    5   23      9.87      0.00
   10    5   23      1.07      0.00
   12    5   23      2.84      0.00
   14    5   23     -5.57      0.00
   16    5   23     -7.13      0.00
   18    5   23     -9.61      0.00
   20    5   23      0.13      0.00
   22    5   23      4.36      0.00
    1    6   23    -10.11      0.00
    3    6   23      3.84      0.00
    5    6   23     11.18      0.00
    7    6   23     -4.48      0.00
    9    6   23     -7.09      0.00
   11    6   23     -1.67      0.00
   13    6   23     -9.98      0.00
   15    6   23      5.13      0.00
   17    6   23      4.55      0.00
   19    6   23      9.74      0.00
   21    6   23     -0.25      0.00
    2    7   23      4.73      0.00
    4    7   23     17.30      0.00
    6    7   23      6.76      0.00
    8    7   23      9.10      0.00
   10    7   23      8.91      0.00
   12    7   23     -4.28      0.00
   14    7   23     -3.57      0.00
   16    7   23     -4.99      0.00
   18    7   23      1.42      0.00
   20    7   23    -12.57      0.00
   22    7   23    -12.66      0.00
    1    8   23    -17.98      0.00
    3    8   23      6.40      0.00
    5    8   23      9.41      0.00
    7    8   23      8.25      0.00
    9    8   23     11.68      0.00
   11    8   23    -12.76      0.00
   13    8   23      6.65      0.00
   15    8   23     -7.88      0.00
   17    8   23    -13.71      0.00
   19    8   23     -0.06      0.00
   21    8   23    -10.99      0.00
    2    9   23     -3.83      0.00
    4    9   23     -0.18      0.00
    6    9   23      2.08      0.00
    8    9   23    -13.26      0.00
   10    9   23      3.24      0.00
   12    9   23    -10.75      0.00
   14    9   23     -9.96      0.00
   16    9   23      4.82      0.00
   18    9   23      2.31      0.00
   20    9   23      4.27      0.00
   22    9   23      0.43      0.00
    1   10   23      2.43      0.00
    3   10   23      5.92      0.00
    5   10   23     13.16      0.00
    7   10   23      4.11      0.00
    9   10   23     -6.75      0.00
   11   10   23      6.00      0.00
   13   10   23    -11.36      0.00
   15   10   23     -4.16      0.00
   17   10   23      4.39      0.00
   19   10   23    -10.93      0.00
   21   10   23     11.93      0.00
    2   11   23     -4.49      0.00
    4   11   23    -11.49      0.00
    6   11   23     -4.89      0.00
    8   11   23     -4.25      0.00
   10   11   23     -2.87      0.00
   12   11   23     -2.38      0.00
   14   11   23      3.01      0.00
   16   11   23     -9.21      0.00
   18   11   23     -0.62      0.00
   20   11   23     -2.29      0.00
   22   11   23     -3.39      0.00
    1   12   23      6.00      0.00
    3   12   23     -6.61      0.00
    5   12   23     -3.80      0.00
    7   12   23      0.75      0.00
    9   12   23     -5.68      0.00
   11   12   23      1.73      0.00
   13   12   23     11.47      0.00
   15   12   23    -14.30      0.00
   17   12   23     -8.11      0.00
   19   12   23     -1.10      0.00
   21   12   23     11.26      0.00
    2   13   23     -2.15      0.00
    4   13   23      3.02      0.00
    6   13   23     19.33      0.00
    8   13   23      7.13      0.00
   10   13   23     -9.67      0.00
   12   13   23      8.71      0.00
   14   13   23     14.98      0.00
   16   13   23     -2.59      0.00
   18   13   23     -6.42      0.00
   20   13   23     -5.64      0.00
   22   13   23      6.13      0.00
    1   14   23     -3.17      0.00
    3   14   23      3.50      0.00
    5   14   23     -1.50      0.00
    7   14   23      1.19      0.00
    9   14   23      1.08      0.00
   11   14   23      8.23      0.00
   13   14   23    -17.02      0.00
   15   14   23     -1.26      0.00
   17   14   23     -4.05      0.00
   19   14   23     -1.76      0.00
   21   14   23     -9.39      0.00
    2   15   23     -0.14      0.00
    4   15   23     -2.78      0.00
    6   15   23     -0.53      0.00
    8   15   23     17.27      0.00
   10   15   23      6.31      0.00
   12   15   23      3.41      0.00
   14   15   23     -8.09      0.00
   16   15   23    -17.26      0.00
   18   15   23      4.03      0.00
   20   15   23      5.72      0.00
   22   15   23     -3.21      0.00
    1   16   23      8.23      0.00
    3   16   23     10.51      0.00
    5   16   23      3.04      0.00
    7   16   23     -6.33      0.00
    9   16   23     13.14      0.00
   11   16   23      3.38      0.00
   13   16   23     -5.83      0.00
   15   16   23      6.70      0.00
   17   16   23      5.16      0.00
   19   16   23      4.50      0.00
   21   16   23    -12.08      0.00
    2   17   23      4.30      0.00
    4   17   23     -3.25      0.00
    6   17   23     -5.68      0.00
    8   17   23    -27.50      0.00
   10   17   23    -14.21      0.00
   12   17   23      8.71      0.00
   14   17   23      1.34      0.00
   16   17   23      6.86      0.00
   18   17   23      3.58      0.00
   20   17   23     -1.00      0.00
   22   17   23     -1.76      0.00
    1   18   23     -1.33      0.00
    3   18   23     -3.37      0.00
    5   18   23     -3.53      0.00
    7   18   23      6.51      0.00
    9   18   23     -4.77      0.00
   11   18   23     13.00      0.00
   13   18   23     -4.46      0.00
   15   18   23     -6.32      0.00
   17   18   23      8.99      0.00
   19   18   23     11.11      0.00
   21   18   23     -8.94      0.00
    2   19   23      2.40      0.00
    4   19   23      4.67      0.00
    6   19   23     -6.88      0.00
    8   19   23      7.65      0.00
   10   19   23     -5.39      0.00
   12   19   23     12.04      0.00
   14   19   23    -13.56      0.00
   16   19   23      0.88      0.00
   18   19   23     11.08      0.00
   20   19   23      0.53      0.00
   22   19   23     -1.45      0.00
    1   20   23     11.16      0.00
    3   20   23     11.07      0.00
    5   20   23     -6.00      0.00
    7   20   23      2.27      0.00
    9   20   23     -0.90      0.00
   11   20   23     -3.16      0.00
   13   20   23      2.06      0.00
   15   20   23      4.37      0.00
   17   20   23     10.50      0.00
   19   20   23     -6.11      0.00
   21   20   23      3.53      0.00
    2   21   23      9.84      0.00
    4   21   23    -16.75      0.00
    6   21   23      5.88      0.00
    8   21   23     -1.79      0.00
   10   21   23     -4.98      0.00
   12   21   23     -7.37      0.00
   14   21   23    -16.91      0.00
   16   21   23     10.03      0.00
   18   21   23      0.83      0.00
   20   21   23      7.28      0.00
   22   21   23      2.94      0.00
    1   22   23      5.63      0.00
    3   22   23     -1.43      0.00
    5   22   23      0.60      0.00
    7   22   23      2.02      0.00
    9   22   23      2.85      0.00
   11   22   23     10.21      0.00
   13   22   23    -15.97      0.00
   15   22   23     14.22      0.00
   17   22   23      6.60      0.00
   19   22   23    -11.51      0.00
   21   22   23     -3.33      0.00
    2   23   23      6.38      0.00
    4   23   23     -0.58      0.00
    6   23   23    -17.42      0.00
    8   23   23     -4.11      0.00
   10   23   23    -10.94      0.00
   12   23   23      1.82      0.00
   14   23   23      4.81      0.00
   16   23   23     -7.37      0.00
   18   23   23      0.16      0.00
   20   23   23      0.08      0.00
    0    0   24     11.45      0.00
    2    0   24    -13.39      0.00
    4    0   24    -19.18      0.00
    6    0   24    -11.41      0.00
    8    0   24     -5.18      0.00
   10    0   24     18.68      0.00
   12    0   24     14.72      0.00
   14    0   24      5.94      0.00
   16    0   24     -7.57      0.00
   18    0   24     -4.18      0.00
   20    0   24     16.50      0.00
   22    0   24     -1.05      0.00
    1    1   24      5.10      0.00
    3    1   24      0.30      0.00
    5    1   24     -6.49      0.00
    7    1   24     -7.21      0.00
    9    1   24      6.89      0.00
   11    1   24      7.54      0.00
   13    1   24      0.48      0.00
   15    1   24     10.28      0.00
   17    1   24     -4.28      0.00
   19    1   24      2.95      0.00
   21    1   24      1.58      0.00
   23    1   24      7.54      0.00
    0    2   24     -9.59      0.00
    2    2   24      0.94      0.00
    4    2   24      3.47      0.00
    6    2   24     10.09      0.00
    8    2   24     -0.61      0.00
   10    2   24      3.18      0.00
   12    2   24     -9.97      0.00
   14    2   24      1.36      0.00
   16    2   24     -1.14      0.00
   18    2   24     -4.47      0.00
   20    2   24      5.36      0.00
   22    2   24      6.83      0.00
    1    3   24     -5.31      0.00
    3    3   24      6.22      0.00
    5    3   24      1.70      0.00
    7    3   24     12.99      0.00
    9    3   24      2.08      0.00
   11    3   24    -15.86      0.00
   13    3   24     11.87      0.00
   15    3   24     -5.33      0.00
   17    3   24     -8.05      0.00
   19    3   24      3.66      0.00
   21    3   24      6.80      0.00
   23    3   24      2.34      0.00
    0    4   24      7.19      0.00
    2    4   24      5.76      0.00
    4    4   24     11.62      0.00
    6    4   24    -25.04      0.00
    8    4   24      2.41      0.00
   10    4   24     -1.42      0.00
   12    4   24      6.08      0.00
   14    4   24     -4.99      0.00
   16    4   24     13.10      0.00
   18    4   24      0.42      0.00
   20    4   24      9.32      0.00
   22    4   24     -7.32      0.00
    1    5   24     -1.76      0.00
    3    5   24     13.00      0.00
    5    5   24     -5.61      0.00
    7    5   24     13.17      0.00
    9    5   24     -0.75      0.00
   11    5   24    -17.69      0.00
   13    5   24     -9.29      0.00
   15    5   24     -7.40      0.00
   17    5   24    -13.72      0.00
   19    5   24      7.56      0.00
   21    5   24     -6.19      0.00
   23    5   24      6.99      0.00
    0    6   24     -9.18      0.00
    2    6   24      6.78      0.00
    4    6   24    -13.69      0.00
    6    6   24     -8.00      0.00
    8    6   24      5.21      0.00
   10    6   24     -5.27      0.00
   12    6   24      2.89      0.00
   14    6   24     16.13      0.00
   16    6   24      0.16      0.00
   18    6   24      0.69      0.00
   20    6   24     -8.24      0.00
   22    6   24     19.64      0.00
    1    7   24      2.78      0.00
    3    7   24      6.70      0.00
    5    7   24     -8.13      0.00
    7    7   24     -5.16      0.00
    9    7   24    -12.43      0.00
   11    7   24     -0.13      0.00
   13    7   24     16.47      0.00
   15    7   24     -2.98      0.00
   17    7   24      4.76      0.00
   19    7   24     -4.68      0.00
   21    7   24     -9.19      0.00
   23    7   24      5.27      0.00
    0    8   24      5.28      0.00
    2    8   24      7.34      0.00
    4    8   24      1.37      0.00
    6    8   24      4.10      0.00
    8    8   24      2.23      0.00
   10    8   24      0.67      0.00
   12    8   24     -7.54      0.00
   14    8   24    -11.78      0.00
   16    8   24      1.03      0.00
   18    8   24      3.32      0.00
   20    8   24      3.86      0.00
   22    8   24     -7.22      0.00
    1    9   24     -7.60      0.00
    3    9   24      8.16      0.00
    5    9   24     -4.66      0.00
    7    9   24      1.66      0.00
    9    9   24     -5.32      0.00
   11    9   24      7.45      0.00
   13    9   24     -5.30      0.00
   15    9   24      9.39      0.00
   17    9   24      2.39      0.00
   19    9   24     13.16      0.00
   21    9   24     -0.47      0.00
   23    9   24     -8.08      0.00
    0   10   24     -8.63      0.00
    2   10   24     15.18      0.00
    4   10   24     -3.81      0.00
    6   10   24     -0.98      0.00
    8   10   24      1.62      0.00
   10   10   24     -2.59      0.00
   12   10   24     -3.32      0.00
   14   10   24     18.60      0.00
   16   10   24     -3.77      0.00
   18   10   24     -0.92      0.00
   20   10   24     -4.78      0.00
   22   10   24     11.26      0.00
    1   11   24      1.40      0.00
    3   11   24     -4.15      0.00
    5   11   24     12.04      0.00
    7   11   24    -13.60      0.00
    9   11   24     16.88      0.00
   11   11   24     -5.69      0.00
   13   11   24    -10.33      0.00
   15   11   24    -12.94      0.00
   17   11   24     -5.72      0.00
   19   11   24      0.71      0.00
   21   11   24     14.12      0.00
   23   11   24     -6.34      0.00
    0   12   24      5.30      0.00
    2   12   24    -16.79      0.00
    4   12   24     16.55      0.00
    6   12   24      4.48      0.00
    8   12   24    -10.38      0.00
   10   12   24     -4.05      0.00
   12   12   24     -0.69      0.00
   14   12   24    -11.95      0.00
   16   12   24     11.47      0.00
   18   12   24      1.47      0.00
   20   12   24      4.23      0.00
   22   12   24     -0.58      0.00
    1   13   24     10.70      0.00
    3   13   24      6.92      0.00
    5   13   24     -4.88      0.00
    7   13   24     -7.69      0.00
    9   13   24     -8.73      0.00
   11   13   24      8.40      0.00
   13   13   24     -4.29      0.00
   15   13   24      6.78      0.00
   17   13   24     -0.20      0.00
   19   13   24     -2.29      0.00
   21   13   24     -1.64      0.00
   23   13   24     12.00      0.00
    0   14   24      3.67      0.00
    2   14   24    -13.05      0.00
    4   14   24      8.58      0.00
    6   14   24      1.37      0.00
    8   14   24     -6.54      0.00
   10   14   24     -3.05      0.00
   12   14   24     17.23      0.00
   14   14   24    -15.18      0.00
   16   14   24     -4.63      0.00
   18   14   24     -0.21      0.00
   20   14   24      3.34      0.00
   22   14   24     -1.34      0.00
    1   15   24     -9.19      0.00
    3   15   24      2.64      0.00
    5   15   24     17.21      0.00
    7   15   24      9.75      0.00
    9   15   24     11.15      0.00
   11   15   24     -3.55      0.00
   13   15   24     -1.10      0.00
   15   15   24      8.81      0.00
   17   15   24      5.97      0.00
   19   15   24     -9.82      0.00
   21   15   24      1.22      0.00
   23   15   24     -2.21      0.00
    0   16   24     19.75      0.00
    2   16   24     13.87      0.00
    4   16   24     -8.92      0.00
    6   16   24      8.69      0.00
    8   16   24     -4.21      0.00
   10   16   24     10.49      0.00
   12   16   24     -2.74      0.00
   14   16   24     -0.69      0.00
   16   16   24      3.16      0.00
   18   16   24      5.10      0.00
   20   16   24     -2.41      0.00
   22   16   24      8.98      0.00
    1   17   24      4.76      0.00
    3   17   24     -7.34      0.00
    5   17   24     -9.34      0.00
    7   17   24     10.86      0.00
    9   17   24     20.16      0.00
   11   17   24     -5.67      0.00
   13   17   24     13.84      0.00
   15   17   24     -0.64      0.00
   17   17   24      7.28      0.00
   19   17   24     -2.29      0.00
   21   17   24    -10.66      0.00
   23   17   24      6.55      0.00
    0   18   24      1.78      0.00
    2   18   24      3.07      0.00
    4   18   24     -2.51      0.00
    6   18   24      3.96      0.00
    8   18   24     19.63      0.00
   10   18   24      5.87      0.00
   12   18   24     -2.51      0.00
   14   18   24      3.50      0.00
   16   18   24     -3.43      0.00
   18   18   24     10.58      0.00
   20   18   24     -5.30      0.00
   22   18   24      3.50      0.00
    1   19   24      2.95      0.00
    3   19   24      6.95      0.00
    5   19   24      8.85      0.00
    7   19   24     -4.19      0.00
    9   19   24    -22.67      0.00
   11   19   24     -2.29      0.00
   13   19   24      3.26      0.00
   15   19   24     18.62      0.00
   17   19   24      0.25      0.00
   19   19   24     -8.24      0.00
   21   19   24      4.84      0.00
   23   19   24      1.70      0.00
    0   20   24     -6.85      0.00
    2   20   24      1.22      0.00
    4   20   24     -1.01      0.00
    6   20   24     -0.52      0.00
    8   20   24     -8.06      0.00
   10   20   24      1.26      0.00
   12   20   24      6.31      0.00
   14   20   24      3.46      0.00
   16   20   24     10.38      0.00
   18   20   24      1.42      0.00
   20   20   24    -11.58      0.00
   22   20   24      1.10      0.00
    1   21   24      0.13      0.00
    3   21   24     -4.16      0.00
    5   21   24    -11.13      0.00
    7   21   24      2.74      0.00
    9   21   24     28.48      0.00
   11   21   24     -3.54      0.00
   13   21   24      2.69      0.00
   15   21   24      2.48      0.00
   17   21   24    -12.57      0.00
   19   21   24     -5.17      0.00
   21   21   24      3.42      0.00
    0   22   24     10.64      0.00
    2   22   24     12.32      0.00
    4   22   24      8.87      0.00
    6   22   24      6.04      0.00
    8   22   24     -6.85      0.00
   10   22   24     -6.25      0.00
   12   22   24      1.44      0.00
   14   22   24     16.84      0.00
   16   22   24      3.01      0.00
   18   22   24    -16.79      0.00
   20   22   24      9.67      0.00
    1   23   24     -8.29      0.00
    3   23   24     -7.27      0.00
    5   23   24      5.91      0.00
    7   23   24     12.19      0.00
    9   23   24    -19.01      0.00
   11   23   24     19.13      0.00
   13   23   24     -3.11      0.00
   15   23   24     12.98      0.00
   17   23   24    -12.09      0.00
   19   23   24      8.96      0.00
    0   24   24      1.62      0.00
    2   24   24     -0.72      0.00
    4   24   24    -11.85      0.00
    6   24   24     -1.25      0.00
    8   24   24     19.33      0.00
   10   24   24     24.07      0.00
   12   24   24    -11.27      0.00
   14   24   24     -6.25      0.00
   16   24   24      6.54      0.00
   18   24   24      5.84      0.00
   20   24   24     -5.33      0.00
    2    1   25      5.68      0.00
    4    1   25     -7.34      0.00
    6    1   25      0.86      0.00
    8    1   25     10.41      0.00
   10    1   25      1.60      0.00
   12    1   25     -1.31      0.00
   14    1   25      4.89      0.00
   16    1   25      2.36      0.00
   18    1   25     -1.03      0.00
   20    1   25     -5.45      0.00
   22    1   25      1.58      0.00
   24    1   25      1.51      0.00
    1    2   25    -11.33      0.00
    3    2   25      1.55      0.00
    5    2   25      2.69      0.00
    7    2   25    -15.43      0.00
    9    2   25    -25.77      0.00
   11    2   25     -7.07      0.00
   13    2   25      6.87      0.00
   15    2   25     -4.09      0.00
   17    2   25     15.61      0.00
   19    2   25      5.91      0.00
   21    2   25      2.56      0.00
   23    2   25     -7.36      0.00
    2    3   25      9.79      0.00
    4    3   25     -2.13      0.00
    6    3   25     -6.45      0.00
    8    3   25     14.05      0.00
   10    3   25     -6.26      0.00
   12    3   25     -3.28      0.00
   14    3   25     -1.50      0.00
   16    3   25      4.93      0.00
   18    3   25     -1.38      0.00
   20    3   25      3.70      0.00
   22    3   25     -5.93      0.00
   24    3   25      7.94      0.00
    1    4   25     -0.36      0.00
    3    4   25      1.58      0.00
    5    4   25     -4.12      0.00
    7    4   25      8.79      0.00
    9    4   25      4.89      0.00
   11    4   25      6.62      0.00
   13    4   25     12.22      0.00
   15    4   25    -14.36      0.00
   17    4   25      6.07      0.00
   19    4   25      5.70      0.00
   21    4   25      1.69      0.00
   23    4   25      3.35      0.00
    2    5   25      4.37      0.00
    4    5   25     -9.49      0.00
    6    5   25      9.17      0.00
    8    5   25      0.45      0.00
   10    5   25      4.84      0.00
   12    5   25     -8.65      0.00
   14    5   25      8.22      0.00
   16    5   25     -3.89      0.00
   18    5   25     -1.66      0.00
   20    5   25     -7.51      0.00
   22    5   25     -8.34      0.00
   24    5   25     -9.22      0.00
    1    6   25      8.79      0.00
    3    6   25      3.95      0.00
    5    6   25     -2.58      0.00
    7    6   25     17.06      0.00
    9    6   25      4.31      0.00
   11    6   25     -6.08      0.00
   13    6   25      8.21      0.00
   15    6   25      5.38      0.00
   17    6   25     -1.56      0.00
   19    6   25     -5.34      0.00
   21    6   25     -3.73      0.00
   23    6   25     12.79      0.00
    2    7   25    -11.00      0.00
    4    7   25     -9.34      0.00
    6    7   25     -4.38      0.00
    8    7   25     -3.07      0.00
   10    7   25     -4.72      0.00
   12    7   25     13.37      0.00
   14    7   25      0.47      0.00
   16    7   25    -10.68      0.00
   18    7   25    -10.96      0.00
   20    7   25      2.51      0.00
   22    7   25      1.15      0.00
   24    7   25     -7.18      0.00
    1    8   25      2.77      0.00
    3    8   25     -2.99      0.00
    5    8   25     -2.81      0.00
    7    8   25    -10.37      0.00
    9    8   25    -10.81      0.00
   11    8   25      0.78      0.00
   13    8   25    -15.61      0.00
   15    8   25      1.36      0.00
   17    8   25      3.41      0.00
   19    8   25      5.18      0.00
   21    8   25     11.54      0.00
   23    8   25    -19.37      0.00
    2    9   25     -2.87      0.00
    4    9   25      6.32      0.00
    6    9   25     13.40      0.00
    8    9   25    -15.06      0.00
   10    9   25      1.04      0.00
   12    9   25      3.46      0.00
   14    9   25    -14.75      0.00
   16    9   25     -3.94      0.00
   18    9   25     14.80      0.00
   20    9   25     -3.13      0.00
   22    9   25      2.83      0.00
   24    9   25     -2.78      0.00
    1   10   25     -7.48      0.00
    3   10   25     -6.17      0.00
    5   10   25     -3.49      0.00
    7   10   25     -7.20      0.00
    9   10   25      9.96      0.00
   11   10   25      4.49      0.00
   13   10   25     -2.70      0.00
   15   10   25      4.90      0.00
   17   10   25     -7.21      0.00
   19   10   25      4.89      0.00
   21   10   25    -24.78      0.00
   23   10   25     10.46      0.00
    2   11   25     -3.42      0.00
    4   11   25     -3.97      0.00
    6   11   25     -9.42      0.00
    8   11   25     -3.03      0.00
   10   11   25     -0.05      0.00
   12   11   25      6.82      0.00
   14   11   25      1.19      0.00
   16   11   25     -8.12      0.00
   18   11   25    -11.76      0.00
   20   11   25     13.87      0.00
   22   11   25     10.00      0.00
   24   11   25     -5.64      0.00
    1   12   25     11.04      0.00
    3   12   25      1.66      0.00
    5   12   25     11.70      0.00
    7   12   25     14.65      0.00
    9   12   25      2.92      0.00
   11   12   25      3.61      0.00
   13   12   25      4.00      0.00
   15   12   25      5.00      0.00
   17   12   25      8.82      0.00
   19   12   25     -5.38      0.00
   21   12   25     -6.90      0.00
   23   12   25    -10.00      0.00
    2   13   25     -4.06      0.00
    4   13   25     11.32      0.00
    6   13   25     -1.19      0.00
    8   13   25    -11.84      0.00
   10   13   25      2.29      0.00
   12   13   25    -11.68      0.00
   14   13   25     -2.12      0.00
   16   13   25     14.52      0.00
   18   13   25     -8.52      0.00
   20   13   25     -4.18      0.00
   22   13   25      1.04      0.00
   24   13   25     -0.65      0.00
    1   14   25     -1.71      0.00
    3   14   25      5.86      0.00
    5   14   25     -4.27      0.00
    7   14   25    -10.10      0.00
    9   14   25     22.49      0.00
   11   14   25     -5.09      0.00
   13   14   25     -8.66      0.00
   15   14   25    -13.67      0.00
   17   14   25    -13.21      0.00
   19   14   25     -0.15      0.00
   21   14   25     14.02      0.00
   23   14   25      4.81      0.00
    2   15   25      7.50      0.00
    4   15   25      3.28      0.00
    6   15   25      7.75      0.00
    8   15   25      7.65      0.00
   10   15   25     -2.03      0.00
   12   15   25    -11.63      0.00
   14   15   25     15.75      0.00
   16   15   25      2.91      0.00
   18   15   25     -0.79      0.00
   20   15   25      3.91      0.00
   22   15   25     -2.60      0.00
   24   15   25      0.38      0.00
    1   16   25     -0.44      0.00
    3   16   25      3.45      0.00
    5   16   25      2.85      0.00
    7   16   25     -4.37      0.00
    9   16   25    -38.90      0.00
   11   16   25      0.11      0.00
   13   16   25      3.60      0.00
   15   16   25     10.31      0.00
   17   16   25     -3.69      0.00
   19   16   25     -6.96      0.00
   21   16   25     -1.30      0.00
   23   16   25      2.00      0.00
    2   17   25    -10.49      0.00
    4   17   25    -17.48      0.00
    6   17   25     -2.93      0.00
    8   17   25      8.53      0.00
   10   17   25      6.27      0.00
   12   17   25     -0.31      0.00
   14   17   25     -1.08      0.00
   16   17   25     -8.81      0.00
   18   17   25     -2.81      0.00
   20   17   25     13.94      0.00
   22   17   25     13.97      0.00
   24   17   25      7.15      0.00
    1   18   25     -8.33      0.00
    3   18   25     -3.81      0.00
    5   18   25     14.89      0.00
    7   18   25      6.71      0.00
    9   18   25     19.77      0.00
   11   18   25     12.01      0.00
   13   18   25     21.28      0.00
   15   18   25     -0.40      0.00
   17   18   25    -14.60      0.00
   19   18   25     -4.62      0.00
   21   18   25     -3.52      0.00
   23   18   25      1.76      0.00
    2   19   25     -5.76      0.00
    4   19   25      5.87      0.00
    6   19   25     -2.22      0.00
    8   19   25    -14.56      0.00
   10   19   25     -5.34      0.00
   12   19   25      4.16      0.00
   14   19   25     -5.70      0.00
   16   19   25     -0.10      0.00
   18   19   25      2.68      0.00
   20   19   25      0.71      0.00
   22   19   25     -4.18      0.00
   24   19   25     -4.64      0.00
    1   20   25     -0.82      0.00
    3   20   25      1.45      0.00
    5   20   25     -0.42      0.00
    7   20   25     16.59      0.00
    9   20   25     -4.15      0.00
   11   20   25     11.32      0.00
   13   20   25     -4.83      0.00
   15   20   25    -17.58      0.00
   17   20   25      4.76      0.00
   19   20   25      6.45      0.00
   21   20   25      4.18      0.00
   23   20   25     -0.39      0.00
    2   21   25      2.22      0.00
    4   21   25     -5.67      0.00
    6   21   25     -4.28      0.00
    8   21   25      7.86      0.00
   10   21   25     -2.47      0.00
   12   21   25     -4.96      0.00
   14   21   25      1.86      0.00
   16   21   25    -13.72      0.00
   18   21   25     -4.56      0.00
   20   21   25      1.43      0.00
    1   22   25      8.45      0.00
    3   22   25      5.26      0.00
    5   22   25     -1.11      0.00
    7   22   25     -9.62      0.00
    9   22   25     -3.21      0.00
   11   22   25     -2.85      0.00
   13   22   25     10.53      0.00
   15   22   25    -18.43      0.00
   17   22   25      6.61      0.00
   19   22   25      0.93      0.00
    2   23   25      5.42      0.00
    4   23   25      0.14      0.00
    6   23   25     -7.13      0.00
    8   23   25     -2.26      0.00
   10   23   25     -6.32      0.00
   12   23   25     -7.35      0.00
   14   23   25      8.89      0.00
   16   23   25     -0.18      0.00
   18   23   25      6.04      0.00
   20   23   25      0.58      0.00
    1   24   25     11.84      0.00
    3   24   25      4.77      0.00
    5   24   25     -5.36      0.00
    7   24   25      8.55      0.00
    9   24   25      2.10      0.00
   11   24   25      5.29      0.00
   13   24   25     -0.66      0.00
   15   24   25     12.33      0.00
   17   24   25    -10.88      0.00
   19   24   25     10.70      0.00
    2   25   25     -9.72      0.00
    4   25   25    -10.33      0.00
    6   25   25      7.81      0.00
    8   25   25     11.27      0.00
   10   25   25      1.70      0.00
   12   25   25    -10.10      0.00
   14   25   25     -4.86      0.00
   16   25   25      2.41      0.00
   18   25   25      3.62      0.00
    0    0   26     35.10      0.00
    2    0   26     -0.74      0.00
    4    0   26     -8.26      0.00
    6    0   26      0.74      0.00
    8    0   26     -6.02      0.00
   10    0   26      6.47      0.00
   12    0   26      5.75      0.00
   14    0   26     15.30      0.00
   16    0   26      6.60      0.00
   18    0   26     -4.02      0.00
   20    0   26     -3.88      0.00
   22    0   26     14.54      0.00
   24    0   26      2.02      0.00
    1    1   26     -1.84      0.00
    3    1   26     12.72      0.00
    5    1   26      8.05      0.00
    7    1   26      6.63      0.00
    9    1   26      0.26      0.00
   11    1   26     -8.93      0.00
   13    1   26      1.40      0.00
   15    1   26     -3.35      0.00
   17    1   26      0.50      0.00
   19    1   26    -16.49      0.00
   21    1   26      1.82      0.00
   23    1   26     -6.55      0.00
   25    1   26      6.99      0.00
    0    2   26      9.35      0.00
    2    2   26    -16.18      0.00
    4    2   26      4.58      0.00
    6    2   26      6.50      0.00
    8    2   26      3.66      0.00
   10    2   26      3.02      0.00
   12    2   26      5.85      0.00
   14    2   26      5.44      0.00
   16    2   26    -10.80      0.00
   18    2   26     -2.34      0.00
   20    2   26      2.18      0.00
   22    2   26     -5.93      0.00
   24    2   26     -2.31      0.00
    1    3   26      8.02      0.00
    3    3   26     -4.14      0.00
    5    3   26      4.36      0.00
    7    3   26     -8.60      0.00
    9    3   26    -11.80      0.00
   11    3   26     22.06      0.00
   13    3   26     -2.32      0.00
   15    3   26      0.43      0.00
   17    3   26      2.07      0.00
   19    3   26      1.66      0.00
   21    3   26     -4.09      0.00
   23    3   26    -19.41      0.00
   25    3   26      4.51      0.00
    0    4   26    -15.88      0.00
    2    4   26      4.56      0.00
    4    4   26     -5.21      0.00
    6    4   26      9.48      0.00
    8    4   26     -5.18      0.00
   10    4   26      7.38      0.00
   12    4   26     -4.61      0.00
   14    4   26     -1.94      0.00
   16    4   26     -4.43      0.00
   18    4   26     -4.34      0.00
   20    4   26     -3.92      0.00
   22    4   26      0.21      0.00
   24    4   26      2.25      0.00
    1    5   26     -4.74      0.00
    3    5   26    -11.39      0.00
    5    5   26     -4.37      0.00
    7    5   26     11.27      0.00
    9    5   26      0.19      0.00
   11    5   26      6.46      0.00
   13    5   26      9.23      0.00
   15    5   26      2.15      0.00
   17    5   26     -1.72      0.00
   19    5   26    -13.93      0.00
   21    5   26     15.73      0.00
   23    5   26      2.88      0.00
   25    5   26     -2.72      0.00
    0    6   26     12.53      0.00
    2    6   26      4.61      0.00
    4    6   26     -0.58      0.00
    6    6   26      1.09      0.00
    8    6   26     -1.47      0.00
   10    6   26     -7.61      0.00
   12    6   26      8.99      0.00
   14    6   26     -2.28      0.00
   16    6   26     13.31      0.00
   18    6   26      3.09      0.00
   20    6   26      3.66      0.00
   22    6   26      0.99      0.00
   24    6   26      0.61      0.00
    1    7   26      5.82      0.00
    3    7   26      3.50      0.00
    5    7   26     12.86      0.00
    7    7   26      6.12      0.00
    9    7   26     -4.32      0.00
   11    7   26     -9.59      0.00
   13    7   26     11.79      0.00
   15    7   26    -16.17      0.00
   17    7   26     -3.95      0.00
   19    7   26      9.23      0.00
   21    7   26     -4.63      0.00
   23    7   26    -11.79      0.00
   25    7   26      0.58      0.00
    0    8   26     -9.09      0.00
    2    8   26     -8.33      0.00
    4    8   26     -0.92      0.00
    6    8   26     11.27      0.00
    8    8   26      6.99      0.00
   10    8   26      3.72      0.00
   12    8   26      6.48      0.00
   14    8   26    -12.05      0.00
   16    8   26      2.02      0.00
   18    8   26     14.86      0.00
   20    8   26      3.49      0.00
   22    8   26     -3.13      0.00
   24    8   26    -11.44      0.00
    1    9   26     -6.93      0.00
    3    9   26      6.08      0.00
    5    9   26     -6.03      0.00
    7    9   26     -1.19      0.00
    9    9   26      5.95      0.00
   11    9   26     -7.79      0.00
   13    9   26      5.14      0.00
   15    9   26      4.85      0.00
   17    9   26      4.95      0.00
   19    9   26    -16.88      0.00
   21    9   26      0.98      0.00
   23    9   26     14.79      0.00
   25    9   26     -7.67      0.00
    0   10   26      2.68      0.00
    2   10   26      1.16      0.00
    4   10   26     10.36      0.00
    6   10   26    -17.74      0.00
    8   10   26      0.06      0.00
   10   10   26      1.58      0.00
   12   10   26      2.97      0.00
   14   10   26     -7.99      0.00
   16   10   26     -6.51      0.00
   18   10   26     -7.21      0.00
   20   10   26     -2.05      0.00
   22   10   26     -2.55      0.00
   24   10   26      3.62      0.00
    1   11   26     -2.20      0.00
    3   11   26      1.52      0.00
    5   11   26     -7.82      0.00
    7   11   26     -1.33      0.00
    9   11   26     -9.57      0.00
   11   11   26     12.42      0.00
   13   11   26    -14.59      0.00
   15   11   26      2.74      0.00
   17   11   26     10.60      0.00
   19   11   26     -8.56      0.00
   21   11   26    -10.10      0.00
   23   11   26     16.74      0.00
   25   11   26     -2.71      0.00
    0   12   26      0.46      0.00
    2   12   26     18.41      0.00
    4   12   26     -4.39      0.00
    6   12   26     -9.82      0.00
    8   12   26     -9.65      0.00
   10   12   26     -0.75      0.00
   12   12   26    -11.79      0.00
   14   12   26      9.53      0.00
   16   12   26     -3.50      0.00
   18   12   26     15.17      0.00
   20   12   26      6.74      0.00
   22   12   26      0.44      0.00
   24   12   26      4.09      0.00
    1   13   26      9.35      0.00
    3   13   26      7.99      0.00
    5   13   26     -3.61      0.00
    7   13   26     -3.28      0.00
    9   13   26     20.35      0.00
   11   13   26     -9.77      0.00
   13   13   26     -1.54      0.00
   15   13   26      6.15      0.00
   17   13   26    -13.27      0.00
   19   13   26     -5.53      0.00
   21   13   26      0.12      0.00
   23   13   26      0.64      0.00
   25   13   26     -0.02      0.00
    0   14   26     -4.84      0.00
    2   14   26     -5.55      0.00
    4   14   26     -6.60      0.00
    6   14   26     20.34      0.00
    8   14   26     -3.01      0.00
   10   14   26     -0.72      0.00
   12   14   26     -2.86      0.00
   14   14   26     17.11      0.00
   16   14   26    -12.03      0.00
   18   14   26      7.98      0.00
   20   14   26     10.60      0.00
   22   14   26      1.30      0.00
   24   14   26     -2.64      0.00
    1   15   26      4.90      0.00
    3   15   26     14.24      0.00
    5   15   26      5.00      0.00
    7   15   26     -3.94      0.00
    9   15   26      8.78      0.00
   11   15   26      6.83      0.00
   13   15   26    -15.55      0.00
   15   15   26      8.58      0.00
   17   15   26     -6.00      0.00
   19   15   26     22.22      0.00
   21   15   26     11.65      0.00
   23   15   26     -8.95      0.00
   25   15   26     -1.53      0.00
    0   16   26      7.84      0.00
    2   16   26     -7.35      0.00
    4   16   26      1.43      0.00
    6   16   26     -6.37      0.00
    8   16   26     12.63      0.00
   10   16   26     -0.77      0.00
   12   16   26     13.44      0.00
   14   16   26     -3.22      0.00
   16   16   26     -3.21      0.00
   18   16   26      0.03      0.00
   20   16   26      6.99      0.00
   22   16   26      2.71      0.00
   24   16   26     -0.32      0.00
    1   17   26     -1.93      0.00
    3   17   26     -5.82      0.00
    5   17   26     12.19      0.00
    7   17   26     -1.00      0.00
    9   17   26      6.24      0.00
   11   17   26     13.50      0.00
   13   17   26     -3.11      0.00
   15   17   26    -15.66      0.00
   17   17   26     -1.83      0.00
   19   17   26      6.53      0.00
   21   17   26     -2.23      0.00
   23   17   26      6.67      0.00
   25   17   26      6.85      0.00
    0   18   26      2.51      0.00
    2   18   26      3.00      0.00
    4   18   26     22.12      0.00
    6   18   26      9.66      0.00
    8   18   26    -16.37      0.00
   10   18   26    -10.17      0.00
   12   18   26     -5.85      0.00
   14   18   26      2.91      0.00
   16   18   26      7.80      0.00
   18   18   26      6.43      0.00
   20   18   26      2.70      0.00
   22   18   26     -5.46      0.00
   24   18   26     10.73      0.00
    1   19   26      3.16      0.00
    3   19   26      4.05      0.00
    5   19   26      3.38      0.00
    7   19   26     -6.18      0.00
    9   19   26      7.14      0.00
   11   19   26      2.81      0.00
   13   19   26     -3.56      0.00
   15   19   26     -2.14      0.00
   17   19   26     -2.62      0.00
   19   19   26     -4.92      0.00
   21   19   26     -0.65      0.00
   23   19   26      3.37      0.00
    0   20   26     -3.80      0.00
    2   20   26     -4.49      0.00
    4   20   26      0.39      0.00
    6   20   26     -6.44      0.00
    8   20   26     21.78      0.00
   10   20   26     10.17      0.00
   12   20   26      9.21      0.00
   14   20   26     -7.47      0.00
   16   20   26     -7.65      0.00
   18   20   26      7.49      0.00
   20   20   26     -0.07      0.00
    1   21   26      3.17      0.00
    3   21   26      7.88      0.00
    5   21   26     13.16      0.00
    7   21   26     -2.54      0.00
    9   21   26     -5.77      0.00
   11   21   26     -0.04      0.00
   13   21   26    -10.25      0.00
   15   21   26      5.12      0.00
   17   21   26      6.94      0.00
   19   21   26     10.13      0.00
    0   22   26    -13.74      0.00
    2   22   26      1.39      0.00
    4   22   26      0.39      0.00
    6   22   26      6.91      0.00
    8   22   26     -0.67      0.00
   10   22   26      2.27      0.00
   12   22   26     -3.03      0.00
   14   22   26      4.19      0.00
   16   22   26     13.11      0.00
   18   22   26     -4.10      0.00
   20   22   26     -2.44      0.00
    1   23   26     -1.08      0.00
    3   23   26    -20.42      0.00
    5   23   26    -11.23      0.00
    7   23   26      2.06      0.00
    9   23   26     16.36      0.00
   11   23   26     -0.85      0.00
   13   23   26      4.94      0.00
   15   23   26    -16.55      0.00
   17   23   26     16.08      0.00
   19   23   26     -2.58      0.00
    0   24   26     32.96      0.00
    2   24   26      4.47      0.00
    4   24   26      4.44      0.00
    6   24   26     -5.21      0.00
    8   24   26     -4.00      0.00
   10   24   26    -22.21      0.00
   12   24   26     11.33      0.00
   14   24   26      6.92      0.00
   16   24   26     18.21      0.00
   18   24   26     -4.71      0.00
    1   25   26      6.43      0.00
    3   25   26     -5.25      0.00
    5   25   26     -3.49      0.00
    7   25   26     -2.09      0.00
    9   25   26     -4.37      0.00
   11   25   26    -10.25      0.00
   13   25   26     16.99      0.00
   15   25   26      2.68      0.00
   17   25   26    -14.26      0.00
    0   26   26    -14.67      0.00
    2   26   26     -9.94      0.00
    4   26   26     -2.57      0.00
    6   26   26     26.77      0.00
    8   26   26      9.33      0.00
   10   26   26      4.21      0.00
   12   26   26     -1.34      0.00
   14   26   26      3.82      0.00
   16   26   26    -18.30      0.00
    2    1   27      6.34      0.00
    4    1   27      4.77      0.00
    6    1   27     -0.04      0.00
    8    1   27      3.21      0.00
   10    1   27      2.90      0.00
   12    1   27     -3.89      0.00
   14    1   27      0.35      0.00
   16    1   27    -10.79      0.00
   18    1   27     -5.87      0.00
   20    1   27      2.26      0.00
   22    1   27      0.57      0.00
   24    1   27     -6.52      0.00
   26    1   27      2.08      0.00
    1    2   27      2.83      0.00
    3    2   27     17.06      0.00
    5    2   27     10.16      0.00
    7    2   27     10.51      0.00
    9    2   27      1.37      0.00
   11    2   27      0.81      0.00
   13    2   27    -11.60      0.00
   15    2   27     -1.80      0.00
   17    2   27     -5.88      0.00
   19    2   27      7.83      0.00
   21    2   27     -0.17      0.00
   23    2   27     -4.34      0.00
   25    2   27     11.36      0.00
    2    3   27    -12.18      0.00
    4    3   27      3.65      0.00
    6    3   27      8.23      0.00
    8    3   27     13.27      0.00
   10    3   27     16.08      0.00
   12    3   27      2.30      0.00
   14    3   27     -5.13      0.00
   16    3   27     -4.73      0.00
   18    3   27      7.70      0.00
   20    3   27     -7.36      0.00
   22    3   27     -2.26      0.00
   24    3   27     -4.95      0.00
   26    3   27     -1.77      0.00
    1    4   27     -0.87      0.00
    3    4   27     -3.76      0.00
    5    4   27     -1.87      0.00
    7    4   27     -8.93      0.00
    9    4   27     12.28      0.00
   11    4   27     -1.94      0.00
   13    4   27     -1.41      0.00
   15    4   27      4.72      0.00
   17    4   27      8.22      0.00
   19    4   27     -8.79      0.00
   21    4   27     -1.01      0.00
   23    4   27     -2.58      0.00
   25    4   27      4.07      0.00
    2    5   27     -5.11      0.00
    4    5   27      2.10      0.00
    6    5   27     -0.18      0.00
    8    5   27     -4.59      0.00
   10    5   27     -3.10      0.00
   12    5   27    -14.75      0.00
   14    5   27      8.24      0.00
   16    5   27      3.01      0.00
   18    5   27     -9.80      0.00
   20    5   27      0.41      0.00
   22    5   27      7.16      0.00
   24    5   27      7.17      0.00
   26    5   27     -2.82      0.00
    1    6   27     11.11      0.00
    3    6   27     -6.84      0.00
    5    6   27    -11.36      0.00
    7    6   27     -1.06      0.00
    9    6   27      1.63      0.00
   11    6   27      6.76      0.00
   13    6   27     -0.13      0.00
   15    6   27      0.85      0.00
   17    6   27     -3.87      0.00
   19    6   27      3.81      0.00
   21    6   27     -0.40      0.00
   23    6   27      3.06      0.00
   25    6   27     -1.04      0.00
    2    7   27      6.63      0.00
    4    7   27     11.00      0.00
    6    7   27     -0.31      0.00
    8    7   27    -18.67      0.00
   10    7   27    -15.60      0.00
   12    7   27     -1.02      0.00
   14    7   27    -11.27      0.00
   16    7   27     -1.86      0.00
   18    7   27      8.28      0.00
   20    7   27     -1.52      0.00
   22    7   27     -2.32      0.00
   24    7   27      1.82      0.00
   26    7   27      0.95      0.00
    1    8   27      4.02      0.00
    3    8   27      7.31      0.00
    5    8   27      7.51      0.00
    7    8   27      7.76      0.00
    9    8   27     11.84      0.00
   11    8   27      2.12      0.00
   13    8   27      1.09      0.00
   15    8   27     -5.82      0.00
   17    8   27     -4.53      0.00
   19    8   27     -4.14      0.00
   21    8   27      3.60      0.00
   23    8   27      0.62      0.00
   25    8   27     -4.43      0.00
    2    9   27     -4.23      0.00
    4    9   27     -6.44      0.00
    6    9   27     -6.49      0.00
    8    9   27     10.35      0.00
   10    9   27      6.63      0.00
   12    9   27     19.70      0.00
   14    9   27     -5.54      0.00
   16    9   27      5.56      0.00
   18    9   27     -4.63      0.00
   20    9   27     -3.27      0.00
   22    9   27    -10.55      0.00
   24    9   27     19.46      0.00
   26    9   27      8.57      0.00
    1   10   27      1.39      0.00
    3   10   27     -4.62      0.00
    5   10   27     -9.08      0.00
    7   10   27    -12.14      0.00
    9   10   27      1.86      0.00
   11   10   27      7.17      0.00
   13   10   27     -0.28      0.00
   15   10   27      6.11      0.00
   17   10   27     -4.70      0.00
   19   10   27     -3.94      0.00
   21   10   27     12.47      0.00
   23   10   27     -1.08      0.00
   25   10   27     -5.31      0.00
    2   11   27      4.28      0.00
    4   11   27     -4.71      0.00
    6   11   27      5.47      0.00
    8   11   27      5.02      0.00
   10   11   27     -2.59      0.00
   12   11   27     -2.03      0.00
   14   11   27     -0.71      0.00
   16   11   27     14.38      0.00
   18   11   27      4.82      0.00
   20   11   27     -2.46      0.00
   22   11   27      3.48      0.00
   24   11   27     -2.40      0.00
   26   11   27      1.71      0.00
    1   12   27     -9.29      0.00
    3   12   27      5.22      0.00
    5   12   27    -10.23      0.00
    7   12   27     15.27      0.00
    9   12   27     -5.69      0.00
   11   12   27    -11.43      0.00
   13   12   27    -10.37      0.00
   15   12   27     17.09      0.00
   17   12   27     -1.83      0.00
   19   12   27     -7.70      0.00
   21   12   27     -1.15      0.00
   23   12   27     -3.09      0.00
   25   12   27     -0.90      0.00
    2   13   27    -11.73      0.00
    4   13   27     -2.93      0.00
    6   13   27     -5.32      0.00
    8   13   27     -5.26      0.00
   10   13   27     10.77      0.00
   12   13   27    -10.96      0.00
   14   13   27    -18.04      0.00
   16   13   27      1.17      0.00
   18   13   27     -1.61      0.00
   20   13   27      9.13      0.00
   22   13   27      6.72      0.00
   24   13   27     -9.50      0.00
   26   13   27     -6.52      0.00
    1   14   27      7.45      0.00
    3   14   27     -2.72      0.00
    5   14   27      5.07      0.00
    7   14   27     12.45      0.00
    9   14   27      9.50      0.00
   11   14   27    -10.04      0.00
   13   14   27     12.62      0.00
   15   14   27      0.08      0.00
   17   14   27      2.06      0.00
   19   14   27      4.40      0.00
   21   14   27    -16.18      0.00
   23   14   27     -1.56      0.00
   25   14   27      2.84      0.00
    2   15   27      3.55      0.00
    4   15   27      1.90      0.00
    6   15   27      0.22      0.00
    8   15   27    -11.48      0.00
   10   15   27    -17.15      0.00
   12   15   27     10.33      0.00
   14   15   27      7.26      0.00
   16   15   27      6.63      0.00
   18   15   27     11.95      0.00
   20   15   27      2.48      0.00
   22   15   27     -8.62      0.00
   24   15   27     -8.07      0.00
   26   15   27      1.68      0.00
    1   16   27     -2.14      0.00
    3   16   27    -19.32      0.00
    5   16   27     -1.67      0.00
    7   16   27     -2.95      0.00
    9   16   27      8.51      0.00
   11   16   27      0.94      0.00
   13   16   27      2.93      0.00
   15   16   27     -8.21      0.00
   17   16   27      4.73      0.00
   19   16   27     -6.04      0.00
   21   16   27     15.58      0.00
   23   16   27      2.62      0.00
   25   16   27      0.85      0.00
    2   17   27      1.77      0.00
    4   17   27      4.86      0.00
    6   17   27     -9.44      0.00
    8   17   27     12.12      0.00
   10   17   27     30.08      0.00
   12   17   27     -1.19      0.00
   14   17   27      9.10      0.00
   16   17   27      0.37      0.00
   18   17   27     -4.21      0.00
   20   17   27     -4.58      0.00
   22   17   27     -0.15      0.00
   24   17   27      4.06      0.00
    1   18   27     -0.78      0.00
    3   18   27      5.83      0.00
    5   18   27      3.73      0.00
    7   18   27      2.07      0.00
    9   18   27      2.41      0.00
   11   18   27    -30.11      0.00
   13   18   27     -3.51      0.00
   15   18   27      6.16      0.00
   17   18   27      8.52      0.00
   19   18   27     -1.59      0.00
   21   18   27      1.19      0.00
   23   18   27      1.02      0.00
    2   19   27     -2.00      0.00
    4   19   27      3.05      0.00
    6   19   27      2.70      0.00
    8   19   27    -14.08      0.00
   10   19   27     -4.77      0.00
   12   19   27    -12.22      0.00
   14   19   27     -6.38      0.00
   16   19   27     -1.91      0.00
   18   19   27      2.66      0.00
   20   19   27      2.62      0.00
    1   20   27     -1.49      0.00
    3   20   27      2.63      0.00
    5   20   27      6.01      0.00
    7   20   27     -1.52      0.00
    9   20   27      4.25      0.00
   11   20   27      1.88      0.00
   13   20   27     -0.42      0.00
   15   20   27     -1.95      0.00
   17   20   27      1.24      0.00
   19   20   27      1.40      0.00
    2   21   27     -3.16      0.00
    4   21   27      1.09      0.00
    6   21   27     -0.25      0.00
    8   21   27     -2.64      0.00
   10   21   27    -13.23      0.00
   12   21   27     -2.02      0.00
   14   21   27     15.37      0.00
   16   21   27     -2.87      0.00
   18   21   27     -4.16      0.00
   20   21   27     -6.03      0.00
    1   22   27      4.11      0.00
    3   22   27      8.92      0.00
    5   22   27    -10.13      0.00
    7   22   27    -10.71      0.00
    9   22   27      1.54      0.00
   11   22   27      9.78      0.00
   13   22   27     11.22      0.00
   15   22   27      6.26      0.00
   17   22   27      3.02      0.00
   19   22   27     -1.87      0.00
    2   23   27     -3.86      0.00
    4   23   27      1.55      0.00
    6   23   27      4.31      0.00
    8   23   27     13.10      0.00
   10   23   27      3.86      0.00
   12   23   27      2.98      0.00
   14   23   27      2.90      0.00
   16   23   27     -5.04      0.00
   18   23   27      3.45      0.00
    1   24   27    -10.48      0.00
    3   24   27     -7.07      0.00
    5   24   27      4.80      0.00
    7   24   27     25.00      0.00
    9   24   27      1.85      0.00
   11   24   27    -10.64      0.00
   13   24   27     -6.56      0.00
   15   24   27     -5.48      0.00
   17   24   27    -11.89      0.00
    2   25   27      1.52      0.00
    4   25   27     11.44      0.00
    6   25   27     -9.63      0.00
    8   25   27    -15.61      0.00
   10   25   27     -1.35      0.00
   12   25   27      9.76      0.00
   14   25   27    -23.74      0.00
   16   25   27     -0.20      0.00
    1   26   27    -11.92      0.00
    3   26   27      3.26      0.00
    5   26   27     -2.84      0.00
    7   26   27     -2.14      0.00
    9   26   27     -3.05      0.00
   11   26   27     -3.30      0.00
   13   26   27      5.24      0.00
   15   26   27     -4.72      0.00
    2   27   27      0.12      0.00
    4   27   27     -9.77      0.00
    6   27   27     -3.51      0.00
    8   27   27      4.81      0.00
   10   27   27     -9.86      0.00
   12   27   27      8.07      0.00
    0    0   28      0.84      0.00
    2    0   28     26.84      0.00
    4    0   28      5.80      0.00
    6    0   28    -13.83      0.00
    8    0   28      9.60      0.00
   10    0   28     -4.77      0.00
   12    0   28    -16.04      0.00
   14    0   28    -11.98      0.00
   16    0   28      2.27      0.00
   18    0   28     -8.16      0.00
   20    0   28    -10.35      0.00
   22    0   28      6.51      0.00
   24    0   28      0.13      0.00
   26    0   28     18.13      0.00
    1    1   28     -0.95      0.00
    3    1   28    -18.92      0.00
    5    1   28      8.42      0.00
    7    1   28      5.26      0.00
    9    1   28      5.34      0.00
   11    1   28     -6.50      0.00
   13    1   28      5.50      0.00
   15    1   28     -5.84      0.00
   17    1   28     -3.15      0.00
   19    1   28      6.92      0.00
   21    1   28    -11.62      0.00
   23    1   28      2.27      0.00
   25    1   28    -12.60      0.00
   27    1   28     -6.24      0.00
    0    2   28      6.48      0.00
    2    2   28     -1.71      0.00
    4    2   28      2.52      0.00
    6    2   28      8.29      0.00
    8    2   28    -10.21      0.00
   10    2   28     -5.82      0.00
   12    2   28      2.82      0.00
   14    2   28     -8.75      0.00
   16    2   28      3.57      0.00
   18    2   28      9.64      0.00
   20    2   28      0.42      0.00
   22    2   28     -6.25      0.00
   24    2   28      5.00      0.00
   26    2   28      6.55      0.00
    1    3   28      5.25      0.00
    3    3   28     -4.63      0.00
    5    3   28     -1.77      0.00
    7    3   28     -0.45      0.00
    9    3   28      1.49      0.00
   11    3   28     -0.74      0.00
   13    3   28      1.87      0.00
   15    3   28     12.66      0.00
   17    3   28     -2.53      0.00
   19    3   28     -6.08      0.00
   21    3   28     -8.00      0.00
   23    3   28      7.53      0.00
   25    3   28    -10.41      0.00
   27    3   28    -11.88      0.00
    0    4   28    -23.85      0.00
    2    4   28      1.75      0.00
    4    4   28     -1.00      0.00
    6    4   28      3.07      0.00
    8    4   28     15.14      0.00
   10    4   28     16.33      0.00
   12    4   28     -4.58      0.00
   14    4   28      7.00      0.00
   16    4   28     -5.56      0.00
   18    4   28      4.86      0.00
   20    4   28     -0.36      0.00
   22    4   28      5.94      0.00
   24    4   28      6.18      0.00
   26    4   28     -5.32      0.00
    1    5   28     16.18      0.00
    3    5   28      3.63      0.00
    5    5   28      4.76      0.00
    7    5   28     -0.93      0.00
    9    5   28      9.82      0.00
   11    5   28    -13.80      0.00
   13    5   28      9.54      0.00
   15    5   28      3.48      0.00
   17    5   28     -7.40      0.00
   19    5   28     -3.38      0.00
   21    5   28     -1.51      0.00
   23    5   28      1.13      0.00
   25    5   28     -1.40      0.00
   27    5   28      4.51      0.00
    0    6   28     16.59      0.00
    2    6   28     -4.23      0.00
    4    6   28     17.63      0.00
    6    6   28     -1.83      0.00
    8    6   28     -3.16      0.00
   10    6   28     -5.65      0.00
   12    6   28      6.98      0.00
   14    6   28     -1.00      0.00
   16    6   28      3.39      0.00
   18    6   28     -3.38      0.00
   20    6   28      2.16      0.00
   22    6   28    -10.60      0.00
   24    6   28     -4.82      0.00
   26    6   28     -7.87      0.00
    1    7   28    -11.11      0.00
    3    7   28    -14.59      0.00
    5    7   28     14.35      0.00
    7    7   28     16.89      0.00
    9    7   28      8.08      0.00
   11    7   28      5.85      0.00
   13    7   28     -7.34      0.00
   15    7   28    -12.63      0.00
   17    7   28    -17.06      0.00
   19    7   28      6.05      0.00
   21    7   28     -1.58      0.00
   23    7   28    -18.45      0.00
   25    7   28     -5.17      0.00
   27    7   28      5.81      0.00
    0    8   28      4.92      0.00
    2    8   28     -1.47      0.00
    4    8   28    -13.22      0.00
    6    8   28      0.09      0.00
    8    8   28    -15.84      0.00
   10    8   28      8.60      0.00
   12    8   28      0.95      0.00
   14    8   28     12.39      0.00
   16    8   28     -2.10      0.00
   18    8   28      0.97      0.00
   20    8   28      4.14      0.00
   22    8   28      5.95      0.00
   24    8   28     -3.91      0.00
   26    8   28     -7.32      0.00
    1    9   28      1.34      0.00
    3    9   28     -0.01      0.00
    5    9   28     -5.12      0.00
    7    9   28     -1.55      0.00
    9    9   28     -4.81      0.00
   11    9   28      4.41      0.00
   13    9   28      4.03      0.00
   15    9   28     -4.66      0.00
   17    9   28     -3.10      0.00
   19    9   28    -14.14      0.00
   21    9   28      0.42      0.00
   23    9   28      4.39      0.00
   25    9   28     -3.52      0.00
   27    9   28     -9.50      0.00
    0   10   28      2.93      0.00
    2   10   28     -4.92      0.00
    4   10   28     -3.77      0.00
    6   10   28      0.49      0.00
    8   10   28      6.53      0.00
   10   10   28     -2.30      0.00
   12   10   28      5.72      0.00
   14   10   28     -4.58      0.00
   16   10   28      7.94      0.00
   18   10   28      2.04      0.00
   20   10   28      3.56      0.00
   22   10   28     -0.07      0.00
   24   10   28     -2.04      0.00
   26   10   28     -1.15      0.00
    1   11   28      8.02      0.00
    3   11   28     -5.75      0.00
    5   11   28     -0.80      0.00
    7   11   28     -2.43      0.00
    9   11   28      2.80      0.00
   11   11   28     -6.28      0.00
   13   11   28      0.14      0.00
   15   11   28     -2.96      0.00
   17   11   28     10.48      0.00
   19   11   28      7.29      0.00
   21   11   28     -1.73      0.00
   23   11   28     -0.84      0.00
   25   11   28     -3.27      0.00
   27   11   28      4.61      0.00
    0   12   28     -0.17      0.00
    2   12   28      6.20      0.00
    4   12   28      5.41      0.00
    6   12   28      4.14      0.00
    8   12   28     10.85      0.00
   10   12   28     -3.23      0.00
   12   12   28     -5.54      0.00
   14   12   28      7.36      0.00
   16   12   28     -0.06      0.00
   18   12   28     -8.18      0.00
   20   12   28     -8.24      0.00
   22   12   28     -4.38      0.00
   24   12   28      3.29      0.00
   26   12   28      4.57      0.00
    1   13   28    -10.31      0.00
    3   13   28      5.88      0.00
    5   13   28      6.20      0.00
    7   13   28     10.51      0.00
    9   13   28    -11.23      0.00
   11   13   28      8.03      0.00
   13   13   28      7.72      0.00
   15   13   28      4.52      0.00
   17   13   28    -14.81      0.00
   19   13   28     -5.61      0.00
   21   13   28      7.36      0.00
   23   13   28     -2.61      0.00
   25   13   28      4.04      0.00
    0   14   28     -8.86      0.00
    2   14   28     -0.79      0.00
    4   14   28     -3.77      0.00
    6   14   28     -2.36      0.00
    8   14   28     10.19      0.00
   10   14   28    -12.92      0.00
   12   14   28     -3.49      0.00
   14   14   28      7.08      0.00
   16   14   28      4.84      0.00
   18   14   28      9.94      0.00
   20   14   28     12.73      0.00
   22   14   28      1.23      0.00
   24   14   28    -16.19      0.00
    1   15   28      2.86      0.00
    3   15   28      1.28      0.00
    5   15   28     13.18      0.00
    7   15   28      1.69      0.00
    9   15   28      3.29      0.00
   11   15   28     12.00      0.00
   13   15   28      9.41      0.00
   15   15   28    -13.29      0.00
   17   15   28     -6.11      0.00
   19   15   28     -5.87      0.00
   21   15   28      8.90      0.00
   23   15   28      7.99      0.00
   25   15   28      2.80      0.00
    0   16   28    -10.31      0.00
    2   16   28      3.75      0.00
    4   16   28    -10.34      0.00
    6   16   28     -0.37      0.00
    8   16   28      6.56      0.00
   10   16   28      9.39      0.00
   12   16   28     -9.23      0.00
   14   16   28      9.32      0.00
   16   16   28      2.55      0.00
   18   16   28     -3.99      0.00
   20   16   28    -13.20      0.00
   22   16   28      2.76      0.00
   24   16   28     23.57      0.00
    1   17   28      9.80      0.00
    3   17   28      8.40      0.00
    5   17   28     10.50      0.00
    7   17   28     17.61      0.00
    9   17   28    -24.69      0.00
   11   17   28    -14.39      0.00
   13   17   28      1.08      0.00
   15   17   28     13.43      0.00
   17   17   28      1.83      0.00
   19   17   28     12.65      0.00
   21   17   28     -1.16      0.00
   23   17   28     -9.66      0.00
    0   18   28      6.54      0.00
    2   18   28     -0.26      0.00
    4   18   28     11.59      0.00
    6   18   28      0.42      0.00
    8   18   28     -5.21      0.00
   10   18   28      7.51      0.00
   12   18   28      0.46      0.00
   14   18   28     11.75      0.00
   16   18   28     -3.19      0.00
   18   18   28     -9.32      0.00
   20   18   28     13.78      0.00
    1   19   28      0.45      0.00
    3   19   28     -5.72      0.00
    5   19   28     -9.12      0.00
    7   19   28      1.04      0.00
    9   19   28      6.79      0.00
   11   19   28      2.74      0.00
   13   19   28     10.85      0.00
   15   19   28     -7.34      0.00
   17   19   28     -1.15      0.00
   19   19   28      3.69      0.00
    0   20   28     -4.15      0.00
    2   20   28      5.31      0.00
    4   20   28      6.97      0.00
    6   20   28     -2.18      0.00
    8   20   28     -0.80      0.00
   10   20   28     -5.98      0.00
   12   20   28      5.94      0.00
   14   20   28     -3.38      0.00
   16   20   28     -2.97      0.00
   18   20   28      8.08      0.00
    1   21   28     -6.01      0.00
    3   21   28      9.26      0.00
    5   21   28     -9.60      0.00
    7   21   28      0.32      0.00
    9   21   28     15.37      0.00
   11   21   28     -3.10      0.00
   13   21   28      5.43      0.00
   15   21   28     -8.84      0.00
   17   21   28    -10.40      0.00
   19   21   28      1.14      0.00
    0   22   28     -1.15      0.00
    2   22   28     -5.02      0.00
    4   22   28     11.20      0.00
    6   22   28     -6.85      0.00
    8   22   28     -5.69      0.00
   10   22   28      7.92      0.00
   12   22   28      8.37      0.00
   14   22   28    -13.95      0.00
   16   22   28      3.89      0.00
   18   22   28     -6.84      0.00
    1   23   28      6.10      0.00
    3   23   28      0.61      0.00
    5   23   28     12.58      0.00
    7   23   28     -9.34      0.00
    9   23   28    -15.59      0.00
   11   23   28      7.79      0.00
   13   23   28      7.02      0.00
   15   23   28     -6.88      0.00
   17   23   28     13.92      0.00
    0   24   28      5.29      0.00
    2   24   28      9.57      0.00
    4   24   28      8.32      0.00
    6   24   28      7.78      0.00
    8   24   28      3.24      0.00
   10   24   28     -8.58      0.00
   12   24   28     -7.98      0.00
   14   24   28     12.89      0.00
   16   24   28     -2.36      0.00
    1   25   28    -46.58      0.00
    3   25   28      6.12      0.00
    5   25   28      8.46      0.00
    7   25   28     19.93      0.00
    9   25   28     -0.05      0.00
   11   25   28      2.76      0.00
   13   25   28     -7.92      0.00
   15   25   28     -5.33      0.00
    0   26   28      8.00      0.00
    2   26   28     -0.03      0.00
    4   26   28     -5.19      0.00
    6   26   28      3.59      0.00
    8   26   28     -0.91      0.00
   10   26   28      3.50      0.00
   12   26   28      1.65      0.00
    1   27   28     12.60      0.00
    3   27   28      1.73      0.00
    5   27   28    -11.48      0.00
    7   27   28     -5.80      0.00
    9   27   28    -12.46      0.00
   11   27   28      4.27      0.00
    0   28   28     -0.48      0.00
    2   28   28      7.60      0.00
    4   28   28     -4.62      0.00
    6   28   28     -2.08      0.00
    8   28   28      4.00      0.00
    2    1   29     11.14      0.00
    4    1   29     -0.57      0.00
    6    1   29      3.14      0.00
    8    1   29      5.86      0.00
   10    1   29      1.02      0.00
   12    1   29     -5.58      0.00
   14    1   29      5.52      0.00
   16    1   29      8.62      0.00
   18    1   29     -2.39      0.00
   20    1   29      7.93      0.00
   22    1   29     -1.68      0.00
   24    1   29      9.09      0.00
   26    1   29     -9.82      0.00
    1    2   29     -6.27      0.00
    3    2   29    -13.11      0.00
    5    2   29     -5.14      0.00
    7    2   29     13.62      0.00
    9    2   29      4.81      0.00
   11    2   29     -5.04      0.00
   13    2   29      4.71      0.00
   15    2   29      6.80      0.00
   17    2   29    -13.47      0.00
   19    2   29     -2.58      0.00
   21    2   29     -0.70      0.00
   23    2   29    -10.71      0.00
   25    2   29     -2.48      0.00
   27    2   29      2.89      0.00
    2    3   29    -10.99      0.00
    4    3   29     -1.46      0.00
    6    3   29     -2.58      0.00
    8    3   29    -20.05      0.00
   10    3   29     -4.81      0.00
   12    3   29      6.24      0.00
   14    3   29     -1.08      0.00
   16    3   29      3.61      0.00
   18    3   29      3.58      0.00
   20    3   29     -1.75      0.00
   22    3   29     13.50      0.00
   24    3   29     -1.36      0.00
   26    3   29      5.98      0.00
    1    4   29     -0.17      0.00
    3    4   29      3.63      0.00
    5    4   29      2.68      0.00
    7    4   29     -7.04      0.00
    9    4   29      5.32      0.00
   11    4   29      1.16      0.00
   13    4   29     -8.73      0.00
   15    4   29     -8.09      0.00
   17    4   29    -19.97      0.00
   19    4   29     -4.28      0.00
   21    4   29     11.92      0.00
   23    4   29      6.15      0.00
   25    4   29     -6.00      0.00
   27    4   29      6.79      0.00
    2    5   29      5.03      0.00
    4    5   29      6.88      0.00
    6    5   29      8.36      0.00
    8    5   29      6.29      0.00
   10    5   29     -6.08      0.00
   12    5   29      0.35      0.00
   14    5   29    -15.80      0.00
   16    5   29      5.58      0.00
   18    5   29     -8.34      0.00
   20    5   29      2.72      0.00
   22    5   29      2.98      0.00
   24    5   29      1.53      0.00
   26    5   29     -4.88      0.00
    1    6   29     -2.97      0.00
    3    6   29     12.21      0.00
    5    6   29     11.45      0.00
    7    6   29      7.30      0.00
    9    6   29     -3.09      0.00
   11    6   29    -14.27      0.00
   13    6   29     -3.08      0.00
   15    6   29     -7.99      0.00
   17    6   29     -4.89      0.00
   19    6   29      3.61      0.00
   21    6   29      3.04      0.00
   23    6   29     -1.78      0.00
   25    6   29      1.53      0.00
   27    6   29      5.57      0.00
    2    7   29      4.22      0.00
    4    7   29      7.21      0.00
    6    7   29      4.55      0.00
    8    7   29     11.31      0.00
   10    7   29      6.30      0.00
   12    7   29     10.77      0.00
   14    7   29      1.17      0.00
   16    7   29    -19.19      0.00
   18    7   29      8.18      0.00
   20    7   29    -10.32      0.00
   22    7   29     -6.11      0.00
   24    7   29     -2.18      0.00
   26    7   29     10.34      0.00
    1    8   29     -4.28      0.00
    3    8   29     -2.06      0.00
    5    8   29     -0.74      0.00
    7    8   29     -4.36      0.00
    9    8   29     11.63      0.00
   11    8   29     13.38      0.00
   13    8   29    -12.00      0.00
   15    8   29      9.08      0.00
   17    8   29      6.74      0.00
   19    8   29     -5.50      0.00
   21    8   29     -5.35      0.00
   23    8   29      3.18      0.00
   25    8   29      5.23      0.00
   27    8   29      1.03      0.00
    2    9   29     -6.60      0.00
    4    9   29     -1.15      0.00
    6    9   29    -13.48      0.00
    8    9   29     -8.33      0.00
   10    9   29      3.98      0.00
   12    9   29    -15.07      0.00
   14    9   29     12.95      0.00
   16    9   29     -5.28      0.00
   18    9   29      7.32      0.00
   20    9   29      1.97      0.00
   22    9   29     -4.03      0.00
   24    9   29      0.73      0.00
   26    9   29     -2.84      0.00
    1   10   29     -5.08      0.00
    3   10   29      3.19      0.00
    5   10   29      6.38      0.00
    7   10   29      4.20      0.00
    9   10   29     -5.43      0.00
   11   10   29    -12.82      0.00
   13   10   29      8.47      0.00
   15   10   29    -13.06      0.00
   17   10   29      1.42      0.00
   19   10   29     -3.52      0.00
   21   10   29     -1.05      0.00
   23   10   29     -0.51      0.00
   25   10   29     -1.22      0.00
    2   11   29      4.73      0.00
    4   11   29     -1.40      0.00
    6   11   29      9.54      0.00
    8   11   29      3.75      0.00
   10   11   29     -3.89      0.00
   12   11   29     -3.02      0.00
   14   11   29    -10.00      0.00
   16   11   29      6.11      0.00
   18   11   29     -7.41      0.00
   20   11   29    -11.79      0.00
   22   11   29      6.93      0.00
   24   11   29     -6.16      0.00
   26   11   29     11.90      0.00
    1   12   29     11.24      0.00
    3   12   29     -6.47      0.00
    5   12   29     -1.88      0.00
    7   12   29     -5.36      0.00
    9   12   29     12.60      0.00
   11   12   29      9.40      0.00
   13   12   29     -8.02      0.00
   15   12   29     -6.40      0.00
   17   12   29     -8.86      0.00
   19   12   29      2.83      0.00
   21   12   29     -4.10      0.00
   23   12   29      2.77      0.00
   25   12   29     -2.71      0.00
    2   13   29     10.52      0.00
    4   13   29      9.98      0.00
    6   13   29     -2.98      0.00
    8   13   29     15.03      0.00
   10   13   29     -2.58      0.00
   12   13   29     13.58      0.00
   14   13   29      9.28      0.00
   16   13   29     -7.93      0.00
   18   13   29      3.60      0.00
   20   13   29      4.55      0.00
   22   13   29    -11.31      0.00
   24   13   29      5.41      0.00
    1   14   29     -5.03      0.00
    3   14   29     10.26      0.00
    5   14   29     -1.24      0.00
    7   14   29     -0.64      0.00
    9   14   29     -5.77      0.00
   11   14   29      9.10      0.00
   13   14   29     -1.22      0.00
   15   14   29      1.43      0.00
   17   14   29     15.86      0.00
   19   14   29      3.18      0.00
   21   14   29      6.06      0.00
   23   14   29     -1.55      0.00
    2   15   29     -1.06      0.00
    4   15   29    -14.53      0.00
    6   15   29      4.79      0.00
    8   15   29     -4.41      0.00
   10   15   29     -3.48      0.00
   12   15   29      4.82      0.00
   14   15   29      6.02      0.00
   16   15   29     -5.40      0.00
   18   15   29      4.44      0.00
   20   15   29      3.25      0.00
   22   15   29      5.84      0.00
    1   16   29     -3.79      0.00
    3   16   29     -7.56      0.00
    5   16   29      0.30      0.00
    7   16   29      0.83      0.00
    9   16   29     -5.80      0.00
   11   16   29     19.44      0.00
   13   16   29     -6.35      0.00
   15   16   29     -3.75      0.00
   17   16   29      3.70      0.00
   19   16   29      4.63      0.00
   21   16   29     -7.39      0.00
    2   17   29     -0.90      0.00
    4   17   29     14.00      0.00
    6   17   29    -11.44      0.00
    8   17   29      6.75      0.00
   10   17   29     -7.24      0.00
   12   17   29     -5.25      0.00
   14   17   29     -1.99      0.00
   16   17   29      4.01      0.00
   18   17   29      1.07      0.00
   20   17   29      4.62      0.00
    1   18   29     -6.77      0.00
    3   18   29     -5.65      0.00
    5   18   29      6.86      0.00
    7   18   29     -7.36      0.00
    9   18   29    -20.61      0.00
   11   18   29      3.26      0.00
   13   18   29      0.52      0.00
   15   18   29      0.75      0.00
   17   18   29     -3.41      0.00
   19   18   29      4.59      0.00
    2   19   29     -4.87      0.00
    4   19   29      6.43      0.00
    6   19   29      3.88      0.00
    8   19   29     -3.05      0.00
   10   19   29     10.35      0.00
   12   19   29      5.52      0.00
   14   19   29     -2.10      0.00
   16   19   29     -0.52      0.00
   18   19   29      2.29      0.00
    1   20   29     -1.94      0.00
    3   20   29      2.15      0.00
    5   20   29     -4.04      0.00
    7   20   29      2.26      0.00
    9   20   29      7.52      0.00
   11   20   29      0.59      0.00
   13   20   29      5.97      0.00
   15   20   29     -8.26      0.00
   17   20   29      6.76      0.00
    2   21   29      6.90      0.00
    4   21   29    -13.68      0.00
    6   21   29     -4.18      0.00
    8   21   29     -0.99      0.00
   10   21   29     -3.81      0.00
   12   21   29      6.18      0.00
   14   21   29      1.23      0.00
   16   21   29      6.00      0.00
   18   21   29     -1.03      0.00
    1   22   29      4.78      0.00
    3   22   29     -0.08      0.00
    5   22   29     10.32      0.00
    7   22   29      4.66      0.00
    9   22   29      7.41      0.00
   11   22   29     -7.18      0.00
   13   22   29    -17.10      0.00
   15   22   29      1.53      0.00
   17   22   29      6.51      0.00
    2   23   29     -0.16      0.00
    4   23   29      0.29      0.00
    6   23   29      8.10      0.00
    8   23   29     -1.85      0.00
   10   23   29     -1.15      0.00
   12   23   29     -2.55      0.00
   14   23   29    -22.96      0.00
   16   23   29     -4.27      0.00
    1   24   29     10.78      0.00
    3   24   29     22.16      0.00
    5   24   29     -5.71      0.00
    7   24   29    -13.95      0.00
    9   24   29      0.59      0.00
   11   24   29     -3.67      0.00
   13   24   29     -3.59      0.00
   15   24   29      5.87      0.00
    2   25   29      5.66      0.00
    4   25   29     -2.34      0.00
    6   25   29    -22.69      0.00
    8   25   29     -2.35      0.00
   10   25   29      4.14      0.00
   12   25   29      6.05      0.00
    1   26   29      8.17      0.00
    3   26   29      3.52      0.00
    5   26   29      6.24      0.00
    7   26   29      0.11      0.00
    9   26   29     -1.42      0.00
   11   26   29      7.72      0.00
    2   27   29     -0.84      0.00
    4   27   29     -2.83      0.00
    6   27   29      0.12      0.00
    8   27   29     -8.45      0.00
    0    0   30    -17.74      0.00
    2    0   30    -11.90      0.00
    4    0   30     -1.75      0.00
    6    0   30      0.04      0.00
    8    0   30     18.52      0.00
   10    0   30     -2.92      0.00
   12    0   30     -6.10      0.00
   14    0   30      1.02      0.00
   16    0   30      7.56      0.00
   18    0   30     -4.40      0.00
   20    0   30      2.81      0.00
   22    0   30      0.62      0.00
   24    0   30     -9.31      0.00
   26    0   30      1.05      0.00
    1    1   30     -1.67      0.00
    3    1   30    -16.04      0.00
    5    1   30     10.93      0.00
    7    1   30     27.44      0.00
    9    1   30    -23.67      0.00
   11    1   30     -3.19      0.00
   13    1   30      9.65      0.00
   15    1   30      0.45      0.00
   17    1   30     -6.75      0.00
   19    1   30     11.40      0.00
   21    1   30      2.85      0.00
   23    1   30      2.74      0.00
   25    1   30     -4.24      0.00
    0    2   30      5.19      0.00
    2    2   30      6.11      0.00
    4    2   30      0.82      0.00
    6    2   30     -9.18      0.00
    8    2   30    -10.44      0.00
   10    2   30     11.79      0.00
   12    2   30      7.14      0.00
   14    2   30     -1.47      0.00
   16    2   30      6.84      0.00
   18    2   30      2.58      0.00
   20    2   30     -0.09      0.00
   22    2   30      3.57      0.00
   24    2   30     -2.75      0.00
   26    2   30      5.22      0.00
    1    3   30     -6.51      0.00
    3    3   30      8.76      0.00
    5    3   30     -1.66      0.00
    7    3   30     16.42      0.00
    9    3   30     15.60      0.00
   11    3   30     -5.77      0.00
   13    3   30     -0.68      0.00
   15    3   30    -30.82      0.00
   17    3   30      8.64      0.00
   19    3   30     11.35      0.00
   21    3   30      1.40      0.00
   23    3   30      2.78      0.00
   25    3   30      5.46      0.00
    0    4   30     32.50      0.00
    2    4   30     12.77      0.00
    4    4   30      7.82      0.00
    6    4   30     -8.58      0.00
    8    4   30     -7.15      0.00
   10    4   30     -2.71      0.00
   12    4   30     -1.80      0.00
   14    4   30    -10.87      0.00
   16    4   30     13.53      0.00
   18    4   30     -5.65      0.00
   20    4   30      2.30      0.00
   22    4   30      2.89      0.00
   24    4   30      4.06      0.00
   26    4   30      5.11      0.00
    1    5   30      5.46      0.00
    3    5   30     12.34      0.00
    5    5   30      4.67      0.00
    7    5   30     -8.27      0.00
    9    5   30    -12.73      0.00
   11    5   30     -9.39      0.00
   13    5   30    -14.61      0.00
   15    5   30      9.11      0.00
   17    5   30     -8.58      0.00
   19    5   30      8.02      0.00
   21    5   30    -11.34      0.00
   23    5   30    -15.35      0.00
   25    5   30      7.74      0.00
    0    6   30    -19.92      0.00
    2    6   30     -0.70      0.00
    4    6   30     -2.08      0.00
    6    6   30      3.54      0.00
    8    6   30      0.98      0.00
   10    6   30     12.01      0.00
   12    6   30     -6.48      0.00
   14    6   30     -5.74      0.00
   16    6   30     -5.77      0.00
   18    6   30     10.55      0.00
   20    6   30     -1.54      0.00
   22    6   30     -8.17      0.00
   24    6   30      0.26      0.00
   26    6   30      3.38      0.00
    1    7   30     -3.05      0.00
    3    7   30      0.90      0.00
    5    7   30    -11.60      0.00
    7    7   30    -16.25      0.00
    9    7   30     -3.74      0.00
   11    7   30      5.47      0.00
   13    7   30     -6.62      0.00
   15    7   30     16.43      0.00
   17    7   30    -12.27      0.00
   19    7   30      5.16      0.00
   21    7   30      2.31      0.00
   23    7   30      0.35      0.00
   25    7   30     -6.75      0.00
    0    8   30     -3.55      0.00
    2    8   30      2.41      0.00
    4    8   30     -5.01      0.00
    6    8   30      0.50      0.00
    8    8   30      9.20      0.00
   10    8   30    -15.25      0.00
   12    8   30      4.54      0.00
   14    8   30     17.84      0.00
   16    8   30     -4.38      0.00
   18    8   30      1.51      0.00
   20    8   30     -1.16      0.00
   22    8   30      5.16      0.00
   24    8   30      4.05      0.00
   26    8   30    -13.85      0.00
    1    9   30     -4.43      0.00
    3    9   30      1.43      0.00
    5    9   30      6.49      0.00
    7    9   30     -3.49      0.00
    9    9   30     12.06      0.00
   11    9   30      1.73      0.00
   13    9   30    -11.82      0.00
   15    9   30     -6.52      0.00
   17    9   30      0.31      0.00
   19    9   30     -2.19      0.00
   21    9   30     -3.81      0.00
   23    9   30      7.19      0.00
   25    9   30      0.87      0.00
    0   10   30     17.19      0.00
    2   10   30      4.83      0.00
    4   10   30     -5.67      0.00
    6   10   30      3.29      0.00
    8   10   30      5.72      0.00
   10   10   30     -8.39      0.00
   12   10   30    -14.97      0.00
   14   10   30      1.97      0.00
   16   10   30      0.89      0.00
   18   10   30     -2.00      0.00
   20   10   30      7.09      0.00
   22   10   30     -9.56      0.00
   24   10   30      3.17      0.00
    1   11   30      6.35      0.00
    3   11   30      5.72      0.00
    5   11   30      8.24      0.00
    7   11   30      4.65      0.00
    9   11   30     -3.56      0.00
   11   11   30      0.69      0.00
   13   11   30      1.58      0.00
   15   11   30    -20.19      0.00
   17   11   30     -2.49      0.00
   19   11   30     -5.32      0.00
   21   11   30      3.53      0.00
   23   11   30     -8.23      0.00
   25   11   30     12.23      0.00
    0   12   30      1.22      0.00
    2   12   30     -3.34      0.00
    4   12   30      4.19      0.00
    6   12   30      3.14      0.00
    8   12   30     -4.58      0.00
   10   12   30     -3.18      0.00
   12   12   30      7.64      0.00
   14   12   30     -9.76      0.00
   16   12   30      2.83      0.00
   18   12   30      0.39      0.00
   20   12   30     -8.95      0.00
   22   12   30      4.40      0.00
   24   12   30      1.71      0.00
    1   13   30     -0.44      0.00
    3   13   30    -11.75      0.00
    5   13   30      0.16      0.00
    7   13   30      2.02      0.00
    9   13   30     10.05      0.00
   11   13   30     -4.08      0.00
   13   13   30     -6.43      0.00
   15   13   30     13.11      0.00
   17   13   30      4.81      0.00
   19   13   30      6.04      0.00
   21   13   30     13.83      0.00
   23   13   30    -12.02      0.00
    0   14   30     12.94      0.00
    2   14   30     -8.33      0.00
    4   14   30     -8.53      0.00
    6   14   30      9.90      0.00
    8   14   30     -1.00      0.00
   10   14   30      5.01      0.00
   12   14   30     27.47      0.00
   14   14   30     -6.59      0.00
   16   14   30     -7.04      0.00
   18   14   30      1.12      0.00
   20   14   30     -3.35      0.00
   22   14   30      9.81      0.00
    1   15   30     -2.94      0.00
    3   15   30      4.10      0.00
    5   15   30      3.48      0.00
    7   15   30     14.16      0.00
    9   15   30     -3.65      0.00
   11   15   30      0.48      0.00
   13   15   30      9.82      0.00
   15   15   30      3.78      0.00
   17   15   30      9.90      0.00
   19   15   30    -12.75      0.00
   21   15   30    -17.59      0.00
    0   16   30      5.32      0.00
    2   16   30      6.52      0.00
    4   16   30      2.15      0.00
    6   16   30     -2.96      0.00
    8   16   30      1.88      0.00
   10   16   30     -7.63      0.00
   12   16   30    -16.10      0.00
   14   16   30      3.21      0.00
   16   16   30     17.01      0.00
   18   16   30     -2.61      0.00
   20   16   30      0.88      0.00
    1   17   30      1.58      0.00
    3   17   30      2.42      0.00
    5   17   30     13.00      0.00
    7   17   30     -5.99      0.00
    9   17   30      9.06      0.00
   11   17   30      6.90      0.00
   13   17   30      6.13      0.00
   15   17   30     -2.40      0.00
   17   17   30      5.21      0.00
   19   17   30    -10.20      0.00
    0   18   30     -0.86      0.00
    2   18   30      0.09      0.00
    4   18   30     -3.95      0.00
    6   18   30     -2.36      0.00
    8   18   30     -0.95      0.00
   10   18   30     -2.44      0.00
   12   18   30      3.41      0.00
   14   18   30     -5.86      0.00
   16   18   30      1.53      0.00
   18   18   30     -0.65      0.00
    1   19   30     -4.06      0.00
    3   19   30     12.62      0.00
    5   19   30    -29.58      0.00
    7   19   30     15.21      0.00
    9   19   30     14.70      0.00
   11   19   30     -6.73      0.00
   13   19   30     -8.91      0.00
   15   19   30     -0.50      0.00
   17   19   30      0.26      0.00
    0   20   30     -9.01      0.00
    2   20   30      7.31      0.00
    4   20   30     -0.47      0.00
    6   20   30     11.63      0.00
    8   20   30     -4.31      0.00
   10   20   30     17.52      0.00
   12   20   30    -11.84      0.00
   14   20   30      6.88      0.00
   16   20   30     -3.57      0.00
    1   21   30     -5.65      0.00
    3   21   30      3.04      0.00
    5   21   30      9.32      0.00
    7   21   30     -2.86      0.00
    9   21   30    -11.16      0.00
   11   21   30      2.78      0.00
   13   21   30      2.08      0.00
   15   21   30      6.20      0.00
    0   22   30     11.72      0.00
    2   22   30      6.64      0.00
    4   22   30      1.82      0.00
    6   22   30     -3.59      0.00
    8   22   30     -4.28      0.00
   10   22   30      1.49      0.00
   12   22   30     -4.17      0.00
   14   22   30      1.39      0.00
    1   23   30     -0.55      0.00
    3   23   30      6.02      0.00
    5   23   30      0.54      0.00
    7   23   30      5.56      0.00
    9   23   30     -6.33      0.00
   11   23   30     -0.24      0.00
   13   23   30      4.91      0.00
    0   24   30    -18.18      0.00
    2   24   30     -5.42      0.00
    4   24   30     -1.65      0.00
    6   24   30      2.58      0.00
    8   24   30     13.80      0.00
   10   24   30      4.53      0.00
   12   24   30     -8.80      0.00
    1   25   30      7.36      0.00
    3   25   30    -10.85      0.00
    5   25   30      0.52      0.00
    7   25   30    -20.86      0.00
    9   25   30      7.94      0.00
   11   25   30     14.99      0.00
    2   26   30     12.80      0.00
    4   26   30     -5.51      0.00
    6   26   30    -11.43      0.00
    8   26   30      2.44      0.00
    2    1   31      4.28      0.00
    4    1   31     -6.32      0.00
    6    1   31      2.49      0.00
    8    1   31     14.82      0.00
   10    1   31    -17.89      0.00
   12    1   31      0.65      0.00
   14    1   31     14.78      0.00
   16    1   31      6.48      0.00
   18    1   31      9.61      0.00
   20    1   31     -3.24      0.00
   22    1   31     -0.15      0.00
   24    1   31      4.18      0.00
    1    2   31     -0.01      0.00
    3    2   31     -6.61      0.00
    5    2   31     -5.84      0.00
    7    2   31     -6.70      0.00
    9    2   31    -21.43      0.00
   11    2   31     -4.09      0.00
   13    2   31      3.60      0.00
   15    2   31    -18.61      0.00
   17    2   31     15.83      0.00
   19    2   31      2.41      0.00
   21    2   31      6.63      0.00
   23    2   31      9.00      0.00
   25    2   31     10.61      0.00
    2    3   31     -9.26      0.00
    4    3   31      3.78      0.00
    6    3   31      0.78      0.00
    8    3   31     -4.06      0.00
   10    3   31     20.42      0.00
   12    3   31      7.63      0.00
   14    3   31     -4.57      0.00
   16    3   31      0.97      0.00
   18    3   31     -2.76      0.00
   20    3   31     16.15      0.00
   22    3   31      3.06      0.00
   24    3   31     -4.68      0.00
    1    4   31      5.06      0.00
    3    4   31      3.58      0.00
    5    4   31      3.18      0.00
    7    4   31      0.71      0.00
    9    4   31     -0.01      0.00
   11    4   31     -7.02      0.00
   13    4   31    -19.62      0.00
   15    4   31     16.64      0.00
   17    4   31      2.67      0.00
   19    4   31      1.41      0.00
   21    4   31     -7.01      0.00
   23    4   31     -0.45      0.00
   25    4   31      5.55      0.00
    2    5   31     -0.57      0.00
    4    5   31     -9.68      0.00
    6    5   31      0.80      0.00
    8    5   31      6.23      0.00
   10    5   31    -10.81      0.00
   12    5   31      3.16      0.00
   14    5   31      1.71      0.00
   16    5   31     13.39      0.00
   18    5   31     -3.80      0.00
   20    5   31     -0.29      0.00
   22    5   31      6.73      0.00
   24    5   31      5.19      0.00
    1    6   31     -8.20      0.00
    3    6   31      7.40      0.00
    5    6   31     -7.99      0.00
    7    6   31     -1.65      0.00
    9    6   31      6.14      0.00
   11    6   31      1.00      0.00
   13    6   31     12.08      0.00
   15    6   31      1.74      0.00
   17    6   31     -6.13      0.00
   19    6   31     -1.77      0.00
   21    6   31     -9.52      0.00
   23    6   31      4.08      0.00
   25    6   31      4.07      0.00
    2    7   31     -2.66      0.00
    4    7   31      4.14      0.00
    6    7   31      6.27      0.00
    8    7   31    -19.41      0.00
   10    7   31      3.67      0.00
   12    7   31     -4.13      0.00
   14    7   31      2.06      0.00
   16    7   31      0.25      0.00
   18    7   31      1.43      0.00
   20    7   31      1.28      0.00
   22    7   31     -7.95      0.00
   24    7   31      3.99      0.00
    1    8   31     -1.46      0.00
    3    8   31     -9.20      0.00
    5    8   31    -14.74      0.00
    7    8   31      4.83      0.00
    9    8   31      5.31      0.00
   11    8   31    -23.27      0.00
   13    8   31     -6.46      0.00
   15    8   31      0.27      0.00
   17    8   31     -1.67      0.00
   19    8   31      0.76      0.00
   21    8   31      8.94      0.00
   23    8   31      1.85      0.00
   25    8   31      2.32      0.00
    2    9   31     -1.17      0.00
    4    9   31      6.46      0.00
    6    9   31     11.77      0.00
    8    9   31      3.27      0.00
   10    9   31    -23.62      0.00
   12    9   31     -2.82      0.00
   14    9   31     12.12      0.00
   16    9   31    -29.07      0.00
   18    9   31     -0.06      0.00
   20    9   31     -3.11      0.00
   22    9   31      6.20      0.00
   24    9   31     -2.49      0.00
    1   10   31      8.23      0.00
    3   10   31     -4.34      0.00
    5   10   31      9.00      0.00
    7   10   31      2.59      0.00
    9   10   31     -8.49      0.00
   11   10   31     11.22      0.00
   13   10   31     -2.41      0.00
   15   10   31    -18.58      0.00
   17   10   31      9.02      0.00
   19   10   31      0.25      0.00
   21   10   31    -15.71      0.00
   23   10   31      8.18      0.00
    2   11   31     -0.82      0.00
    4   11   31      7.71      0.00
    6   11   31     -6.55      0.00
    8   11   31      0.49      0.00
   10   11   31     16.43      0.00
   12   11   31      2.91      0.00
   14   11   31     -8.61      0.00
   16   11   31      4.75      0.00
   18   11   31     -1.10      0.00
   20   11   31     -4.13      0.00
   22   11   31      6.42      0.00
    1   12   31     -2.13      0.00
    3   12   31     12.66      0.00
    5   12   31      7.74      0.00
    7   12   31      7.10      0.00
    9   12   31      3.61      0.00
   11   12   31     -5.27      0.00
   13   12   31     15.84      0.00
   15   12   31     10.89      0.00
   17   12   31    -14.48      0.00
   19   12   31      5.12      0.00
   21   12   31      2.59      0.00
   23   12   31     -7.41      0.00
    2   13   31      3.23      0.00
    4   13   31      7.07      0.00
    6   13   31      0.72      0.00
    8   13   31     -0.62      0.00
   10   13   31     10.44      0.00
   12   13   31    -15.78      0.00
   14   13   31      0.09      0.00
   16   13   31      8.68      0.00
   18   13   31     -0.86      0.00
   20   13   31      4.43      0.00
   22   13   31     -0.78      0.00
    1   14   31      1.78      0.00
    3   14   31     -6.54      0.00
    5   14   31     -4.01      0.00
    7   14   31     -5.93      0.00
    9   14   31     -9.98      0.00
   11   14   31      8.88      0.00
   13   14   31     -7.18      0.00
   15   14   31      0.78      0.00
   17   14   31      2.26      0.00
   19   14   31    -13.34      0.00
   21   14   31      1.88      0.00
    2   15   31     -3.43      0.00
    4   15   31     -1.31      0.00
    6   15   31     -1.75      0.00
    8   15   31      3.00      0.00
   10   15   31     11.38      0.00
   12   15   31     -3.94      0.00
   14   15   31     -4.21      0.00
   16   15   31     -3.08      0.00
   18   15   31     -6.55      0.00
   20   15   31      3.60      0.00
    1   16   31      1.67      0.00
    3   16   31      8.17      0.00
    5   16   31     -4.01      0.00
    7   16   31    -14.10      0.00
    9   16   31      7.87      0.00
   11   16   31      6.23      0.00
   13   16   31     -8.14      0.00
   15   16   31     -0.67      0.00
   17   16   31     -4.46      0.00
   19   16   31     -5.06      0.00
    2   17   31     -6.22      0.00
    4   17   31     -1.83      0.00
    6   17   31      7.63      0.00
    8   17   31     -4.33      0.00
   10   17   31     -0.34      0.00
   12   17   31      3.43      0.00
   14   17   31      5.66      0.00
   16   17   31      6.97      0.00
   18   17   31     -0.74      0.00
    1   18   31      3.57      0.00
    3   18   31     10.01      0.00
    5   18   31      3.71      0.00
    7   18   31     23.27      0.00
    9   18   31    -13.88      0.00
   11   18   31      1.02      0.00
   13   18   31      4.96      0.00
   15   18   31     -6.86      0.00
   17   18   31      0.75      0.00
    2   19   31     -0.92      0.00
    4   19   31     -2.17      0.00
    6   19   31     -6.37      0.00
    8   19   31      2.85      0.00
   10   19   31     -2.78      0.00
   12   19   31      5.81      0.00
   14   19   31      0.60      0.00
   16   19   31      7.55      0.00
    1   20   31      4.92      0.00
    3   20   31     -7.96      0.00
    5   20   31      6.67      0.00
    7   20   31     -1.40      0.00
    9   20   31     -3.74      0.00
   11   20   31    -10.47      0.00
   13   20   31      2.14      0.00
   15   20   31     13.66      0.00
    2   21   31     -0.74      0.00
    4   21   31     -6.50      0.00
    6   21   31      6.47      0.00
    8   21   31      1.92      0.00
   10   21   31    -16.69      0.00
   12   21   31     -5.44      0.00
   14   21   31      8.53      0.00
    1   22   31     -0.75      0.00
    3   22   31      3.97      0.00
    5   22   31      4.81      0.00
    7   22   31     -6.40      0.00
    9   22   31      4.09      0.00
   11   22   31      9.87      0.00
   13   22   31     -8.55      0.00
    2   23   31      0.87      0.00
    4   23   31    -12.71      0.00
    6   23   31      1.11      0.00
    8   23   31      1.29      0.00
   10   23   31      3.53      0.00
   12   23   31      1.07      0.00
    1   24   31      7.06      0.00
    3   24   31     -5.46      0.00
    5   24   31     -1.26      0.00
    7   24   31     -2.88      0.00
    9   24   31      7.10      0.00
   11   24   31     -5.61      0.00
    2   25   31     -5.72      0.00
    4   25   31     -6.41      0.00
    6   25   31      7.02      0.00
    8   25   31      0.13      0.00
    0    0   32     10.23      0.00
    2    0   32     -3.69      0.00
    4    0   32     -4.56      0.00
    6    0   32     12.81      0.00
    8    0   32     -4.67      0.00
   10    0   32      3.70      0.00
   12    0   32      0.78      0.00
   14    0   32     21.49      0.00
   16    0   32     -2.59      0.00
   18    0   32     -9.19      0.00
   20    0   32      3.57      0.00
   22    0   32     11.35      0.00
    1    1   32      8.67      0.00
    3    1   32     -9.56      0.00
    5    1   32      3.91      0.00
    7    1   32      4.56      0.00
    9    1   32     -8.62      0.00
   11    1   32     15.56      0.00
   13    1   32      0.03      0.00
   15    1   32      4.73      0.00
   17    1   32      5.11      0.00
   19    1   32     -3.99      0.00
   21    1   32      4.93      0.00
   23    1   32     -3.60      0.00
    0    2   32     -4.69      0.00
    2    2   32      4.41      0.00
    4    2   32      6.64      0.00
    6    2   32     -0.21      0.00
    8    2   32      1.92      0.00
   10    2   32      9.22      0.00
   12    2   32     15.86      0.00
   14    2   32    -12.55      0.00
   16    2   32      0.32      0.00
   18    2   32     -0.20      0.00
   20    2   32     -3.06      0.00
   22    2   32     -2.37      0.00
   24    2   32     -2.03      0.00
    1    3   32      2.42      0.00
    3    3   32     -4.89      0.00
    5    3   32      7.84      0.00
    7    3   32     -0.92      0.00
    9    3   32    -12.55      0.00
   11    3   32     -0.40      0.00
   13    3   32      4.27      0.00
   15    3   32      5.91      0.00
   17    3   32     15.28      0.00
   19    3   32    -18.47      0.00
   21    3   32      4.46      0.00
   23    3   32      4.80      0.00
    0    4   32      6.33      0.00
    2    4   32     -5.30      0.00
    4    4   32     -3.43      0.00
    6    4   32      4.04      0.00
    8    4   32     -8.37      0.00
   10    4   32     -2.99      0.00
   12    4   32     -1.98      0.00
   14    4   32     11.50      0.00
   16    4   32      7.47      0.00
   18    4   32     -8.46      0.00
   20    4   32    -10.80      0.00
   22    4   32    -10.68      0.00
   24    4   32     -1.26      0.00
    1    5   32    -18.92      0.00
    3    5   32     -3.44      0.00
    5    5   32    -10.48      0.00
    7    5   32     -0.76      0.00
    9    5   32     -4.48      0.00
   11    5   32     11.69      0.00
   13    5   32      2.74      0.00
   15    5   32     -1.11      0.00
   17    5   32      2.23      0.00
   19    5   32     -3.06      0.00
   21    5   32      4.70      0.00
   23    5   32      0.50      0.00
    0    6   32      0.35      0.00
    2    6   32     -7.22      0.00
    4    6   32     -1.20      0.00
    6    6   32    -17.13      0.00
    8    6   32      4.16      0.00
   10    6   32     -2.28      0.00
   12    6   32      1.18      0.00
   14    6   32      7.62      0.00
   16    6   32     -8.77      0.00
   18    6   32     18.05      0.00
   20    6   32     -0.06      0.00
   22    6   32      6.05      0.00
   24    6   32      0.77      0.00
    1    7   32     -0.95      0.00
    3    7   32      1.33      0.00
    5    7   32      0.44      0.00
    7    7   32      5.21      0.00
    9    7   32     -0.61      0.00
   11    7   32     -0.54      0.00
   13    7   32    -10.99      0.00
   15    7   32      2.59      0.00
   17    7   32     -2.57      0.00
   19    7   32     -3.50      0.00
   21    7   32      7.73      0.00
   23    7   32      1.78      0.00
    0    8   32    -11.48      0.00
    2    8   32     17.77      0.00
    4    8   32      2.44      0.00
    6    8   32     -1.49      0.00
    8    8   32     -2.71      0.00
   10    8   32     -6.72      0.00
   12    8   32      1.19      0.00
   14    8   32     -8.47      0.00
   16    8   32     -1.11      0.00
   18    8   32      1.10      0.00
   20    8   32      7.57      0.00
   22    8   32      1.58      0.00
    1    9   32      3.40      0.00
    3    9   32     11.02      0.00
    5    9   32      1.59      0.00
    7    9   32    -12.67      0.00
    9    9   32      0.17      0.00
   11    9   32     -6.60      0.00
   13    9   32    -11.26      0.00
   15    9   32    -15.70      0.00
   17    9   32     10.00      0.00
   19    9   32     -0.16      0.00
   21    9   32     -9.53      0.00
   23    9   32      1.62      0.00
    0   10   32      9.58      0.00
    2   10   32      8.96      0.00
    4   10   32      3.59      0.00
    6   10   32      2.11      0.00
    8   10   32    -11.19      0.00
   10   10   32     -6.10      0.00
   12   10   32      2.54      0.00
   14   10   32     -8.23      0.00
   16   10   32      4.18      0.00
   18   10   32      3.42      0.00
   20   10   32      1.12      0.00
   22   10   32      0.13      0.00
    1   11   32     -9.80      0.00
    3   11   32      1.94      0.00
    5   11   32     -3.48      0.00
    7   11   32     -7.24      0.00
    9   11   32     -1.93      0.00
   11   11   32     11.97      0.00
   13   11   32     -3.30      0.00
   15   11   32     -6.69      0.00
   17   11   32      2.04      0.00
   19   11   32      4.67      0.00
   21   11   32      1.89      0.00
    0   12   32    -11.53      0.00
    2   12   32     -4.43      0.00
    4   12   32      4.22      0.00
    6   12   32    -17.07      0.00
    8   12   32      1.78      0.00
   10   12   32     10.80      0.00
   12   12   32    -14.05      0.00
   14   12   32      3.55      0.00
   16   12   32      9.25      0.00
   18   12   32     -0.74      0.00
   20   12   32      2.80      0.00
    1   13   32      1.12      0.00
    3   13   32     -0.06      0.00
    5   13   32     -6.04      0.00
    7   13   32      8.08      0.00
    9   13   32      4.58      0.00
   11   13   32     17.48      0.00
   13   13   32      7.48      0.00
   15   13   32     -5.84      0.00
   17   13   32     -7.89      0.00
   19   13   32      1.38      0.00
   21   13   32      6.44      0.00
    0   14   32      5.25      0.00
    2   14   32      4.50      0.00
    4   14   32      2.63      0.00
    6   14   32      3.22      0.00
    8   14   32     -2.98      0.00
   10   14   32    -12.98      0.00
   12   14   32     -5.82      0.00
   14   14   32     -2.21      0.00
   16   14   32     -7.14      0.00
   18   14   32      8.01      0.00
   20   14   32      0.04      0.00
    1   15   32     18.00      0.00
    3   15   32     -0.97      0.00
    5   15   32     -7.82      0.00
    7   15   32      9.06      0.00
    9   15   32     22.83      0.00
   11   15   32    -20.51      0.00
   13   15   32    -13.90      0.00
   15   15   32      2.78      0.00
   17   15   32      0.10      0.00
   19   15   32      9.97      0.00
    0   16   32     14.95      0.00
    2   16   32      1.01      0.00
    4   16   32      2.41      0.00
    6   16   32     -0.01      0.00
    8   16   32      6.71      0.00
   10   16   32     -5.06      0.00
   12   16   32     -2.55      0.00
   14   16   32      2.35      0.00
   16   16   32     -6.28      0.00
   18   16   32     -4.46      0.00
    1   17   32      4.63      0.00
    3   17   32     -7.66      0.00
    5   17   32      4.06      0.00
    7   17   32     -1.99      0.00
    9   17   32     -3.11      0.00
   11   17   32      2.60      0.00
   13   17   32      4.34      0.00
   15   17   32     -4.06      0.00
   17   17   32      4.59      0.00
    0   18   32     -7.31      0.00
    2   18   32      0.27      0.00
    4   18   32     -7.75      0.00
    6   18   32      8.57      0.00
    8   18   32     -1.48      0.00
   10   18   32      9.42      0.00
   12   18   32     -7.50      0.00
   14   18   32      7.10      0.00
   16   18   32     -4.22      0.00
    1   19   32      1.54      0.00
    3   19   32     -5.01      0.00
    5   19   32     11.10      0.00
    7   19   32    -14.26      0.00
    9   19   32      7.34      0.00
   11   19   32     13.09      0.00
   13   19   32      1.11      0.00
   15   19   32     12.98      0.00
    0   20   32     -1.74      0.00
    2   20   32    -11.49      0.00
    4   20   32      3.36      0.00
    6   20   32     10.85      0.00
    8   20   32      1.24      0.00
   10   20   32    -14.78      0.00
   12   20   32     16.34      0.00
   14   20   32     -7.75      0.00
    1   21   32      5.57      0.00
    3   21   32      8.41      0.00
    5   21   32     -7.26      0.00
    7   21   32      0.57      0.00
    9   21   32     -3.53      0.00
   11   21   32     -2.63      0.00
   13   21   32      3.95      0.00
    0   22   32     -1.39      0.00
    2   22   32     -0.14      0.00
    4   22   32     -2.66      0.00
    6   22   32      4.93      0.00
    8   22   32      5.21      0.00
   10   22   32     -6.00      0.00
   12   22   32      7.62      0.00
    1   23   32     -2.09      0.00
    3   23   32     -5.17      0.00
    5   23   32      5.29      0.00
    7   23   32      4.19      0.00
    9   23   32      5.13      0.00
    4   24   32      3.49      0.00
    6   24   32     -3.84      0.00
    2    1   33      6.12      0.00
    4    1   33     -4.31      0.00
    6    1   33      3.54      0.00
    8    1   33     16.98      0.00
   10    1   33     -1.04      0.00
   12    1   33     -0.27      0.00
   14    1   33     -3.39      0.00
   16    1   33    -12.13      0.00
   18    1   33     11.11      0.00
   20    1   33      3.86      0.00
   22    1   33      3.58      0.00
    1    2   33      1.19      0.00
    3    2   33     -3.47      0.00
    5    2   33      9.52      0.00
    7    2   33     -2.86      0.00
    9    2   33     10.76      0.00
   11    2   33      9.10      0.00
   13    2   33      3.59      0.00
   15    2   33      3.47      0.00
   17    2   33    -18.04      0.00
   19    2   33      2.66      0.00
   21    2   33      0.48      0.00
    2    3   33     -2.01      0.00
    4    3   33      6.53      0.00
    6    3   33      5.11      0.00
    8    3   33     -3.00      0.00
   10    3   33      6.36      0.00
   12    3   33      2.41      0.00
   14    3   33      5.64      0.00
   16    3   33     -0.48      0.00
   18    3   33     -0.19      0.00
   20    3   33     -1.52      0.00
   22    3   33     -6.56      0.00
    1    4   33      5.06      0.00
    3    4   33      4.22      0.00
    5    4   33     -7.96      0.00
    7    4   33     -6.94      0.00
    9    4   33     -2.38      0.00
   11    4   33      5.51      0.00
   13    4   33     -4.93      0.00
   15    4   33      7.80      0.00
   17    4   33     -5.39      0.00
   19    4   33      0.27      0.00
   21    4   33      3.72      0.00
   23    4   33      0.28      0.00
    2    5   33     -5.79      0.00
    4    5   33     12.74      0.00
    6    5   33     -0.05      0.00
    8    5   33    -11.72      0.00
   10    5   33      5.16      0.00
   12    5   33      8.37      0.00
   14    5   33     -0.37      0.00
   16    5   33      0.80      0.00
   18    5   33     -3.47      0.00
   20    5   33     -0.19      0.00
   22    5   33     14.41      0.00
    1    6   33      5.86      0.00
    3    6   33     -4.32      0.00
    5    6   33      5.75      0.00
    7    6   33     -6.46      0.00
    9    6   33      1.74      0.00
   11    6   33     -3.77      0.00
   13    6   33     -9.68      0.00
   15    6   33      2.38      0.00
   17    6   33      5.83      0.00
   19    6   33      1.13      0.00
   21    6   33      6.85      0.00
    2    7   33     -3.29      0.00
    4    7   33     -8.50      0.00
    6    7   33     -1.66      0.00
    8    7   33     -2.14      0.00
   10    7   33      0.64      0.00
   12    7   33     -7.79      0.00
   14    7   33     -9.61      0.00
   16    7   33      7.07      0.00
   18    7   33     -4.42      0.00
   20    7   33     13.58      0.00
   22    7   33      1.16      0.00
    1    8   33      1.99      0.00
    3    8   33     -6.08      0.00
    5    8   33    -17.01      0.00
    7    8   33     23.91      0.00
    9    8   33     -7.22      0.00
   11    8   33    -10.20      0.00
   13    8   33      8.88      0.00
   15    8   33     -4.82      0.00
   17    8   33      2.15      0.00
   19    8   33    -13.09      0.00
   21    8   33      2.81      0.00
    2    9   33      0.81      0.00
    4    9   33     -1.30      0.00
    6    9   33     -5.76      0.00
    8    9   33     -4.99      0.00
   10    9   33      9.30      0.00
   12    9   33      8.51      0.00
   14    9   33      2.18      0.00
   16    9   33      6.18      0.00
   18    9   33      2.52      0.00
   20    9   33     -6.04      0.00
   22    9   33     -7.43      0.00
    1   10   33      3.00      0.00
    3   10   33    -11.23      0.00
    5   10   33     12.17      0.00
    7   10   33     -3.87      0.00
    9   10   33      2.07      0.00
   11   10   33      8.56      0.00
   13   10   33     -3.12      0.00
   15   10   33      4.38      0.00
   17   10   33      3.37      0.00
   19   10   33      4.59      0.00
   21   10   33     -2.35      0.00
    2   11   33      8.00      0.00
    4   11   33     -0.97      0.00
    6   11   33      4.75      0.00
    8   11   33     20.42      0.00
   10   11   33    -11.61      0.00
   12   11   33     -1.88      0.00
   14   11   33      8.04      0.00
   16   11   33      5.38      0.00
   18   11   33     -8.34      0.00
   20   11   33      6.95      0.00
    1   12   33     -1.38      0.00
    3   12   33     -0.82      0.00
    5   12   33     -3.39      0.00
    7   12   33      7.97      0.00
    9   12   33     -2.73      0.00
   11   12   33    -16.24      0.00
   13   12   33     -0.66      0.00
   15   12   33      3.33      0.00
   17   12   33     -1.19      0.00
   19   12   33      1.64      0.00
    2   13   33      1.82      0.00
    4   13   33    -15.17      0.00
    6   13   33    -14.41      0.00
    8   13   33     -3.91      0.00
   10   13   33     -2.58      0.00
   12   13   33    -14.43      0.00
   14   13   33     -0.46      0.00
   16   13   33      0.38      0.00
   18   13   33      4.88      0.00
    1   14   33      0.63      0.00
    3   14   33     -2.40      0.00
    5   14   33     -0.77      0.00
    7   14   33     -0.85      0.00
    9   14   33     10.38      0.00
   11   14   33    -11.82      0.00
   13   14   33      0.95      0.00
   15   14   33     -4.60      0.00
   17   14   33     -0.65      0.00
    2   15   33     -0.18      0.00
    4   15   33    -12.12      0.00
    6   15   33      2.44      0.00
    8   15   33     -5.16      0.00
   10   15   33     -5.01      0.00
   12   15   33      0.88      0.00
   14   15   33     10.98      0.00
   16   15   33      5.15      0.00
    1   16   33     -8.42      0.00
    3   16   33      1.23      0.00
    5   16   33      4.78      0.00
    7   16   33     18.09      0.00
    9   16   33     -0.97      0.00
   11   16   33     -7.47      0.00
   13   16   33     -7.70      0.00
   15   16   33     11.12      0.00
   17   16   33      5.42      0.00
    2   17   33      2.57      0.00
    4   17   33     10.41      0.00
    6   17   33     21.15      0.00
    8   17   33     -9.29      0.00
   10   17   33     -0.69      0.00
   12   17   33     14.44      0.00
   14   17   33    -12.43      0.00
   16   17   33     -1.06      0.00
    1   18   33      1.27      0.00
    3   18   33      1.23      0.00
    5   18   33     -0.10      0.00
    7   18   33    -16.50      0.00
    9   18   33     16.06      0.00
   11   18   33     -3.43      0.00
   13   18   33     -1.74      0.00
   15   18   33     -1.23      0.00
    2   19   33     -8.89      0.00
    4   19   33      3.61      0.00
    6   19   33     -8.77      0.00
    8   19   33      6.20      0.00
   10   19   33     -1.33      0.00
   12   19   33     -5.36      0.00
   14   19   33     -0.61      0.00
    1   20   33      0.12      0.00
    3   20   33      1.43      0.00
    5   20   33     -0.98      0.00
    7   20   33      1.30      0.00
    9   20   33      6.10      0.00
   11   20   33     -8.28      0.00
   13   20   33      8.65      0.00
    2   21   33     -3.43      0.00
    4   21   33      5.47      0.00
    6   21   33      0.10      0.00
    8   21   33    -12.55      0.00
   10   21   33      9.72      0.00
    3   22   33     -3.28      0.00
    5   22   33      2.54      0.00
    7   22   33     10.86      0.00
    9   22   33     -7.62      0.00
    0    0   34     18.02      0.00
    2    0   34     -1.21      0.00
    4    0   34     -1.01      0.00
    6    0   34     11.95      0.00
    8    0   34     20.03      0.00
   10    0   34     -9.75      0.00
   12    0   34     -1.32      0.00
   14    0   34     -1.91      0.00
   16    0   34     11.77      0.00
   18    0   34      6.12      0.00
   20    0   34     -8.53      0.00
    1    1   34      3.07      0.00
    3    1   34     -6.09      0.00
    5    1   34      2.93      0.00
    7    1   34      3.90      0.00
    9    1   34     -9.43      0.00
   11    1   34      6.52      0.00
   13    1   34      9.94      0.00
   15    1   34     -8.78      0.00
   17    1   34      0.09      0.00
   19    1   34     -4.91      0.00
   21    1   34      0.36      0.00
    0    2   34      0.66      0.00
    2    2   34     10.19      0.00
    4    2   34     -0.56      0.00
    6    2   34     -2.61      0.00
    8    2   34     -9.04      0.00
   10    2   34     -3.95      0.00
   12    2   34     -0.20      0.00
   14    2   34     -0.46      0.00
   16    2   34      0.13      0.00
   18    2   34     -4.04      0.00
   20    2   34     -1.89      0.00
    1    3   34     -0.15      0.00
    3    3   34    -10.26      0.00
    5    3   34     -2.80      0.00
    7    3   34      1.13      0.00
    9    3   34     -1.71      0.00
   11    3   34      6.78      0.00
   13    3   34     -5.36      0.00
   15    3   34     11.25      0.00
   17    3   34    -11.15      0.00
   19    3   34     -2.34      0.00
   21    3   34    -10.50      0.00
    0    4   34     -1.83      0.00
    2    4   34     -1.53      0.00
    4    4   34      0.20      0.00
    6    4   34     -8.33      0.00
    8    4   34    -10.29      0.00
   10    4   34     -4.61      0.00
   12    4   34     10.12      0.00
   14    4   34      6.33      0.00
   16    4   34    -11.15      0.00
   18    4   34      4.25      0.00
   20    4   34      3.68      0.00
    1    5   34      4.01      0.00
    3    5   34    -12.68      0.00
    5    5   34      6.54      0.00
    7    5   34     -2.08      0.00
    9    5   34     10.35      0.00
   11    5   34     -2.57      0.00
   13    5   34     -1.65      0.00
   15    5   34    -14.25      0.00
   17    5   34     12.89      0.00
   19    5   34     -1.36      0.00
   21    5   34      4.24      0.00
    0    6   34     -5.49      0.00
    2    6   34     12.75      0.00
    4    6   34     -6.87      0.00
    6    6   34      3.26      0.00
    8    6   34     15.97      0.00
   10    6   34      3.63      0.00
   12    6   34    -19.14      0.00
   14    6   34      8.94      0.00
   16    6   34      0.44      0.00
   18    6   34      4.41      0.00
   20    6   34     -0.27      0.00
    1    7   34     -0.34      0.00
    3    7   34     -3.06      0.00
    5    7   34      8.36      0.00
    7    7   34     -2.07      0.00
    9    7   34      2.33      0.00
   11    7   34     -3.82      0.00
   13    7   34      9.17      0.00
   15    7   34     -2.40      0.00
   17    7   34     -7.69      0.00
   19    7   34     -5.05      0.00
   21    7   34      2.24      0.00
    0    8   34      4.63      0.00
    2    8   34     -9.01      0.00
    4    8   34     -0.87      0.00
    6    8   34     -5.67      0.00
    8    8   34     -0.64      0.00
   10    8   34     -6.61      0.00
   12    8   34     -9.52      0.00
   14    8   34      6.96      0.00
   16    8   34     11.78      0.00
   18    8   34     -5.96      0.00
   20    8   34      2.10      0.00
    1    9   34     -7.43      0.00
    3    9   34     -5.00      0.00
    5    9   34      5.57      0.00
    7    9   34      3.49      0.00
    9    9   34     -4.13      0.00
   11    9   34     -1.41      0.00
   13    9   34      3.97      0.00
   15    9   34     -0.34      0.00
   17    9   34     -6.03      0.00
   19    9   34      8.89      0.00
    0   10   34    -10.43      0.00
    2   10   34    -11.64      0.00
    4   10   34     -3.25      0.00
    6   10   34      2.17      0.00
    8   10   34    -17.74      0.00
   10   10   34      7.59      0.00
   12   10   34      2.70      0.00
   14   10   34      2.13      0.00
   16   10   34     -2.00      0.00
   18   10   34      3.30      0.00
   20   10   34      4.31      0.00
    1   11   34    -23.86      0.00
    3   11   34      5.33      0.00
    5   11   34      4.09      0.00
    7   11   34    -12.17      0.00
    9   11   34     -6.82      0.00
   11   11   34     13.85      0.00
   13   11   34     -4.02      0.00
   15   11   34      1.77      0.00
   17   11   34      2.48      0.00
   19   11   34    -10.46      0.00
    0   12   34      2.51      0.00
    2   12   34      2.43      0.00
    4   12   34     17.54      0.00
    6   12   34     -1.87      0.00
    8   12   34    -10.23      0.00
   10   12   34     -3.69      0.00
   12   12   34     11.15      0.00
   14   12   34     -1.04      0.00
   16   12   34      3.57      0.00
   18   12   34      1.61      0.00
    1   13   34      7.44      0.00
    3   13   34      3.05      0.00
    5   13   34     -6.80      0.00
    7   13   34      2.63      0.00
    9   13   34     -7.03      0.00
   11   13   34     -2.19      0.00
   13   13   34     -3.80      0.00
   15   13   34     -2.86      0.00
   17   13   34      8.93      0.00
    0   14   34     14.45      0.00
    2   14   34     -0.79      0.00
    4   14   34     -2.39      0.00
    6   14   34      7.67      0.00
    8   14   34     -1.05      0.00
   10   14   34     -3.69      0.00
   12   14   34      2.35      0.00
   14   14   34    -15.15      0.00
   16   14   34     -2.83      0.00
    1   15   34     16.36      0.00
    3   15   34      3.77      0.00
    5   15   34     -1.70      0.00
    7   15   34     10.46      0.00
    9   15   34     -5.18      0.00
   11   15   34     -2.97      0.00
   13   15   34     14.89      0.00
   15   15   34     -3.77      0.00
    0   16   34    -21.41      0.00
    2   16   34     -5.49      0.00
    4   16   34      3.36      0.00
    6   16   34     -6.34      0.00
    8   16   34    -14.47      0.00
   10   16   34      5.86      0.00
   12   16   34      4.21      0.00
   14   16   34     -3.72      0.00
    1   17   34     -0.28      0.00
    3   17   34     -0.11      0.00
    5   17   34      7.13      0.00
    7   17   34     -1.42      0.00
    9   17   34     -2.59      0.00
   11   17   34     -3.92      0.00
   13   17   34      9.29      0.00
    0   18   34     -0.58      0.00
    2   18   34     -0.90      0.00
    4   18   34      0.86      0.00
    6   18   34     -8.81      0.00
    8   18   34      7.91      0.00
   10   18   34      4.72      0.00
   12   18   34     -9.18      0.00
    1   19   34     -3.81      0.00
    3   19   34     -4.77      0.00
    5   19   34     -1.44      0.00
    7   19   34      7.66      0.00
    9   19   34      2.94      0.00
   11   19   34     -9.06      0.00
    2   20   34      1.93      0.00
    4   20   34      8.16      0.00
    6   20   34     -3.22      0.00
    8   20   34      6.19      0.00
   10   20   34    -10.42      0.00
    5   21   34      3.26      0.00
    2    1   35     -3.29      0.00
    4    1   35     -6.86      0.00
    6    1   35      1.29      0.00
    8    1   35     -0.33      0.00
   10    1   35     -2.03      0.00
   12    1   35      5.59      0.00
   14    1   35     -5.87      0.00
   16    1   35      4.69      0.00
   18    1   35    -11.96      0.00
    1    2   35    -15.91      0.00
    3    2   35    -11.33      0.00
    5    2   35    -22.35      0.00
    7    2   35      8.93      0.00
    9    2   35     -5.69      0.00
   11    2   35     -2.82      0.00
   13    2   35      2.52      0.00
   15    2   35      1.23      0.00
   17    2   35     -2.28      0.00
   19    2   35     -5.47      0.00
    2    3   35     -1.87      0.00
    4    3   35      4.17      0.00
    6    3   35     -2.96      0.00
    8    3   35    -14.58      0.00
   10    3   35      0.61      0.00
   12    3   35      4.87      0.00
   14    3   35     -6.63      0.00
   16    3   35     -7.25      0.00
   18    3   35     13.22      0.00
   20    3   35      3.49      0.00
    1    4   35     -4.24      0.00
    3    4   35      9.46      0.00
    5    4   35      7.94      0.00
    7    4   35      5.75      0.00
    9    4   35      4.12      0.00
   11    4   35    -21.26      0.00
   13    4   35     -9.12      0.00
   15    4   35     -4.07      0.00
   17    4   35     -6.37      0.00
   19    4   35      8.13      0.00
    2    5   35      5.29      0.00
    4    5   35     -4.70      0.00
    6    5   35      7.23      0.00
    8    5   35     -1.50      0.00
   10    5   35      9.84      0.00
   12    5   35     -6.36      0.00
   14    5   35      5.98      0.00
   16    5   35    -10.75      0.00
   18    5   35      6.76      0.00
   20    5   35     -7.21      0.00
    1    6   35      1.09      0.00
    3    6   35      3.57      0.00
    5    6   35     12.05      0.00
    7    6   35     -1.15      0.00
    9    6   35      1.48      0.00
   11    6   35      3.95      0.00
   13    6   35     -7.68      0.00
   15    6   35    -12.55      0.00
   17    6   35      0.41      0.00
   19    6   35     -4.14      0.00
    2    7   35      1.38      0.00
    4    7   35      0.82      0.00
    6    7   35     -2.59      0.00
    8    7   35      7.06      0.00
   10    7   35     -3.46      0.00
   12    7   35      6.27      0.00
   14    7   35     10.79      0.00
   16    7   35     -0.25      0.00
   18    7   35    -20.53      0.00
    1    8   35     -0.81      0.00
    3    8   35     -6.34      0.00
    5    8   35      7.08      0.00
    7    8   35     -3.04      0.00
    9    8   35     -5.51      0.00
   11    8   35     16.51      0.00
   13    8   35     10.47      0.00
   15    8   35     -7.04      0.00
   17    8   35     -2.77      0.00
   19    8   35      2.20      0.00
    2    9   35     13.29      0.00
    4    9   35     12.83      0.00
    6    9   35     -2.56      0.00
    8    9   35      5.43      0.00
   10    9   35     -6.22      0.00
   12    9   35     14.79      0.00
   14    9   35     -8.24      0.00
   16    9   35      4.63      0.00
   18    9   35     11.45      0.00
    1   10   35      0.93      0.00
    3   10   35      5.73      0.00
    5   10   35     12.10      0.00
    7   10   35      4.02      0.00
    9   10   35     -9.08      0.00
   11   10   35      6.47      0.00
   13   10   35     -2.81      0.00
   15   10   35     -6.01      0.00
   17   10   35     -5.72      0.00
    2   11   35     -7.87      0.00
    4   11   35     -9.11      0.00
    6   11   35    -12.15      0.00
    8   11   35     -1.58      0.00
   10   11   35      0.58      0.00
   12   11   35     -1.25      0.00
   14   11   35      2.76      0.00
   16   11   35      0.07      0.00
    1   12   35      8.23      0.00
    3   12   35      3.20      0.00
    5   12   35    -10.23      0.00
    7   12   35    -14.51      0.00
    9   12   35     14.39      0.00
   11   12   35    -13.46      0.00
   13   12   35     -2.30      0.00
   15   12   35     -3.27      0.00
    2   13   35      6.17      0.00
    4   13   35     -6.03      0.00
    6   13   35    -19.19      0.00
    8   13   35     -0.94      0.00
   10   13   35     11.63      0.00
   12   13   35     -5.15      0.00
   14   13   35     -2.52      0.00
    1   14   35     -9.13      0.00
    3   14   35     -5.08      0.00
    5   14   35      0.77      0.00
    7   14   35     12.80      0.00
    9   14   35     -7.09      0.00
   11   14   35     11.94      0.00
   13   14   35      0.84      0.00
   15   14   35     11.42      0.00
    2   15   35      6.49      0.00
    4   15   35      0.12      0.00
    6   15   35      6.16      0.00
    8   15   35      8.38      0.00
   10   15   35     -2.57      0.00
   12   15   35    -13.23      0.00
   14   15   35      1.56      0.00
    1   16   35     -8.66      0.00
    3   16   35     -0.82      0.00
    5   16   35     11.76      0.00
    7   16   35    -12.05      0.00
    9   16   35      9.26      0.00
   11   16   35     11.40      0.00
   13   16   35     -5.76      0.00
    2   17   35      5.74      0.00
    4   17   35     -0.39      0.00
    6   17   35    -11.01      0.00
    8   17   35      3.58      0.00
   10   17   35     -4.00      0.00
   12   17   35     -1.80      0.00
    1   18   35      4.65      0.00
    3   18   35    -12.69      0.00
    5   18   35    -11.60      0.00
    7   18   35      7.40      0.00
    9   18   35     -1.58      0.00
    4   19   35     -6.92      0.00
    6   19   35      7.88      0.00
    0    0   36     -7.24      0.00
    2    0   36    -12.55      0.00
    4    0   36      1.39      0.00
    6    0   36    -23.28      0.00
    8    0   36      9.73      0.00
   10    0   36     14.12      0.00
   12    0   36     -7.41      0.00
   14    0   36      6.31      0.00
   16    0   36      2.57      0.00
    1    1   36      3.88      0.00
    3    1   36     -8.37      0.00
    5    1   36      2.56      0.00
    7    1   36     -6.39      0.00
    9    1   36     -1.38      0.00
   11    1   36     -5.55      0.00
   13    1   36      3.47      0.00
   15    1   36     -3.79      0.00
   17    1   36    -17.05      0.00
    0    2   36    -13.14      0.00
    2    2   36      1.28      0.00
    4    2   36      4.87      0.00
    6    2   36     -8.03      0.00
    8    2   36     -3.65      0.00
   10    2   36      0.19      0.00
   12    2   36     -8.65      0.00
   14    2   36      7.82      0.00
   16    2   36      2.40      0.00
   18    2   36      3.62      0.00
    1    3   36     -0.17      0.00
    3    3   36      2.08      0.00
    5    3   36      2.86      0.00
    7    3   36      4.80      0.00
    9    3   36    -19.01      0.00
   11    3   36     -2.25      0.00
   13    3   36      2.46      0.00
   15    3   36      5.63      0.00
   17    3   36     -0.75      0.00
    0    4   36     31.19      0.00
    2    4   36     12.18      0.00
    4    4   36     -9.04      0.00
    6    4   36      0.40      0.00
    8    4   36     -4.21      0.00
   10    4   36     -1.48      0.00
   12    4   36     -6.46      0.00
   14    4   36    -11.80      0.00
   16    4   36      4.95      0.00
   18    4   36      2.78      0.00
    1    5   36     -0.48      0.00
    3    5   36      7.46      0.00
    5    5   36      1.79      0.00
    7    5   36      0.10      0.00
    9    5   36      0.86      0.00
   11    5   36      4.38      0.00
   13    5   36     -7.07      0.00
   15    5   36     -5.05      0.00
   17    5   36      6.89      0.00
    0    6   36     -0.03      0.00
    2    6   36     -4.29      0.00
    4    6   36     -6.42      0.00
    6    6   36     10.41      0.00
    8    6   36     -5.00      0.00
   10    6   36    -10.65      0.00
   12    6   36     10.34      0.00
   14    6   36     -1.29      0.00
   16    6   36     -4.53      0.00
    1    7   36     -4.94      0.00
    3    7   36      0.51      0.00
    5    7   36     -2.51      0.00
    7    7   36    -12.91      0.00
    9    7   36     -1.02      0.00
   11    7   36     -8.11      0.00
   13    7   36     -0.47      0.00
   15    7   36     -1.31      0.00
   17    7   36     -3.19      0.00
    0    8   36     16.54      0.00
    2    8   36     -9.73      0.00
    4    8   36    -12.99      0.00
    6    8   36     -0.59      0.00
    8    8   36     11.82      0.00
   10    8   36    -17.71      0.00
   12    8   36      5.80      0.00
   14    8   36     -0.08      0.00
   16    8   36      0.87      0.00
    1    9   36      6.04      0.00
    3    9   36    -17.32      0.00
    5    9   36     -0.12      0.00
    7    9   36     -1.57      0.00
    9    9   36     11.87      0.00
   11    9   36     -6.31      0.00
   13    9   36     -4.58      0.00
   15    9   36     -7.10      0.00
    0   10   36     -2.01      0.00
    2   10   36      2.84      0.00
    4   10   36     -7.10      0.00
    6   10   36      0.01      0.00
    8   10   36    -17.26      0.00
   10   10   36     11.91      0.00
   12   10   36     -2.51      0.00
   14   10   36      1.88      0.00
    1   11   36      9.78      0.00
    3   11   36     11.82      0.00
    5   11   36     -3.73      0.00
    7   11   36      3.71      0.00
    9   11   36     -0.26      0.00
   11   11   36      0.31      0.00
   13   11   36    -12.71      0.00
   15   11   36     13.43      0.00
    0   12   36      2.65      0.00
    2   12   36     -7.95      0.00
    4   12   36     -0.22      0.00
    6   12   36     -1.38      0.00
    8   12   36     12.29      0.00
   10   12   36      3.52      0.00
   12   12   36     -3.38      0.00
   14   12   36      1.40      0.00
    1   13   36     -5.26      0.00
    3   13   36      6.06      0.00
    5   13   36      7.30      0.00
    7   13   36     -2.83      0.00
    9   13   36     -1.17      0.00
   11   13   36      0.06      0.00
   13   13   36     -3.60      0.00
    0   14   36      1.27      0.00
    2   14   36     -3.04      0.00
    4   14   36     -4.01      0.00
    6   14   36     19.19      0.00
    8   14   36     -2.34      0.00
   10   14   36     -3.90      0.00
   12   14   36      4.42      0.00
    1   15   36    -18.91      0.00
    3   15   36      5.84      0.00
    5   15   36     -0.69      0.00
    7   15   36     -7.62      0.00
    9   15   36      3.40      0.00
   11   15   36     -5.35      0.00
    2   16   36     -0.77      0.00
    4   16   36     -4.53      0.00
    6   16   36     -5.99      0.00
    8   16   36     -5.75      0.00
   10   16   36     -9.93      0.00
    3   17   36      0.98      0.00
    5   17   36     -0.14      0.00
    7   17   36     10.55      0.00
    2    1   37      5.29      0.00
    4    1   37    -20.78      0.00
    6    1   37    -14.16      0.00
    8    1   37      0.31      0.00
   10    1   37      2.62      0.00
   12    1   37      0.87      0.00
   14    1   37      4.72      0.00
   16    1   37      1.61      0.00
    1    2   37      3.44      0.00
    3    2   37     -1.25      0.00
    5    2   37     -5.61      0.00
    7    2   37     -0.03      0.00
    9    2   37     -5.45      0.00
   11    2   37    -11.02      0.00
   13    2   37      1.60      0.00
   15    2   37     -7.36      0.00
    2    3   37     -3.92      0.00
    4    3   37     14.06      0.00
    6    3   37     13.31      0.00
    8    3   37      0.21      0.00
   10    3   37    -12.44      0.00
   12    3   37     -0.10      0.00
   14    3   37      1.15      0.00
   16    3   37     -1.89      0.00
    1    4   37      2.68      0.00
    3    4   37    -18.70      0.00
    5    4   37     -5.68      0.00
    7    4   37     -4.37      0.00
    9    4   37      9.37      0.00
   11    4   37      0.94      0.00
   13    4   37      0.15      0.00
   15    4   37    -14.66      0.00
    2    5   37     -9.51      0.00
    4    5   37      0.74      0.00
    6    5   37     -2.94      0.00
    8    5   37      3.49      0.00
   10    5   37      0.73      0.00
   12    5   37      4.48      0.00
   14    5   37     -0.87      0.00
   16    5   37      4.42      0.00
    1    6   37    -14.01      0.00
    3    6   37     11.25      0.00
    5    6   37     -9.47      0.00
    7    6   37     -3.26      0.00
    9    6   37     -0.40      0.00
   11    6   37     -3.04      0.00
   13    6   37     -0.82      0.00
   15    6   37      2.37      0.00
    2    7   37     -2.97      0.00
    4    7   37    -13.11      0.00
    6    7   37    -13.14      0.00
    8    7   37     -5.58      0.00
   10    7   37     20.15      0.00
   12    7   37     -6.82      0.00
   14    7   37      0.10      0.00
    1    8   37      1.93      0.00
    3    8   37      9.43      0.00
    5    8   37     19.27      0.00
    7    8   37     -8.85      0.00
    9    8   37     -1.41      0.00
   11    8   37     -2.75      0.00
   13    8   37     -3.23      0.00
    2    9   37    -15.86      0.00
    4    9   37      8.16      0.00
    6    9   37      9.30      0.00
    8    9   37     -8.18      0.00
   10    9   37     -6.43      0.00
   12    9   37      7.91      0.00
   14    9   37     -5.99      0.00
    1   10   37    -35.41      0.00
    3   10   37    -10.86      0.00
    5   10   37     -1.96      0.00
    7   10   37      7.72      0.00
    9   10   37    -18.27      0.00
   11   10   37      5.29      0.00
   13   10   37     -0.70      0.00
    2   11   37    -11.72      0.00
    4   11   37     15.53      0.00
    6   11   37      4.17      0.00
    8   11   37     -2.22      0.00
   10   11   37     -5.20      0.00
   12   11   37     -1.62      0.00
    1   12   37     19.18      0.00
    3   12   37      2.80      0.00
    5   12   37     -7.45      0.00
    7   12   37     -3.34      0.00
    9   12   37      2.19      0.00
   11   12   37     -1.56      0.00
    2   13   37      4.96      0.00
    4   13   37      9.21      0.00
    6   13   37     15.77      0.00
    8   13   37    -11.98      0.00
   10   13   37      4.87      0.00
    3   14   37     16.75      0.00
    5   14   37     -5.25      0.00
    7   14   37      1.69      0.00
    9   14   37      4.70      0.00
    6   15   37    -15.86      0.00
    0    0   38      0.88      0.00
    2    0   38      5.00      0.00
    4    0   38    -13.24      0.00
    6    0   38      1.51      0.00
    8    0   38      0.46      0.00
   10    0   38      7.47      0.00
   12    0   38     -7.23      0.00
    1    1   38      9.69      0.00
    3    1   38      1.20      0.00
    5    1   38      3.65      0.00
    7    1   38      4.39      0.00
    9    1   38    -18.90      0.00
   11    1   38     -6.84      0.00
   13    1   38      5.53      0.00
    0    2   38      0.39      0.00
    2    2   38      0.58      0.00
    4    2   38     -0.19      0.00
    6    2   38     -8.43      0.00
    8    2   38      1.11      0.00
   10    2   38      1.78      0.00
   12    2   38      1.44      0.00
   14    2   38      2.17      0.00
    1    3   38     12.25      0.00
    3    3   38     -1.65      0.00
    5    3   38     -9.16      0.00
    7    3   38     -7.36      0.00
    9    3   38     20.92      0.00
   11    3   38     -9.68      0.00
   13    3   38    -11.58      0.00
    0    4   38    -10.23      0.00
    2    4   38    -13.89      0.00
    4    4   38      0.10      0.00
    6    4   38      8.02      0.00
    8    4   38     -4.92      0.00
   10    4   38      1.73      0.00
   12    4   38      7.96      0.00
   14    4   38      0.79      0.00
    1    5   38    -46.57      0.00
    3    5   38      6.97      0.00
    5    5   38      8.24      0.00
    7    5   38      2.13      0.00
    9    5   38     -2.17      0.00
   11    5   38      4.07      0.00
   13    5   38     -5.97      0.00
    0    6   38      1.43      0.00
    2    6   38     -9.10      0.00
    4    6   38      4.31      0.00
    6    6   38    -12.49      0.00
    8    6   38     -0.05      0.00
   10    6   38    -11.02      0.00
   12    6   38     -1.28      0.00
    1    7   38      7.04      0.00
    3    7   38      2.45      0.00
    5    7   38    -19.98      0.00
    7    7   38      0.00      0.00
    9    7   38      0.13      0.00
   11    7   38    -11.01      0.00
    0    8   38     -2.13      0.00
    2    8   38     -5.58      0.00
    4    8   38    -13.04      0.00
    6    8   38     15.34      0.00
    8    8   38      3.15      0.00
   10    8   38     -3.14      0.00
   12    8   38     -4.05      0.00
    1    9   38     19.54      0.00
    3    9   38      8.69      0.00
    5    9   38    -18.48      0.00
    7    9   38      0.33      0.00
    9    9   38     -6.46      0.00
   11    9   38     -2.67      0.00
    2   10   38      7.45      0.00
    4   10   38     19.95      0.00
    6   10   38    -25.27      0.00
    8   10   38      8.45      0.00
   10   10   38      1.09      0.00
    3   11   38      4.17      0.00
    5   11   38      2.64      0.00
    7   11   38      3.96      0.00
    9   11   38      3.35      0.00
    4   12   38      2.02      0.00
    6   12   38     -3.59      0.00
    2    1   39      1.19      0.00
    4    1   39     -3.36      0.00
    6    1   39     -5.07      0.00
    8    1   39     -1.52      0.00
   10    1   39      1.34      0.00
    1    2   39      6.67      0.00
    3    2   39     -0.58      0.00
    5    2   39     11.08      0.00
    7    2   39     11.68      0.00
    9    2   39     -2.56      0.00
   11    2   39     -3.81      0.00
    2    3   39     -6.34      0.00
    4    3   39      6.54      0.00
    6    3   39      1.35      0.00
    8    3   39      2.59      0.00
   10    3   39      4.37      0.00
    1    4   39     10.39      0.00
    3    4   39      8.65      0.00
    5    4   39    -14.17      0.00
    7    4   39      8.63      0.00
    9    4   39     -8.41      0.00
   11    4   39     -0.69      0.00
    2    5   39     12.83      0.00
    4    5   39      2.86      0.00
    6    5   39     -0.49      0.00
    8    5   39     -0.09      0.00
   10    5   39      1.48      0.00
    3    6   39    -19.55      0.00
    5    6   39     -8.30      0.00
    7    6   39     -4.53      0.00
    9    6   39      2.68      0.00
    4    7   39      2.30      0.00
    6    7   39     -9.80      0.00
    8    7   39     12.31      0.00
    5    8   39    -10.62      0.00
    7    8   39     14.30      0.00
    0    0    2   -469.41      0.00
    1    1    2   -550.48      0.00
    0    4    6     70.34      0.00
    0    8    8     76.07      0.00
   13   13   14    -18.69      0.00
   12   14   14     -9.86      0.00
   14   14   14     -6.16      0.00
   14   11   15    -38.21      0.00
   13   12   15     -9.86      0.00
   22   22   22     13.21      0.00
   22   23   23      1.98      0.00
   23   21   24      4.08      0.00
   22   22   24     -5.07      0.00
   21   23   24     -5.81      0.00
   23   23   24     -6.83      0.00
   22   24   24     -3.21      0.00
   22   21   25     -2.51      0.00
   24   21   25      0.48      0.00
   21   22   25     -0.76      0.00
   23   22   25     -3.68      0.00
   22   23   25     -0.60      0.00
   21   24   25     -2.93      0.00
   20   25   25     -6.63      0.00
   25   19   26     -4.40      0.00
   22   20   26     -2.37      0.00
   24   20   26     -1.62      0.00
   21   21   26     -7.03      0.00
   23   21   26     -0.48      0.00
   22   22   26      4.88      0.00
   21   23   26     -1.53      0.00
   20   24   26     -2.13      0.00
   19   25   26      1.94      0.00
   18   26   26      2.73      0.00
   25   18   27    -10.81      0.00
   22   19   27      9.03      0.00
   24   19   27      3.36      0.00
   21   20   27     -2.51      0.00
   23   20   27      8.69      0.00
   22   21   27     -1.60      0.00
   21   22   27     -8.12      0.00
   20   23   27     -6.43      0.00
   19   24   27      5.57      0.00
   18   25   27     -1.93      0.00
   14   27   27     -1.44      0.00
   27   13   28      3.80      0.00
   26   14   28      1.83      0.00
   22   18   28      4.65      0.00
   24   18   28     -8.24      0.00
   21   19   28      0.12      0.00
   23   19   28     -7.59      0.00
   20   20   28     11.21      0.00
   22   20   28     -3.42      0.00
   21   21   28      2.55      0.00
   20   22   28     -6.24      0.00
   19   23   28      3.40      0.00
   18   24   28     -2.07      0.00
   14   26   28     -3.52      0.00
   13   27   28     -1.89      0.00
   10   28   28     -7.92      0.00
   28    1   29     -0.89      0.00
   28    3   29      1.34      0.00
   28    5   29     14.20      0.00
   28    7   29     -5.04      0.00
   27   10   29      8.15      0.00
   25   14   29      0.63      0.00
   24   15   29      0.93      0.00
   23   16   29     -1.77      0.00
   22   17   29     -5.40      0.00
   21   18   29     -3.27      0.00
   20   19   29      5.96      0.00
   19   20   29     -1.41      0.00
   21   20   29     -0.69      0.00
   20   21   29     -6.01      0.00
   14   25   29      5.15      0.00
   10   27   29      6.52      0.00
    1   28   29      0.19      0.00
    3   28   29      6.33      0.00
    5   28   29      5.74      0.00
    7   28   29     -0.48      0.00
   28    0   30      5.52      0.00
   27    1   30     12.57      0.00
   27    3   30      0.32      0.00
   27    5   30      6.51      0.00
   27    7   30      4.12      0.00
   26   10   30      5.13      0.00
   24   14   30     10.43      0.00
   23   15   30     15.59      0.00
   22   16   30     -1.19      0.00
   21   17   30      9.59      0.00
   20   18   30     -1.35      0.00
   19   19   30      5.51      0.00
   18   20   30      0.10      0.00
   17   21   30     -5.36      0.00
   16   22   30     14.18      0.00
   15   23   30     11.05      0.00
   14   24   30     -2.30      0.00
    0   26   30     32.05      0.00
   10   26   30     -7.50      0.00
    1   27   30      5.02      0.00
    3   27   30      1.43      0.00
    5   27   30     -7.17      0.00
    7   27   30      4.96      0.00
    0   28   30    -18.72      0.00
   26    1   31      1.08      0.00
   26    3   31      5.40      0.00
   26    5   31     -3.71      0.00
   24   11   31     -2.85      0.00
   22   15   31      2.83      0.00
   21   16   31      6.26      0.00
   20   17   31     -1.50      0.00
   19   18   31      7.72      0.00
   18   19   31     -7.85      0.00
   17   20   31     -8.08      0.00
   16   21   31     -3.58      0.00
   15   22   31     -7.49      0.00
    1   26   31     -3.24      0.00
    3   26   31      7.22      0.00
    5   26   31      0.62      0.00
   24    0   32     -4.72      0.00
   25    1   32     -5.94      0.00
   25    3   32     -3.78      0.00
   25    5   32     -0.46      0.00
   24    8   32      3.48      0.00
   23   11   32      2.94      0.00
   22   12   32     10.42      0.00
   20   16   32     13.05      0.00
   19   17   32      3.32      0.00
   18   18   32     -6.82      0.00
   17   19   32     -3.53      0.00
   16   20   32      4.99      0.00
   11   23   32     -5.50      0.00
    0   24   32     -0.93      0.00
    2   24   32     -1.96      0.00
    8   24   32     -5.31      0.00
    1   25   32     13.18      0.00
    3   25   32     -0.16      0.00
    5   25   32     -4.84      0.00
   24    1   33      2.49      0.00
   23    2   33     -7.06      0.00
   24    3   33     -0.40      0.00
   23    6   33    -10.27      0.00
   23    8   33      7.24      0.00
   21   12   33     -5.12      0.00
   20   13   33      2.25      0.00
   19   14   33     -1.08      0.00
   18   15   33      1.72      0.00
   12   21   33      4.68      0.00
    1   22   33    -12.34      0.00
    2   23   33      3.79      0.00
    4   23   33      2.56      0.00
    6   23   33      1.00      0.00
    8   23   33     -0.57      0.00
    1   24   33     -3.05      0.00
    3   24   33     -4.63      0.00
   22    0   34    -11.40      0.00
   22    2   34      2.98      0.00
   22    4   34      0.33      0.00
   22    6   34     -8.34      0.00
   21    9   34     -6.38      0.00
   18   14   34      9.72      0.00
   17   15   34     -5.15      0.00
   16   16   34     -1.98      0.00
   15   17   34      3.03      0.00
   14   18   34      1.71      0.00
    0   20   34      9.37      0.00
    1   21   34      3.53      0.00
    3   21   34      2.20      0.00
    7   21   34     -1.12      0.00
    9   21   34     -5.90      0.00
    0   22   34     -4.69      0.00
    2   22   34     -1.94      0.00
    4   22   34     -3.91      0.00
    6   22   34     -0.14      0.00
   20    1   35     -0.61      0.00
   21    2   35      0.54      0.00
   21    4   35      5.40      0.00
   20    7   35      1.32      0.00
   18   11   35      6.10      0.00
   17   12   35      3.75      0.00
   16   13   35      7.93      0.00
   11   18   35     -9.31      0.00
    2   19   35      2.52      0.00
    8   19   35     -2.20      0.00
    1   20   35     -4.20      0.00
    3   20   35     12.85      0.00
    5   20   35      2.25      0.00
    7   20   35     -4.76      0.00
    2   21   35     -4.57      0.00
    4   21   35      5.43      0.00
   18    0   36      0.19      0.00
   19    1   36      7.67      0.00
   19    3   36      5.30      0.00
   19    5   36      0.56      0.00
   18    6   36     -7.93      0.00
   18    8   36      0.78      0.00
   17    9   36     -3.49      0.00
   16   10   36      7.82      0.00
    0   16   36     -5.95      0.00
    1   17   36      0.83      0.00
    9   17   36     -2.34      0.00
    0   18   36      2.49      0.00
    2   18   36     -3.80      0.00
    4   18   36     -8.55      0.00
    6   18   36     -6.45      0.00
    8   18   36     -0.78      0.00
    1   19   36      7.39      0.00
    3   19   36      2.69      0.00
    5   19   36      4.43      0.00
   17    2   37      5.15      0.00
   17    4   37      5.66      0.00
   16    7   37     -1.41      0.00
   15    8   37     -3.10      0.00
   13   12   37      5.95      0.00
   12   13   37      1.94      0.00
    1   14   37      9.92      0.00
    2   15   37      2.25      0.00
    4   15   37      4.52      0.00
    8   15   37     -0.22      0.00
    1   16   37      8.30      0.00
    3   16   37      0.91      0.00
    5   16   37     -0.06      0.00
    7   16   37     -3.35      0.00
    2   17   37     -9.38      0.00
    4   17   37    -13.39      0.00
   14    0   38     -0.85      0.00
   15    1   38      6.10      0.00
   15    3   38     -1.45      0.00
   14    6   38      0.55      0.00
   13    7   38      4.53      0.00
    0   10   38    -16.35      0.00
    1   11   38     -8.43      0.00
    0   12   38    -22.06      0.00
    2   12   38     20.06      0.00
    8   12   38    -19.49      0.00
    1   13   38      3.26      0.00
    3   13   38     -6.50      0.00
    5   13   38      3.93      0.00
    7   13   38      4.00      0.00
    0   14   38      7.71      0.00
    2   14   38     -4.48      0.00
    4   14   38     -2.96      0.00
    6   14   38    -15.09      0.00
    1   15   38      9.99      0.00
    3   15   38    -11.66      0.00
   12    1   39     -5.92      0.00
   12    3   39      0.98      0.00
    1    6   39     21.82      0.00
   11    6   39     -6.66      0.00
    2    7   39      6.10      0.00
   10    7   39     -1.96      0.00
    1    8   39    -13.78      0.00
    3    8   39     -5.41      0.00
    9    8   39    -12.28      0.00
    2    9   39     -7.58      0.00
    4    9   39    -11.33      0.00
    6    9   39      6.13      0.00
    8    9   39     -3.70      0.00
    1   10   39     -1.37      0.00
    3   10   39    -12.02      0.00
    5   10   39      7.96      0.00
    7   10   39     -8.22      0.00
    2   11   39     16.04      0.00
    4   11   39     -5.78      0.00
    6   11   39      3.60      0.00
    1   12   39     -3.33      0.00
    3   12   39      7.15      0.00
    0    0    0      0.00      0.00
# SQUEEZE RESULTS (Version =  50315)
# Note: Data are Listed for all Voids in the P1 Unit Cell
# i.e. Centre of Gravity, Solvent Accessible Volume,
# Recovered number of Electrons in the Void and
# Details about the Squeezed Material
loop_
  _platon_squeeze_void_nr
  _platon_squeeze_void_average_x
  _platon_squeeze_void_average_y
  _platon_squeeze_void_average_z
  _platon_squeeze_void_volume
  _platon_squeeze_void_count_electrons
  _platon_squeeze_void_content
   1  0.000  0.000  0.000        90         7 ' '
   2  0.500  0.000  0.000        90         7 ' '
   3  0.131  0.013  0.189     14037      3271 ' '
   4  0.000  0.000  0.500        90         7 ' '
   5  0.500  0.000  0.500        90         7 ' '
   6  0.000  0.500  0.000        90         7 ' '
   7  0.500  0.500  0.500        90         7 ' '
   8  0.000  0.500  0.500        90         7 ' '
   9  0.500  0.500  1.000        90         7 ' '
# Missing Reflections Below sin(th)/lambda = 0.25
loop_
  _platon_missing_refln_index_h
  _platon_missing_refln_index_k
  _platon_missing_refln_index_l
  _platon_missing_refln_theta
    0    0    2     2.707
    1    1    2     3.316
    0    4    6     9.804
    0    8    8    15.496
_platon_squeeze_void_probe_radius                  1.20
_platon_squeeze_details
)
TITL A151118B  I a -3       R = 0.07
CELL   32.6462   32.6462   32.6462     90.00     90.00     90.00
SPGR Ia-3
# Solvent Accessible Volume =   15070.9
# Electrons Found in S.A.V. =    3315.4
# Note: Atoms in Void as Cxxx and Qxxx all others
C101 0.154 0.679 0.050 !       2.95 eA-3
C102 0.656 0.363 0.032 !       1.94 eA-3
C103 0.828 0.887 0.073 !       1.79 eA-3
C104 0.081 0.913 0.196 !       1.67 eA-3
C105 0.548 0.644 0.048 !       1.66 eA-3
C106 0.936 0.169 0.075 !       1.60 eA-3
C107 0.610 0.014 0.166 !       1.26 eA-3
C108 0.738 0.882 0.193 !       1.08 eA-3
C109 0.500 1.000 0.000 !       1.01 eA-3
C110 0.867 0.574 0.221 !       1.01 eA-3
C111 0.421 0.694 0.228 !       0.98 eA-3
C112 0.844 0.416 0.172 !       0.97 eA-3
C113 0.250 0.250 0.250 !       0.96 eA-3
C114 0.591 0.828 0.221 !       0.96 eA-3
C115 0.602 0.794 0.213 !       0.95 eA-3
C116 0.089 0.165 0.202 !       0.94 eA-3
C117 0.208 0.061 0.155 !       0.93 eA-3
C118 0.573 0.132 0.249 !       0.91 eA-3
C119 0.054 0.913 0.159 !       0.88 eA-3
C120 0.405 0.649 0.239 !       0.88 eA-3
Q121 0.266 0.500 0.250 !       0.88 eA-3
C122 0.247 0.087 0.170 !       0.88 eA-3
C123 0.908 0.609 0.218 !       0.84 eA-3
C124 0.680 0.881 0.148 !       0.82 eA-3
C125 0.377 0.774 0.062 !       0.80 eA-3
C126 0.062 0.140 0.234 !       0.80 eA-3
C127 0.776 0.258 0.197 !       0.78 eA-3
C128 0.742 0.783 0.235 !       0.77 eA-3
Q129 0.196 0.416 0.221 !       0.77 eA-3
C130 0.109 0.256 0.117 !       0.77 eA-3
C131 0.929 0.293 0.187 !       0.77 eA-3
Q132 0.348 0.389 0.139 !       0.76 eA-3
C133 0.936 0.347 0.178 !       0.76 eA-3
C134 0.391 0.639 0.211 !       0.76 eA-3
C135 0.680 0.928 0.171 !       0.76 eA-3
Q136 0.744 0.255 0.096 !       0.75 eA-3
Q137 0.631 0.335 0.120 !       0.75 eA-3
C138 0.892 0.320 0.187 !       0.75 eA-3
Q139 0.676 0.765 0.054 !       0.75 eA-3
C140 0.835 0.451 0.186 !       0.73 eA-3
Q141 0.249 0.385 0.232 !       0.73 eA-3
Q142 0.717 0.518 0.254 !       0.73 eA-3
C143 0.731 0.771 0.110 !       0.70 eA-3
C144 0.769 0.729 0.390 !       0.70 eA-3
C145 0.344 0.734 0.124 !       0.70 eA-3
C146 0.843 0.353 0.109 !       0.70 eA-3
C147 0.393 0.235 0.770 !       0.70 eA-3
C148 0.769 0.776 0.891 !       0.70 eA-3
C149 0.863 0.266 0.227 !       0.70 eA-3
C150 0.732 0.088 0.216 !       0.70 eA-3
Q151 0.649 0.898 0.094 !       0.69 eA-3
C152 0.364 0.123 0.007 !       0.69 eA-3
C153 0.720 0.774 0.171 !       0.69 eA-3
Q154 0.337 0.970 0.195 !       0.69 eA-3
C155 0.801 0.737 0.288 !       0.69 eA-3
C156 0.699 0.763 0.212 !       0.69 eA-3
C157 0.199 0.263 0.712 !       0.69 eA-3
C158 0.708 0.306 0.762 !       0.68 eA-3
C159 0.773 0.756 0.892 !       0.68 eA-3
C160 0.361 0.578 0.196 !       0.68 eA-3
C161 0.196 0.107 0.116 !       0.68 eA-3
C162 0.304 0.393 0.384 !       0.68 eA-3
C163 0.925 0.264 0.165 !       0.67 eA-3
C164 0.625 0.620 0.700 !       0.67 eA-3
Q165 0.375 0.866 0.205 !       0.66 eA-3
C166 0.794 0.796 0.778 !       0.65 eA-3
Q167 0.500 0.254 0.055 !       0.65 eA-3
C168 0.218 0.087 0.132 !       0.64 eA-3
Q169 0.666 0.890 0.045 !       0.64 eA-3
C170 0.743 0.444 0.157 !       0.64 eA-3
C171 0.303 0.539 0.132 !       0.64 eA-3
Q172 0.303 0.374 0.108 !       0.64 eA-3
C173 0.751 0.240 0.205 !       0.64 eA-3
C174 0.023 0.023 0.023 !       0.62 eA-3
C175 0.753 0.851 0.219 !       0.62 eA-3
C176 0.122 0.859 0.238 !       0.62 eA-3
C177 0.838 0.704 0.244 !       0.62 eA-3
C178 0.323 0.514 0.173 !       0.62 eA-3
Q179 0.751 0.778 0.077 !       0.61 eA-3
Q180 0.758 0.415 0.062 !       0.61 eA-3
Q181 0.337 0.835 0.239 !       0.60 eA-3
C182 0.672 0.863 0.022 !       0.60 eA-3
Q183 0.227 0.937 0.239 !       0.60 eA-3
C184 0.730 0.736 0.134 !       0.60 eA-3
Q185 0.422 0.663 0.070 !       0.59 eA-3
Q186 0.743 0.506 0.156 !       0.59 eA-3
C187 0.325 0.269 0.225 !       0.59 eA-3
C188 0.868 0.348 0.123 !       0.58 eA-3
C189 0.195 0.571 0.115 !       0.58 eA-3
Q190 0.753 0.225 0.134 !       0.58 eA-3
Q191 0.128 0.685 0.095 !       0.58 eA-3
Q192 0.850 0.559 0.128 !       0.57 eA-3
Q193 0.246 0.041 0.240 !       0.57 eA-3
C194 0.557 0.735 0.164 !       0.57 eA-3
Q195 0.390 0.883 0.124 !       0.57 eA-3
C196 0.611 0.174 0.243 !       0.56 eA-3
Q197 0.079 0.401 0.202 !       0.56 eA-3
Q198 0.172 0.912 0.147 !       0.56 eA-3
C199 0.782 0.226 0.224 !       0.56 eA-3
)
;
_shelx_fab_checksum              63956
_platon_squeeze_void_probe_radius 1.20
_olex2_submission_special_instructions 'No special instructions were received'
_oxdiff_exptl_absorpt_empirical_details
;
Empirical correction (ABSPACK) includes:
- Absorption correction using spherical harmonics
- Frame scaling
;
_oxdiff_exptl_absorpt_empirical_full_max 1.199
_oxdiff_exptl_absorpt_empirical_full_min 0.848
loop_
_space_group_symop_operation_xyz
'x, y, z'
'-x+1/2, -y, z+1/2'
'-x, y+1/2, -z+1/2'
'x+1/2, -y+1/2, -z'
'z, x, y'
'z+1/2, -x+1/2, -y'
'-z+1/2, -x, y+1/2'
'-z, x+1/2, -y+1/2'
'y, z, x'
'-y, z+1/2, -x+1/2'
'y+1/2, -z+1/2, -x'
'-y+1/2, -z, x+1/2'
'x+1/2, y+1/2, z+1/2'
'-x+1, -y+1/2, z+1'
'-x+1/2, y+1, -z+1'
'x+1, -y+1, -z+1/2'
'z+1/2, x+1/2, y+1/2'
'z+1, -x+1, -y+1/2'
'-z+1, -x+1/2, y+1'
'-z+1/2, x+1, -y+1'
'y+1/2, z+1/2, x+1/2'
'-y+1/2, z+1, -x+1'
'y+1, -z+1, -x+1/2'
'-y+1, -z+1/2, x+1'
'-x, -y, -z'
'x-1/2, y, -z-1/2'
'x, -y-1/2, z-1/2'
'-x-1/2, y-1/2, z'
'-z, -x, -y'
'-z-1/2, x-1/2, y'
'z-1/2, x, -y-1/2'
'z, -x-1/2, y-1/2'
'-y, -z, -x'
'y, -z-1/2, x-1/2'
'-y-1/2, z-1/2, x'
'y-1/2, z, -x-1/2'
'-x+1/2, -y+1/2, -z+1/2'
'x, y+1/2, -z'
'x+1/2, -y, z'
'-x, y, z+1/2'
'-z+1/2, -x+1/2, -y+1/2'
'-z, x, y+1/2'
'z, x+1/2, -y'
'z+1/2, -x, y'
'-y+1/2, -z+1/2, -x+1/2'
'y+1/2, -z, x'
'-y, z, x+1/2'
'y, z+1/2, -x'
loop_
_atom_site_label
_atom_site_type_symbol
_atom_site_fract_x
_atom_site_fract_y
_atom_site_fract_z
_atom_site_U_iso_or_equiv
_atom_site_adp_type
_atom_site_occupancy
_atom_site_site_symmetry_order
_atom_site_calc_flag
_atom_site_refinement_flags_posn
_atom_site_refinement_flags_adp
_atom_site_refinement_flags_occupancy
_atom_site_disorder_assembly
_atom_site_disorder_group
Gd1 Gd 0.36401(2) 0.03353(2) 0.30082(2) 0.03689(12) Uani 1 1 d . . . . .
Ni1 Ni 0.47390(4) 0.000000 0.250000 0.0368(3) Uani 1 2 d S T P . .
O1 O 0.43699(11) 0.02492(11) 0.29742(11) 0.0359(9) Uani 1 1 d . . . . .
O2 O 0.55678(12) 0.01957(17) 0.28186(14) 0.0641(14) Uani 1 1 d . . . . .
H2 H 0.560440 0.019216 0.257004 0.096 Uiso 0.5 1 d R . . A -1
O6 O 0.39128(18) 0.10424(15) 0.30029(16) 0.0742(15) Uani 1 1 d . U . . .
O5 O 0.32248(19) 0.09481(18) 0.29453(18) 0.0856(17) Uani 1 1 d . U . . .
O3 O 0.37400(11) 0.03801(11) 0.22983(11) 0.0366(9) Uani 1 1 d . . . . .
O4 O 0.36571(12) 0.03319(12) 0.16360(12) 0.0454(10) Uani 1 1 d . . . . .
O7 O 0.29923(13) 0.00961(16) 0.28276(12) 0.0586(13) Uani 1 1 d . . . . .
N1 N 0.32211(15) 0.03737(15) 0.36747(15) 0.0422(12) Uani 1 1 d . . . . .
N2 N 0.28094(15) 0.03015(15) 0.44216(15) 0.0433(12) Uani 1 1 d . . . . .
N3 N 0.40304(15) 0.04346(14) 0.36638(14) 0.0397(11) Uani 1 1 d . . . . .
N4 N 0.44513(15) 0.04713(15) 0.36406(14) 0.0430(12) Uani 1 1 d . . . . .
N5 N 0.51628(15) 0.02129(17) 0.28981(15) 0.0464(12) Uani 1 1 d . . . . .
C1 C 0.34234(18) 0.03912(17) 0.40397(17) 0.0384(13) Uani 1 1 d . . . . .
C2 C 0.2819(2) 0.0325(2) 0.3692(2) 0.0550(17) Uani 1 1 d . . . . .
H2A H 0.267048 0.031097 0.344941 0.055(19) Uiso 1 1 calc R . . . .
C3 C 0.26113(19) 0.0292(2) 0.40665(18) 0.0478(15) Uani 1 1 d . . . . .
H3 H 0.232786 0.026401 0.406623 0.047(18) Uiso 1 1 calc R . . . .
C4 C 0.32157(18) 0.03558(17) 0.44029(17) 0.0389(13) Uani 1 1 d . . . . .
H4 H 0.336292 0.037001 0.464639 0.029(14) Uiso 1 1 calc R . . . .
C5 C 0.38675(18) 0.04434(17) 0.40219(18) 0.0396(13) Uani 1 1 d . . . . .
C6 C 0.4097(2) 0.0495(2) 0.4421(2) 0.0596(19) Uani 1 1 d . . . . .
H6A H 0.437956 0.055169 0.436516 0.09(3) Uiso 1 1 calc GR . . . .
H6B H 0.407554 0.024751 0.457880 0.09(3) Uiso 1 1 calc GR . . . .
H6C H 0.397990 0.071806 0.457297 0.07(2) Uiso 1 1 calc GR . . . .
C7 C 0.45882(18) 0.03754(17) 0.32817(17) 0.0393(13) Uani 1 1 d . . . . .
C8 C 0.50438(19) 0.0380(2) 0.32347(19) 0.0483(15) Uani 1 1 d . . . . .
C9 C 0.5326(2) 0.0547(3) 0.3550(2) 0.081(3) Uani 1 1 d . . . . .
H9A H 0.523077 0.047310 0.381770 0.122 Uiso 1 1 d R . . . .
H9B H 0.534327 0.084020 0.352930 0.122 Uiso 1 1 d R . . . .
H9C H 0.559217 0.043040 0.350430 0.122 Uiso 1 1 d R . . . .
C10 C 0.3544(3) 0.1185(3) 0.2980(3) 0.086(3) Uani 1 1 d . U . . .
C11 C 0.3493(4) 0.1636(3) 0.2900(4) 0.133(4) Uani 1 1 d . U . . .
H11A H 0.352509 0.174993 0.316928 0.200 Uiso 1 1 d R . . . .
H11B H 0.322539 0.170193 0.279718 0.200 Uiso 1 1 d R . . . .
H11C H 0.369729 0.174853 0.272108 0.200 Uiso 1 1 d R . . . .
C12 C 0.36652(18) 0.05455(17) 0.19530(18) 0.0403(13) Uani 1 1 d . . . . .
C13 C 0.3592(2) 0.09892(18) 0.19323(19) 0.0501(16) Uani 1 1 d . . . . .
H13A H 0.363575 0.108302 0.165701 0.08(2) Uiso 1 1 calc GR . . . .
H13B H 0.377732 0.112778 0.211368 0.038(16) Uiso 1 1 calc GR . . . .
H13C H 0.331495 0.104675 0.201249 0.12(4) Uiso 1 1 calc GR . . . .
C14 C 0.2819(3) 0.000000 0.250000 0.069(3) Uani 1 2 d S TU P . .
C15 C 0.2383(6) -0.0230(6) 0.2540(7) 0.114(7) Uani 0.5 1 d . U . B -1
H15A H 0.238280 -0.052198 0.257232 0.171 Uiso 0.5 1 d R . . B -1
H15B H 0.223880 -0.015788 0.229431 0.171 Uiso 0.5 1 d R . . B -1
H15C H 0.225090 -0.010558 0.277162 0.171 Uiso 0.5 1 d R . . B -1
loop_
_atom_site_aniso_label
_atom_site_aniso_U_11
_atom_site_aniso_U_22
_atom_site_aniso_U_33
_atom_site_aniso_U_23
_atom_site_aniso_U_13
_atom_site_aniso_U_12
Gd1 0.0406(2) 0.03574(19) 0.03428(19) -0.00394(14) 0.00059(14) 0.00592(14)
Ni1 0.0348(7) 0.0378(7) 0.0378(7) 0.0010(6) 0.000 0.000
O1 0.039(2) 0.033(2) 0.036(2) 0.0009(17) -0.0005(17) -0.0011(16)
O2 0.031(2) 0.110(4) 0.052(3) -0.015(3) 0.000(2) -0.008(2)
O6 0.089(3) 0.057(3) 0.076(3) 0.000(2) -0.015(3) -0.003(3)
O5 0.090(3) 0.076(3) 0.091(3) 0.011(3) 0.017(3) 0.033(3)
O3 0.042(2) 0.036(2) 0.031(2) 0.0039(16) -0.0040(17) -0.0031(17)
O4 0.055(3) 0.044(2) 0.037(2) 0.0035(19) 0.0018(19) -0.004(2)
O7 0.040(2) 0.099(4) 0.037(2) -0.015(2) -0.007(2) 0.002(2)
N1 0.042(3) 0.045(3) 0.039(3) -0.002(2) 0.003(2) 0.011(2)
N2 0.039(3) 0.046(3) 0.044(3) -0.009(2) 0.004(2) 0.005(2)
N3 0.046(3) 0.032(3) 0.042(3) -0.005(2) 0.002(2) 0.003(2)
N4 0.040(3) 0.050(3) 0.039(3) -0.005(2) 0.000(2) -0.007(2)
N5 0.036(3) 0.063(3) 0.040(3) 0.001(2) 0.000(2) -0.010(2)
C1 0.041(3) 0.039(3) 0.035(3) -0.007(2) -0.001(3) 0.007(3)
C2 0.047(4) 0.069(5) 0.049(4) -0.011(3) -0.006(3) 0.007(3)
C3 0.042(4) 0.063(4) 0.039(3) -0.009(3) 0.003(3) 0.010(3)
C4 0.043(3) 0.040(3) 0.034(3) -0.009(3) 0.000(3) 0.002(3)
C5 0.045(3) 0.037(3) 0.037(3) -0.007(3) -0.001(3) 0.004(3)
C6 0.054(4) 0.080(5) 0.045(4) -0.010(4) -0.009(3) -0.010(4)
C7 0.046(3) 0.035(3) 0.038(3) -0.002(3) -0.004(3) -0.010(3)
C8 0.044(4) 0.059(4) 0.042(4) 0.002(3) 0.003(3) -0.010(3)
C9 0.052(4) 0.122(8) 0.070(5) -0.036(5) -0.008(4) -0.011(5)
C10 0.110(5) 0.077(4) 0.072(4) -0.002(4) 0.004(4) 0.014(4)
C11 0.176(8) 0.085(6) 0.140(8) -0.017(6) -0.005(7) 0.025(6)
C12 0.038(3) 0.038(3) 0.044(3) 0.000(3) 0.001(3) -0.006(3)
C13 0.069(5) 0.039(3) 0.043(4) 0.011(3) -0.005(3) 0.003(3)
C14 0.059(4) 0.084(5) 0.063(4) -0.008(4) 0.000 0.000
C15 0.108(8) 0.125(8) 0.109(8) -0.005(5) 0.000(5) -0.004(5)
loop_
_atom_type_symbol
_atom_type_description
_atom_type_scat_dispersion_real
_atom_type_scat_dispersion_imag
_atom_type_scat_source
C C 0.0181 0.0091 'International Tables Vol C Tables 4.2.6.8 and 6.1.1.4'
H H 0.0000 0.0000 'International Tables Vol C Tables 4.2.6.8 and 6.1.1.4'
Gd Gd -8.8380 11.9157 'International Tables Vol C Tables 4.2.6.8 and 6.1.1.4'
N N 0.0311 0.0180 'International Tables Vol C Tables 4.2.6.8 and 6.1.1.4'
Ni Ni -3.0029 0.5091 'International Tables Vol C Tables 4.2.6.8 and 6.1.1.4'
O O 0.0492 0.0322 'International Tables Vol C Tables 4.2.6.8 and 6.1.1.4'
loop_
_geom_angle_atom_site_label_1
_geom_angle_atom_site_label_2
_geom_angle_atom_site_label_3
_geom_angle
_geom_angle_site_symmetry_1
_geom_angle_site_symmetry_3
O1 Gd1 Gd1 84.08(9) . 16_445
O1 Gd1 O6 75.63(16) . .
O1 Gd1 O5 130.33(18) . .
O1 Gd1 O3 75.46(12) . 16_445
O1 Gd1 O4 84.04(13) . 16_445
O1 Gd1 N1 124.90(14) . .
O1 Gd1 N3 63.34(14) . .
O1 Gd1 C12 81.78(14) . 16_445
O6 Gd1 Gd1 120.53(13) . 16_445
O6 Gd1 O3 143.33(16) . 16_445
O6 Gd1 N1 98.73(17) . .
O6 Gd1 N3 72.73(16) . .
O6 Gd1 C12 157.19(18) . 16_445
O5 Gd1 Gd1 112.56(15) . 16_445
O5 Gd1 O6 55.3(2) . .
O5 Gd1 O3 142.20(18) . 16_445
O5 Gd1 O4 141.26(17) . 16_445
O5 Gd1 N1 74.59(17) . .
O5 Gd1 N3 104.43(19) . .
O5 Gd1 C12 147.5(2) . 16_445
O3 Gd1 Gd1 34.09(8) 16_445 16_445
O3 Gd1 Gd1 37.76(9) . 16_445
O3 Gd1 O1 79.84(13) . .
O3 Gd1 O6 83.39(16) . .
O3 Gd1 O5 86.71(16) . .
O3 Gd1 O3 69.70(14) . 16_445
O3 Gd1 O4 121.12(13) . 16_445
O3 Gd1 N1 155.04(14) . .
O3 Gd1 N1 116.25(14) 16_445 .
O3 Gd1 N3 139.78(14) . .
O3 Gd1 C12 26.25(14) 16_445 16_445
O3 Gd1 C12 95.84(15) . 16_445
O4 Gd1 Gd1 84.66(9) 16_445 16_445
O4 Gd1 O6 144.91(16) 16_445 .
O4 Gd1 O3 51.44(12) 16_445 16_445
O4 Gd1 N1 69.94(14) 16_445 .
O4 Gd1 N3 72.64(14) 16_445 .
O4 Gd1 C12 25.55(14) 16_445 16_445
O7 Gd1 Gd1 66.69(10) . 16_445
O7 Gd1 O1 148.15(14) . .
O7 Gd1 O6 129.60(18) . .
O7 Gd1 O5 75.4(2) . .
O7 Gd1 O3 73.21(14) . 16_445
O7 Gd1 O3 84.09(14) . .
O7 Gd1 O4 81.01(16) . 16_445
O7 Gd1 N1 75.39(15) . .
O7 Gd1 N3 135.98(15) . .
O7 Gd1 C12 72.68(17) . 16_445
N1 Gd1 Gd1 137.11(11) . 16_445
N1 Gd1 C12 91.52(16) . 16_445
N3 Gd1 Gd1 141.47(10) . 16_445
N3 Gd1 O3 112.70(13) . 16_445
N3 Gd1 N1 62.79(16) . .
N3 Gd1 C12 94.42(16) . 16_445
C12 Gd1 Gd1 59.12(12) 16_445 16_445
O1 Ni1 O1 110.9(2) 16_445 .
O1 Ni1 N2 87.66(16) 16_445 45
O1 Ni1 N2 88.34(16) . 45
O1 Ni1 N2 88.34(16) 16_445 35_655
O1 Ni1 N2 87.66(16) . 35_655
N2 Ni1 N2 173.0(3) 35_655 45
N5 Ni1 O1 171.37(18) 16_445 .
N5 Ni1 O1 171.37(18) . 16_445
N5 Ni1 O1 77.75(17) 16_445 16_445
N5 Ni1 O1 77.75(17) . .
N5 Ni1 N2 92.4(2) . 45
N5 Ni1 N2 92.4(2) 16_445 35_655
N5 Ni1 N2 92.4(2) 16_445 45
N5 Ni1 N2 92.4(2) . 35_655
N5 Ni1 N5 93.6(3) 16_445 .
Ni1 O1 Gd1 129.89(17) . .
C7 O1 Gd1 118.1(3) . .
C7 O1 Ni1 112.0(3) . .
N5 O2 H2 109.5 . .
C10 O6 Gd1 90.0(5) . .
C10 O5 Gd1 92.0(5) . .
Gd1 O3 Gd1 108.15(14) . 16_445
C12 O3 Gd1 90.9(3) . 16_445
C12 O3 Gd1 151.0(4) . .
C12 O4 Gd1 95.9(3) . 16_445
C14 O7 Gd1 135.3(5) . .
C1 N1 Gd1 118.9(4) . .
C2 N1 Gd1 123.9(4) . .
C2 N1 C1 116.6(5) . .
C3 N2 Ni1 122.5(4) . 41
C3 N2 C4 116.5(5) . .
C4 N2 Ni1 121.0(4) . 41
N4 N3 Gd1 118.0(3) . .
C5 N3 Gd1 124.6(4) . .
C5 N3 N4 117.4(5) . .
C7 N4 N3 111.9(5) . .
O2 N5 Ni1 122.2(4) . .
C8 N5 Ni1 119.2(4) . .
C8 N5 O2 118.6(5) . .
N1 C1 C4 120.8(5) . .
N1 C1 C5 116.8(5) . .
C4 C1 C5 122.4(5) . .
N1 C2 H2A 119.1 . .
N1 C2 C3 121.7(6) . .
C3 C2 H2A 119.1 . .
N2 C3 C2 121.6(6) . .
N2 C3 H3 119.2 . .
C2 C3 H3 119.2 . .
N2 C4 C1 122.7(6) . .
N2 C4 H4 118.6 . .
C1 C4 H4 118.6 . .
N3 C5 C1 116.4(5) . .
N3 C5 C6 125.6(6) . .
C1 C5 C6 118.0(5) . .
C5 C6 H6A 109.5 . .
C5 C6 H6B 109.5 . .
C5 C6 H6C 109.5 . .
H6A C6 H6B 109.5 . .
H6A C6 H6C 109.5 . .
H6B C6 H6C 109.5 . .
O1 C7 C8 118.0(5) . .
N4 C7 O1 126.0(5) . .
N4 C7 C8 115.8(5) . .
N5 C8 C7 112.6(5) . .
N5 C8 C9 124.0(6) . .
C9 C8 C7 123.4(6) . .
C8 C9 H9A 109.7 . .
C8 C9 H9B 110.8 . .
C8 C9 H9C 107.9 . .
H9A C9 H9B 109.5 . .
H9A C9 H9C 109.5 . .
H9B C9 H9C 109.4 . .
O6 C10 O5 122.5(8) . .
O6 C10 C11 117.7(10) . .
O5 C10 C11 118.5(9) . .
C10 C11 H11A 102.0 . .
C10 C11 H11B 112.4 . .
C10 C11 H11C 113.7 . .
H11A C11 H11B 109.5 . .
H11A C11 H11C 109.5 . .
H11B C11 H11C 109.5 . .
O3 C12 Gd1 62.8(3) . 16_445
O3 C12 C13 119.3(5) . .
O4 C12 Gd1 58.5(3) . 16_445
O4 C12 O3 120.1(5) . .
O4 C12 C13 120.6(5) . .
C13 C12 Gd1 169.0(4) . 16_445
C12 C13 H13A 109.5 . .
C12 C13 H13B 109.5 . .
C12 C13 H13C 109.5 . .
H13A C13 H13B 109.5 . .
H13A C13 H13C 109.5 . .
H13B C13 H13C 109.5 . .
O7 C14 O7 126.3(10) . 16_445
O7 C14 C15 116.4(9) . .
O7 C14 C15 110.6(9) 16_445 .
C14 C15 H15A 118.2 . .
C14 C15 H15B 104.6 . .
C14 C15 H15C 105.4 . .
H15A C15 H15B 109.5 . .
H15A C15 H15C 109.5 . .
H15B C15 H15C 109.5 . .
loop_
_geom_bond_atom_site_label_1
_geom_bond_atom_site_label_2
_geom_bond_distance
_geom_bond_site_symmetry_2
Gd1 Gd1 3.9753(6) 16_445
Gd1 O1 2.402(4) .
Gd1 O6 2.474(5) .
Gd1 O5 2.426(5) .
Gd1 O3 2.345(4) .
Gd1 O3 2.562(4) 16_445
Gd1 O4 2.469(4) 16_445
Gd1 O7 2.330(4) .
Gd1 N1 2.573(5) .
Gd1 N3 2.512(5) .
Gd1 C12 2.880(6) 16_445
Ni1 O1 2.124(4) 16_445
Ni1 O1 2.124(4) .
Ni1 N2 2.146(5) 45
Ni1 N2 2.146(5) 35_655
Ni1 N5 2.022(5) 16_445
Ni1 N5 2.022(5) .
O1 C7 1.298(6) .
O2 H2 0.8204 .
O2 N5 1.349(6) .
O6 C10 1.293(10) .
O5 C10 1.302(11) .
O3 C12 1.274(7) .
O4 C12 1.248(7) .
O7 C14 1.249(6) .
N1 C1 1.363(7) .
N1 C2 1.323(8) .
N2 C3 1.328(7) .
N2 C4 1.339(7) .
N3 N4 1.381(7) .
N3 C5 1.284(7) .
N4 C7 1.293(7) .
N5 C8 1.287(8) .
C1 C4 1.371(8) .
C1 C5 1.461(8) .
C2 H2A 0.9300 .
C2 C3 1.402(9) .
C3 H3 0.9300 .
C4 H4 0.9300 .
C5 C6 1.512(8) .
C6 H6A 0.9600 .
C6 H6B 0.9600 .
C6 H6C 0.9600 .
C7 C8 1.495(8) .
C8 C9 1.485(9) .
C9 H9A 0.9599 .
C9 H9B 0.9598 .
C9 H9C 0.9602 .
C10 C11 1.506(13) .
C11 H11A 0.9599 .
C11 H11B 0.9600 .
C11 H11C 0.9599 .
C12 C13 1.470(8) .
C13 H13A 0.9600 .
C13 H13B 0.9600 .
C13 H13C 0.9600 .
C14 C15 1.61(2) .
C15 H15A 0.9597 .
C15 H15B 0.9602 .
C15 H15C 0.9602 .
loop_
_geom_torsion_atom_site_label_1
_geom_torsion_atom_site_label_2
_geom_torsion_atom_site_label_3
_geom_torsion_atom_site_label_4
_geom_torsion
_geom_torsion_site_symmetry_1
_geom_torsion_site_symmetry_4
Gd1 O1 C7 N4 14.5(8) . .
Gd1 O1 C7 C8 -171.0(4) . .
Gd1 O6 C10 O5 -4.2(9) . .
Gd1 O6 C10 C11 -170.9(8) . .
Gd1 O5 C10 O6 4.3(9) . .
Gd1 O5 C10 C11 170.9(8) . .
Gd1 O3 C12 Gd1 -132.2(7) . 16_445
Gd1 O3 C12 O4 -12.7(6) 16_445 .
Gd1 O3 C12 O4 -144.9(5) . .
Gd1 O3 C12 C13 35.5(11) . .
Gd1 O3 C12 C13 167.8(5) 16_445 .
Gd1 O4 C12 O3 13.3(6) 16_445 .
Gd1 O4 C12 C13 -167.2(5) 16_445 .
Gd1 O7 C14 O7 20.9(3) . 16_445
Gd1 O7 C14 C15 169.3(8) . .
Gd1 N1 C1 C4 -171.1(4) . .
Gd1 N1 C1 C5 8.1(7) . .
Gd1 N1 C2 C3 171.1(5) . .
Gd1 N3 N4 C7 -11.5(6) . .
Gd1 N3 C5 C1 0.0(7) . .
Gd1 N3 C5 C6 178.8(5) . .
Ni1 O1 C7 N4 -166.6(5) . .
Ni1 O1 C7 C8 7.9(6) . .
Ni1 N2 C3 C2 179.2(5) 41 .
Ni1 N2 C4 C1 -178.7(4) 41 .
Ni1 N5 C8 C7 1.9(7) . .
Ni1 N5 C8 C9 -179.9(6) . .
O1 C7 C8 N5 -6.8(8) . .
O1 C7 C8 C9 175.0(6) . .
O2 N5 C8 C7 -179.8(5) . .
O2 N5 C8 C9 -1.6(10) . .
N1 C1 C4 N2 0.2(9) . .
N1 C1 C5 N3 -5.5(8) . .
N1 C1 C5 C6 175.6(5) . .
N1 C2 C3 N2 -1.4(11) . .
N3 N4 C7 O1 -1.6(8) . .
N3 N4 C7 C8 -176.2(5) . .
N4 N3 C5 C1 -178.1(5) . .
N4 N3 C5 C6 0.7(9) . .
N4 C7 C8 N5 168.3(6) . .
N4 C7 C8 C9 -9.9(10) . .
C1 N1 C2 C3 0.0(10) . .
C2 N1 C1 C4 0.5(9) . .
C2 N1 C1 C5 179.7(5) . .
C3 N2 C4 C1 -1.5(9) . .
C4 N2 C3 C2 2.0(9) . .
C4 C1 C5 N3 173.7(5) . .
C4 C1 C5 C6 -5.2(9) . .
C5 N3 N4 C7 166.8(5) . .
C5 C1 C4 N2 -178.9(5) . .
loop_
_platon_squeeze_void_nr
_platon_squeeze_void_average_x
_platon_squeeze_void_average_y
_platon_squeeze_void_average_z
_platon_squeeze_void_volume
_platon_squeeze_void_count_electrons
_platon_squeeze_void_content
1 0.000 0.000 0.000 90 7 ' '
2 0.500 0.000 0.000 90 7 ' '
3 0.131 0.013 0.189 14037 3271 ' '
4 0.000 0.000 0.500 90 7 ' '
5 0.500 0.000 0.500 90 7 ' '
6 0.000 0.500 0.000 90 7 ' '
7 0.500 0.500 0.500 90 7 ' '
8 0.000 0.500 0.500 90 7 ' '
9 0.500 0.500 1.000 90 7 ' '
