#------------------------------------------------------------------------------
#$Date: 2019-11-17 13:04:36 +0200 (Sun, 17 Nov 2019) $
#$Revision: 230036 $
#$URL: file:///home/coder/svn-repositories/cod/cif/7/04/75/7047517.cif $
#------------------------------------------------------------------------------
#
# This file is available in the Crystallography Open Database (COD),
# http://www.crystallography.net/
#
# All data on this site have been placed in the public domain by the
# contributors.
#
data_7047517
loop_
_publ_author_name
'Chao, Meng-Yao'
'Chen, Jing'
'Young, David J.'
'Zhang, Wen-Hua'
'Lang, Jian-Ping'
_publ_section_title
;
 Smoothing the single-crystal to single-crystal conversions of a
 two-dimensional metal-organic framework via the hetero-metal doping of
 the linear trimetallic secondary building unit.
;
_journal_issue                   38
_journal_name_full
'Dalton transactions (Cambridge, England : 2003)'
_journal_page_first              13722
_journal_page_last               13729
_journal_paper_doi               10.1039/c8dt02813c
_journal_volume                  47
_journal_year                    2018
_chemical_formula_moiety         'C37 H23 Cd1.13 Co0.38 N2 O6 S [+ solvent]'
_chemical_formula_sum            'C37 H23 Cd1.12 Co0.38 N2 O6 S'
_chemical_formula_weight         772.18
_space_group_crystal_system      triclinic
_space_group_IT_number           2
_space_group_name_Hall           '-P 1'
_space_group_name_H-M_alt        'P -1'
_symmetry_space_group_name_Hall  '-P 1'
_symmetry_space_group_name_H-M   'P -1'
_atom_sites_solution_hydrogens   geom
_audit_creation_method           SHELXL-2016/6
_audit_update_record
;
2018-07-09 deposited with the CCDC.
2018-09-10 downloaded from the CCDC.
;
_cell_angle_alpha                69.483(5)
_cell_angle_beta                 84.342(6)
_cell_angle_gamma                79.643(5)
_cell_formula_units_Z            2
_cell_length_a                   12.014(2)
_cell_length_b                   13.990(3)
_cell_length_c                   14.403(3)
_cell_measurement_reflns_used    9964
_cell_measurement_temperature    120(2)
_cell_measurement_theta_max      27.96
_cell_measurement_theta_min      2.25
_cell_volume                     2228.6(8)
_computing_cell_refinement       'Bruker D8 Quest'
_computing_data_collection       'Bruker D8 Quest'
_computing_data_reduction        'Bruker D8 Quest'
_computing_molecular_graphics    'SHELXL-2013 (Sheldrick, 2013)'
_computing_publication_material  'publCIF (Westrip, 2010)'
_computing_structure_refinement  'SHELXL-2016/6 (Sheldrick, 2016)'
_computing_structure_solution    'SHELXT 2014/5 (Sheldrick, 2014)'
_diffrn_ambient_temperature      120(2)
_diffrn_measured_fraction_theta_full 0.994
_diffrn_measured_fraction_theta_max 0.994
_diffrn_measurement_device_type  'Bruker D8 Quest'
_diffrn_measurement_method       'phi and omega scans'
_diffrn_radiation_type           MoK\a
_diffrn_radiation_wavelength     0.71073
_diffrn_reflns_av_R_equivalents  0.1160
_diffrn_reflns_av_unetI/netI     0.1007
_diffrn_reflns_Laue_measured_fraction_full 0.994
_diffrn_reflns_Laue_measured_fraction_max 0.994
_diffrn_reflns_limit_h_max       14
_diffrn_reflns_limit_h_min       -14
_diffrn_reflns_limit_k_max       16
_diffrn_reflns_limit_k_min       -16
_diffrn_reflns_limit_l_max       17
_diffrn_reflns_limit_l_min       -17
_diffrn_reflns_number            32082
_diffrn_reflns_point_group_measured_fraction_full 0.994
_diffrn_reflns_point_group_measured_fraction_max 0.994
_diffrn_reflns_theta_full        25.027
_diffrn_reflns_theta_max         25.027
_diffrn_reflns_theta_min         1.773
_diffrn_standards_decay_%        0
_diffrn_standards_interval_count 0
_diffrn_standards_interval_time  0
_diffrn_standards_number         0
_exptl_absorpt_coefficient_mu    0.766
_exptl_absorpt_correction_T_max  0.798
_exptl_absorpt_correction_T_min  0.763
_exptl_absorpt_correction_type   multi-scan
_exptl_absorpt_process_details
;
 Sheldrick, G.M. SADABS (Program for Scaling and Correction of Area Detector
 Data), version 2008/1; University of G\"ottingen: G\"ottingen, Germany, 2008.
;
_exptl_crystal_colour            purple
_exptl_crystal_density_diffrn    1.151
_exptl_crystal_description       BLOCK
_exptl_crystal_F_000             774
_exptl_crystal_size_max          0.400
_exptl_crystal_size_mid          0.300
_exptl_crystal_size_min          0.300
_refine_diff_density_max         1.450
_refine_diff_density_min         -1.375
_refine_diff_density_rms         0.150
_refine_ls_extinction_coef       0.0101(17)
_refine_ls_extinction_expression Fc^*^=kFc[1+0.001xFc^2^\l^3^/sin(2\q)]^-1/4^
_refine_ls_extinction_method     'SHELXL-2016/6 (Sheldrick 2016)'
_refine_ls_goodness_of_fit_ref   1.089
_refine_ls_hydrogen_treatment    constr
_refine_ls_matrix_type           full
_refine_ls_number_parameters     431
_refine_ls_number_reflns         7838
_refine_ls_number_restraints     0
_refine_ls_restrained_S_all      1.089
_refine_ls_R_factor_all          0.1532
_refine_ls_R_factor_gt           0.0979
_refine_ls_shift/su_max          0.000
_refine_ls_shift/su_mean         0.000
_refine_ls_structure_factor_coef Fsqd
_refine_ls_weighting_details
'w=1/[\s^2^(Fo^2^)+(0.1368P)^2^+8.9869P] where P=(Fo^2^+2Fc^2^)/3'
_refine_ls_weighting_scheme      calc
_refine_ls_wR_factor_gt          0.2483
_refine_ls_wR_factor_ref         0.2980
_reflns_Friedel_coverage         0.000
_reflns_number_gt                4426
_reflns_number_total             7838
_reflns_threshold_expression     'I > 2\s(I)'
_cod_data_source_file            c8dt02813c2.cif
_cod_data_source_block           2
_cod_depositor_comments
'Adding full bibliography for 7047515--7047518.cif.'
_cod_original_cell_volume        2228.7(7)
_cod_database_code               7047517
_publcif_datablock.id            {a1c55c2b-5e7c-4381-a746-8058f2deeaf4}
_shelx_shelxl_version_number     2016/6
_shelx_space_group_comment
;
The symmetry employed for this shelxl refinement is uniquely defined
by the following loop, which should always be used as a source of
symmetry information in preference to the above space-group names.
They are only intended as comments.
;
_shelx_estimated_absorpt_t_min   0.749
_shelx_estimated_absorpt_t_max   0.803
_shelx_res_file
;
TITL mo_b170626d_0m_a.res in P-1
    CD2CO1.res
    created by SHELXL-2016/6 at 13:37:40 on 09-Jul-2018
REM Old TITL mo_b170626d_0m in P-1

REM SHELXT solution in P-1
REM R1 0.306,  Rweak 0.038,  Alpha 0.065,  Orientation as input
REM Formula found by SHELXT:  C90 Cd3 N10 O14 S2

CELL  0.71073  12.0139  13.9905  14.4032   69.483   84.342   79.643
ZERR  2.000   0.0023   0.0026   0.0027    0.005    0.006    0.005
LATT  1
SFAC C H CD CO N O S
UNIT 74 46 2.25 0.75 4 12 2
SHEL 99999 0.84

OMIT     0   2   0
OMIT     1   0   0
OMIT     1   0   1
OMIT     3   0   0
OMIT     4  -1   2
OMIT     0  -1   3
OMIT    -1   3   0

TEMP -153.160
SIZE 0.30 0.30 0.40
L.S. 25
BOND $H
ACTA
FMAP 2
PLAN 20
EXYZ CD1 CO1
EADP CD1 CO1
EXYZ CD2 CO2
EADP CD2 CO2
ABIN
WGHT    0.136800    8.986896
EXTI    0.010121
FVAR       0.10776
CD1   3    0.079663    1.190359    0.122663    10.75000    0.05953    0.03401 =
         0.04504   -0.00433    0.01723   -0.00014
CO1   4    0.079663    1.190359    0.122663    10.25000    0.05953    0.03401 =
         0.04504   -0.00433    0.01723   -0.00014

CD2   3    0.000000    1.000000    0.000000    10.37500    0.07231    0.03349 =
         0.04786   -0.00651    0.02395   -0.00378
CO2   4    0.000000    1.000000    0.000000    10.12500    0.07231    0.03349 =
         0.04786   -0.00651    0.02395   -0.00378
S1    7    0.392709    1.571849    0.051429    11.00000    0.05773    0.05267 =
         0.06699   -0.01635    0.00299   -0.00112
O1    6    0.204834    1.054457    0.190194    11.00000    0.09670    0.04208 =
         0.09196   -0.02010    0.00219   -0.01404
O2    6    0.052646    1.007485    0.153256    11.00000    0.08102    0.05416 =
         0.05048   -0.00515    0.01256    0.00468
O3    6    0.979062    0.202965    0.267039    11.00000    0.09032    0.10193 =
         0.05322    0.00077    0.01273    0.03061
O4    6    0.912378    0.289860    0.123668    11.00000    0.06272    0.06276 =
         0.04210   -0.01193    0.01369   -0.00228
O5    6    0.128492    0.089430    0.918768    11.00000    0.08510    0.03944 =
         0.07732   -0.00821    0.02638   -0.00917
O6    6    0.112167    0.229049    0.962822    11.00000    0.06672    0.04441 =
         0.05149   -0.00768    0.01993   -0.01152
N1    5    0.188187    1.311724    0.110313    11.00000    0.06219    0.04458 =
         0.04339   -0.00285    0.00474   -0.00169
N2    5    0.133963    1.859662    0.016643    11.00000    0.06839    0.03924 =
         0.06156   -0.01406    0.00840    0.00149
C1    1    0.150051    0.988326    0.193981    11.00000    0.06208    0.05804 =
         0.04214    0.00949    0.00985    0.00245
C2    1    0.196171    0.877664    0.246472    11.00000    0.07084    0.05084 =
         0.05246   -0.01085    0.02047    0.00594
C3    1    0.315071    0.848998    0.244457    11.00000    0.06917    0.04854 =
         0.05835    0.00209    0.00835   -0.02546
AFIX  43
H3    2    0.361867    0.899467    0.210089    11.00000   -1.20000
AFIX   0
C4    1    0.364511    0.746622    0.292803    11.00000    0.08803    0.05202 =
         0.04471    0.00270    0.01769   -0.01071
AFIX  43
H4    2    0.444445    0.727175    0.291809    11.00000   -1.20000
AFIX   0
C5    1    0.292841    0.672797    0.343152    11.00000    0.07627    0.04415 =
         0.04748   -0.00890    0.00920   -0.00762
C6    1    0.179143    0.704571    0.345732    11.00000    0.07487    0.04399 =
         0.04701   -0.00586    0.02331    0.01256
AFIX  43
H6    2    0.132043    0.655326    0.382772    11.00000   -1.20000
AFIX   0
C7    1    0.129371    0.802631    0.298359    11.00000    0.07922    0.05802 =
         0.05326   -0.01112    0.01642    0.00409
AFIX  43
H7    2    0.049235    0.820147    0.300519    11.00000   -1.20000
AFIX   0
C8    1    0.901890    0.262412    0.215924    11.00000    0.05438    0.04039 =
         0.04537   -0.00448    0.00583    0.00082
C9    1    0.796027    0.301291    0.262959    11.00000    0.05066    0.04046 =
         0.03722   -0.00833    0.00741   -0.00244
C10   1    0.780008    0.268138    0.366321    11.00000    0.06477    0.06167 =
         0.05045   -0.00836    0.00515    0.01476
AFIX  43
H10   2    0.837651    0.221268    0.407183    11.00000   -1.20000
AFIX   0
C11   1    0.680006    0.303693    0.409107    11.00000    0.08070    0.04165 =
         0.04148   -0.00964    0.01629    0.00755
AFIX  43
H11   2    0.668629    0.277971    0.479171    11.00000   -1.20000
AFIX   0
C12   1    0.596704    0.375475    0.352396    11.00000    0.04939    0.04660 =
         0.03494   -0.01054    0.01047   -0.00841
C13   1    0.614765    0.405663    0.250032    11.00000    0.06182    0.04481 =
         0.03684   -0.00704    0.00838   -0.00001
AFIX  43
H13   2    0.557488    0.452350    0.208591    11.00000   -1.20000
AFIX   0
C14   1    0.712609    0.370097    0.207250    11.00000    0.06520    0.05176 =
         0.03285   -0.01327    0.00537   -0.00932
AFIX  43
H14   2    0.722443    0.394045    0.137021    11.00000   -1.20000
AFIX   0
C15   1    0.143536    0.181325    0.904693    11.00000    0.05559    0.04592 =
         0.04500   -0.00819    0.02141    0.00486
C16   1    0.200332    0.234279    0.808858    11.00000    0.04689    0.04609 =
         0.04201   -0.00492    0.00657   -0.01436
C17   1    0.218074    0.336659    0.789972    11.00000    0.07944    0.04632 =
         0.03633   -0.01066    0.01573   -0.01343
AFIX  43
H17   2    0.197220    0.368496    0.838883    11.00000   -1.20000
AFIX   0
C18   1    0.266861    0.390853    0.698136    11.00000    0.08589    0.04965 =
         0.04346   -0.01264    0.03328   -0.02851
AFIX  43
H18   2    0.276218    0.460577    0.684266    11.00000   -1.20000
AFIX   0
C19   1    0.300928    0.345121    0.628731    11.00000    0.05535    0.05083 =
         0.04522   -0.01007    0.00776   -0.00422
C20   1    0.288439    0.240843    0.649860    11.00000    0.09157    0.03568 =
         0.05409   -0.00766    0.02069   -0.01205
AFIX  43
H20   2    0.315589    0.206596    0.603693    11.00000   -1.20000
AFIX   0
C21   1    0.236095    0.189693    0.738763    11.00000    0.07995    0.03986 =
         0.06431   -0.00744    0.02400   -0.00461
AFIX  43
H21   2    0.224612    0.120730    0.751474    11.00000   -1.20000
AFIX   0
C22   1    0.348222    0.563160    0.394211    11.00000    0.05575    0.05137 =
         0.04745   -0.00695    0.01182    0.00540
C23   1    0.440708    0.519055    0.351080    11.00000    0.07755    0.03936 =
         0.03113   -0.00055    0.00937    0.00307
AFIX  43
H23   2    0.469304    0.557593    0.287666    11.00000   -1.20000
AFIX   0
C24   1    0.492747    0.419026    0.398998    11.00000    0.05528    0.04011 =
         0.03619   -0.01087    0.01204   -0.00320
C25   1    0.446198    0.362595    0.487345    11.00000    0.07023    0.03882 =
         0.03265   -0.00716    0.01064   -0.00350
AFIX  43
H25   2    0.479457    0.292871    0.518863    11.00000   -1.20000
AFIX   0
C26   1    0.351833    0.404133    0.532333    11.00000    0.05970    0.04866 =
         0.03719   -0.01114    0.01047   -0.00275
C27   1    0.301248    0.505144    0.483177    11.00000    0.06048    0.04946 =
         0.04356   -0.01361    0.00764   -0.00024
AFIX  43
H27   2    0.234370    0.534196    0.510840    11.00000   -1.20000
AFIX   0
C28   1    0.141658    1.411852    0.069281    11.00000    0.07312    0.03708 =
         0.05208   -0.00574    0.00588    0.00357
AFIX  43
H28   2    0.064327    1.425398    0.053003    11.00000   -1.20000
AFIX   0
C29   1    0.194521    1.493664    0.049478    11.00000    0.05942    0.02779 =
         0.06150   -0.00063    0.00151   -0.00263
AFIX  43
H29   2    0.156474    1.561978    0.019227    11.00000   -1.20000
AFIX   0
C30   1    0.307909    1.475004    0.074928    11.00000    0.06710    0.04912 =
         0.04381   -0.01121    0.00926   -0.00834
C31   1    0.358182    1.372125    0.117560    11.00000    0.05655    0.04721 =
         0.07357   -0.01544    0.00034    0.00785
AFIX  43
H31   2    0.435115    1.355603    0.135452    11.00000   -1.20000
AFIX   0
C32   1    0.293349    1.294280    0.133315    11.00000    0.06880    0.04419 =
         0.07028   -0.01372    0.00811   -0.00998
AFIX  43
H32   2    0.328113    1.224600    0.162515    11.00000   -1.20000
AFIX   0
C33   1    0.288360    1.683820    0.038736    11.00000    0.06449    0.04733 =
         0.06323   -0.01867    0.00647   -0.01776
C34   1    0.204708    1.685206    0.109424    11.00000    0.06342    0.05310 =
         0.04419   -0.01416    0.00301   -0.00666
AFIX  43
H34   2    0.200275    1.626778    0.167767    11.00000   -1.20000
AFIX   0
C35   1    0.128592    1.771716    0.094184    11.00000    0.07399    0.03828 =
         0.04317   -0.00226    0.00485   -0.01794
AFIX  43
H35   2    0.067021    1.770848    0.141079    11.00000   -1.20000
AFIX   0
C36   1    0.214806    1.858296   -0.049038    11.00000    0.09026    0.05115 =
         0.04426   -0.00901    0.02323   -0.00656
AFIX  43
H36   2    0.218116    1.918553   -0.105754    11.00000   -1.20000
AFIX   0
C37   1    0.297987    1.771718   -0.040323    11.00000    0.05693    0.05716 =
         0.05545   -0.01420    0.01754   -0.01235
AFIX  43
H37   2    0.359087    1.774091   -0.087863    11.00000   -1.20000
AFIX   0
HKLF 4

REM  mo_b170626d_0m_a.res in P-1
REM R1 =  0.0979 for    4426 Fo > 4sig(Fo)  and  0.1532 for all    7838 data
REM    431 parameters refined using      0 restraints

END

WGHT      0.1513      8.1381

REM Highest difference peak  1.450,  deepest hole -1.375,  1-sigma level  0.150
Q1    1   0.1380  1.2006  0.1540  11.00000  0.05    1.41
Q2    1   0.0002  1.1804  0.1036  11.00000  0.05    1.15
Q3    1   0.1051  1.9381 -0.0151  11.00000  0.05    0.97
Q4    1   0.1098  0.0199  1.0043  11.00000  0.05    0.94
Q5    1   0.9687  0.2423  0.1403  11.00000  0.05    0.94
Q6    1  -0.0815  1.0028  0.1395  11.00000  0.05    0.81
Q7    1   0.2022  1.1529  0.0939  11.00000  0.05    0.78
Q8    1   0.0127  0.1784  0.9678  11.00000  0.05    0.75
Q9    1   0.3631  0.8873  0.1589  11.00000  0.05    0.74
Q10   1  -0.0242  0.9591  0.1634  11.00000  0.05    0.73
Q11   1  -0.0463  1.4192  0.0372  11.00000  0.05    0.73
Q12   1   0.7965  0.5004  0.0893  11.00000  0.05    0.71
Q13   1   0.1367  1.0218  0.2502  11.00000  0.05    0.69
Q14   1   0.3562  1.3357  0.2244  11.00000  0.05    0.66
Q15   1   0.0584  1.0385  0.0598  11.00000  0.05    0.62
Q16   1   0.1264  1.4861 -0.0226  11.00000  0.05    0.60
Q17   1   0.2769  1.5449  0.1761  11.00000  0.05    0.59
Q18   1   1.0618  0.1559  0.2333  11.00000  0.05    0.57
Q19   1   0.1897  1.8996 -0.0052  11.00000  0.05    0.56
Q20   1   0.2994  1.0787  0.1907  11.00000  0.05    0.56
;
_shelx_res_checksum              53667
_shelx_fab_file
;
    1    0    0    -64.93      0.00
    2    0    0    100.16      0.00
    3    0    0    -16.24      0.00
    4    0    0     38.47      0.00
    5    0    0     11.28      0.00
    6    0    0      0.51      0.00
    7    0    0     -5.72      0.00
    8    0    0      7.10      0.00
    9    0    0      6.92      0.00
   10    0    0      0.32      0.00
   11    0    0     -1.58      0.00
   12    0    0     -0.25      0.00
   13    0    0      2.73      0.00
   14    0    0      1.11      0.00
  -14    1    0     -0.91      0.00
  -13    1    0     -4.56      0.00
  -12    1    0     -1.20      0.00
  -11    1    0     -2.73      0.00
  -10    1    0      3.42      0.00
   -9    1    0     -6.22      0.00
   -8    1    0     -2.31      0.00
   -7    1    0     -0.08      0.00
   -6    1    0      5.68      0.00
   -5    1    0     -1.72      0.00
   -4    1    0     -9.50      0.00
   -3    1    0    -17.68      0.00
   -2    1    0     43.83      0.00
    1    1    0   -217.61      0.00
    2    1    0      8.13      0.00
    3    1    0    -56.10      0.00
    4    1    0    -14.59      0.00
    5    1    0    -36.41      0.00
    6    1    0    -15.69      0.00
    7    1    0     -1.48      0.00
    8    1    0      4.23      0.00
    9    1    0     -5.21      0.00
   10    1    0     -4.94      0.00
   11    1    0      5.23      0.00
   12    1    0     -3.87      0.00
   13    1    0     -0.60      0.00
   14    1    0     -4.40      0.00
  -14    2    0     -0.28      0.00
  -13    2    0      1.79      0.00
  -12    2    0      4.23      0.00
  -11    2    0     -0.81      0.00
  -10    2    0      4.60      0.00
   -9    2    0      1.09      0.00
   -8    2    0     16.06      0.00
   -7    2    0      3.47      0.00
   -6    2    0     -1.97      0.00
   -5    2    0      1.99      0.00
   -4    2    0      6.47      0.00
   -3    2    0     15.77      0.00
   -2    2    0     -1.19      0.00
   -1    2    0    -32.09      0.00
    0    2    0    107.38      0.00
    1    2    0      4.25      0.00
    2    2    0     35.69      0.00
    3    2    0      4.74      0.00
    4    2    0     11.36      0.00
    5    2    0     24.87      0.00
    6    2    0     26.08      0.00
    7    2    0     11.62      0.00
    8    2    0      5.65      0.00
    9    2    0      4.50      0.00
   10    2    0      6.16      0.00
   11    2    0      3.64      0.00
   12    2    0     -5.22      0.00
   13    2    0      1.08      0.00
   14    2    0      0.17      0.00
  -14    3    0     -0.87      0.00
  -13    3    0      0.35      0.00
  -12    3    0     -4.30      0.00
  -11    3    0     -3.27      0.00
  -10    3    0      2.58      0.00
   -9    3    0     -7.92      0.00
   -8    3    0     -2.43      0.00
   -7    3    0    -15.28      0.00
   -6    3    0     -1.90      0.00
   -5    3    0      0.86      0.00
   -4    3    0     -4.01      0.00
   -3    3    0     -9.30      0.00
   -2    3    0     -6.12      0.00
   -1    3    0     21.73      0.00
    0    3    0     45.17      0.00
    1    3    0     -9.41      0.00
    2    3    0    -46.17      0.00
    3    3    0      3.45      0.00
    4    3    0     -0.41      0.00
    5    3    0     -1.32      0.00
    6    3    0    -17.54      0.00
    7    3    0    -17.15      0.00
    8    3    0     -3.94      0.00
    9    3    0     -1.59      0.00
   10    3    0     -4.12      0.00
   11    3    0     -3.06      0.00
   12    3    0      2.20      0.00
   13    3    0      0.19      0.00
   14    3    0      0.65      0.00
  -13    4    0     -0.91      0.00
  -12    4    0     -0.70      0.00
  -11    4    0      4.10      0.00
  -10    4    0      0.15      0.00
   -9    4    0     -3.16      0.00
   -8    4    0     10.31      0.00
   -7    4    0      9.57      0.00
   -6    4    0     16.32      0.00
   -5    4    0      2.74      0.00
   -4    4    0     15.45      0.00
   -3    4    0     12.95      0.00
   -2    4    0     21.41      0.00
   -1    4    0      5.11      0.00
    0    4    0      2.52      0.00
    1    4    0      8.77      0.00
    2    4    0     -9.13      0.00
    3    4    0      7.77      0.00
    4    4    0     -4.52      0.00
    5    4    0     -4.50      0.00
    6    4    0      1.27      0.00
    7    4    0     12.13      0.00
    8    4    0      4.00      0.00
    9    4    0      2.14      0.00
   10    4    0     -0.08      0.00
   11    4    0      6.14      0.00
   12    4    0     -0.24      0.00
   13    4    0     -5.71      0.00
   14    4    0     -0.65      0.00
  -13    5    0     -1.55      0.00
  -12    5    0      1.92      0.00
  -11    5    0     -1.19      0.00
  -10    5    0     -1.59      0.00
   -9    5    0      3.76      0.00
   -8    5    0     -0.76      0.00
   -7    5    0     -4.79      0.00
   -6    5    0     -7.28      0.00
   -5    5    0    -12.80      0.00
   -4    5    0      3.82      0.00
   -3    5    0    -18.39      0.00
   -2    5    0    -19.92      0.00
   -1    5    0    -17.10      0.00
    0    5    0      6.23      0.00
    1    5    0      4.56      0.00
    2    5    0    -18.66      0.00
    3    5    0    -12.07      0.00
    4    5    0      7.63      0.00
    5    5    0      5.49      0.00
    6    5    0      3.29      0.00
    7    5    0      0.57      0.00
    8    5    0    -12.08      0.00
    9    5    0      1.24      0.00
   10    5    0     -2.21      0.00
   11    5    0      1.39      0.00
   12    5    0     -7.33      0.00
   13    5    0      0.32      0.00
   14    5    0      2.55      0.00
  -12    6    0     -0.09      0.00
  -11    6    0     -0.52      0.00
  -10    6    0      4.85      0.00
   -9    6    0      3.15      0.00
   -8    6    0     -2.18      0.00
   -7    6    0      6.16      0.00
   -6    6    0      8.34      0.00
   -5    6    0      1.28      0.00
   -4    6    0      8.18      0.00
   -3    6    0     -1.42      0.00
   -2    6    0     13.65      0.00
   -1    6    0     21.85      0.00
    0    6    0     11.27      0.00
    1    6    0      6.92      0.00
    2    6    0      2.44      0.00
    3    6    0      8.31      0.00
    4    6    0     15.78      0.00
    5    6    0     -3.21      0.00
    6    6    0     -1.67      0.00
    7    6    0      0.36      0.00
    8    6    0     -1.02      0.00
    9    6    0      2.00      0.00
   10    6    0     -2.31      0.00
   11    6    0      3.76      0.00
   12    6    0      1.89      0.00
   13    6    0      2.59      0.00
   14    6    0      2.95      0.00
  -12    7    0     -0.12      0.00
  -11    7    0      0.96      0.00
  -10    7    0     -2.83      0.00
   -9    7    0     -1.17      0.00
   -8    7    0     -2.00      0.00
   -7    7    0     -0.16      0.00
   -6    7    0     -0.73      0.00
   -5    7    0     -8.70      0.00
   -4    7    0      2.29      0.00
   -3    7    0     -1.18      0.00
   -2    7    0     -2.27      0.00
   -1    7    0     -9.89      0.00
    0    7    0     -7.23      0.00
    1    7    0      7.11      0.00
    2    7    0     -3.25      0.00
    3    7    0     -9.82      0.00
    4    7    0     -5.30      0.00
    5    7    0     -5.53      0.00
    6    7    0     -0.64      0.00
    7    7    0     -1.39      0.00
    8    7    0     -1.19      0.00
    9    7    0     -3.65      0.00
   10    7    0      2.40      0.00
   11    7    0      1.56      0.00
   12    7    0     -1.93      0.00
   13    7    0     -3.70      0.00
   14    7    0      1.99      0.00
  -11    8    0     -0.30      0.00
  -10    8    0      0.07      0.00
   -9    8    0      6.88      0.00
   -8    8    0      3.71      0.00
   -7    8    0      1.83      0.00
   -6    8    0      6.94      0.00
   -5    8    0      0.14      0.00
   -4    8    0      3.82      0.00
   -3    8    0     -2.39      0.00
   -2    8    0      0.63      0.00
   -1    8    0      6.28      0.00
    0    8    0     11.03      0.00
    1    8    0      3.87      0.00
    2    8    0     -6.03      0.00
    3    8    0     -3.09      0.00
    4    8    0      3.49      0.00
    5    8    0      4.41      0.00
    6    8    0     -2.44      0.00
    7    8    0      1.19      0.00
    8    8    0      3.64      0.00
    9    8    0      0.50      0.00
   10    8    0      2.82      0.00
   11    8    0     -1.44      0.00
   12    8    0      3.50      0.00
   13    8    0      1.42      0.00
   14    8    0      3.53      0.00
  -11    9    0     -2.48      0.00
  -10    9    0      0.98      0.00
   -9    9    0     -0.37      0.00
   -8    9    0     -1.11      0.00
   -7    9    0     -6.26      0.00
   -6    9    0     -0.14      0.00
   -5    9    0     -5.92      0.00
   -4    9    0     -2.17      0.00
   -3    9    0      0.11      0.00
   -2    9    0      4.31      0.00
   -1    9    0     -0.47      0.00
    0    9    0     -5.32      0.00
    1    9    0     -3.52      0.00
    2    9    0      2.83      0.00
    3    9    0      0.39      0.00
    4    9    0     -3.02      0.00
    5    9    0      1.23      0.00
    6    9    0     -2.85      0.00
    7    9    0      4.88      0.00
    8    9    0      1.53      0.00
    9    9    0      1.47      0.00
   10    9    0      1.66      0.00
   11    9    0      1.21      0.00
   12    9    0      2.71      0.00
   13    9    0      0.14      0.00
  -10   10    0      1.07      0.00
   -9   10    0     -1.21      0.00
   -8   10    0      0.81      0.00
   -7   10    0     -2.39      0.00
   -6   10    0      6.49      0.00
   -5   10    0      3.03      0.00
   -4   10    0      2.64      0.00
   -3   10    0      3.44      0.00
   -2   10    0     -0.87      0.00
   -1   10    0     -1.82      0.00
    0   10    0      2.91      0.00
    1   10    0      3.75      0.00
    2   10    0      2.16      0.00
    3   10    0     -5.58      0.00
    4   10    0     -4.05      0.00
    5   10    0      1.64      0.00
    6   10    0      1.17      0.00
    7   10    0      3.84      0.00
    8   10    0      0.77      0.00
    9   10    0      3.56      0.00
   10   10    0     -0.26      0.00
   11   10    0     -2.88      0.00
   12   10    0     -0.11      0.00
   13   10    0      3.05      0.00
   -9   11    0      0.61      0.00
   -8   11    0     -0.62      0.00
   -7   11    0      0.61      0.00
   -6   11    0      0.55      0.00
   -5   11    0     -4.47      0.00
   -4   11    0     -3.50      0.00
   -3   11    0     -2.66      0.00
   -2   11    0      0.03      0.00
   -1   11    0      2.28      0.00
    0   11    0     -0.10      0.00
    1   11    0     -4.21      0.00
    2   11    0      1.39      0.00
    3   11    0      0.24      0.00
    4   11    0      0.96      0.00
    5   11    0      3.14      0.00
    6   11    0      1.88      0.00
    7   11    0     -1.19      0.00
    8   11    0      0.72      0.00
    9   11    0      0.24      0.00
   10   11    0     -0.16      0.00
   11   11    0     -1.60      0.00
   12   11    0      2.37      0.00
   -8   12    0     -1.38      0.00
   -7   12    0      0.29      0.00
   -6   12    0     -2.47      0.00
   -5   12    0      2.93      0.00
   -4   12    0      2.00      0.00
   -3   12    0      0.95      0.00
   -2   12    0      3.05      0.00
   -1   12    0     -6.03      0.00
    0   12    0     -3.52      0.00
    1   12    0      0.78      0.00
    2   12    0      3.54      0.00
    3   12    0     -0.96      0.00
    4   12    0     -2.53      0.00
    5   12    0      0.77      0.00
    6   12    0     -1.94      0.00
    7   12    0      2.17      0.00
    8   12    0      4.38      0.00
    9   12    0      1.32      0.00
   10   12    0      2.99      0.00
   11   12    0     -2.12      0.00
   -7   13    0     -0.93      0.00
   -6   13    0      2.65      0.00
   -5   13    0      3.13      0.00
   -4   13    0     -3.37      0.00
   -3   13    0     -1.98      0.00
   -2   13    0     -1.54      0.00
   -1   13    0     -0.60      0.00
    0   13    0      5.62      0.00
    1   13    0      2.68      0.00
    2   13    0     -2.11      0.00
    3   13    0     -0.75      0.00
    4   13    0     -1.83      0.00
    5   13    0      1.63      0.00
    6   13    0     -1.84      0.00
    7   13    0      3.26      0.00
    8   13    0     -1.29      0.00
    9   13    0     -3.30      0.00
   10   13    0     -2.82      0.00
   -5   14    0     -0.53      0.00
   -4   14    0     -0.10      0.00
   -3   14    0      2.05      0.00
   -2   14    0      1.77      0.00
   -1   14    0      2.02      0.00
    0   14    0     -4.21      0.00
    1   14    0     -2.92      0.00
    2   14    0     -0.47      0.00
    3   14    0      1.24      0.00
    4   14    0     -0.53      0.00
    5   14    0      0.01      0.00
    6   14    0     -1.77      0.00
    7   14    0      1.27      0.00
    8   14    0     -0.12      0.00
    9   14    0     -0.12      0.00
   -3   15    0      0.16      0.00
   -2   15    0     -4.74      0.00
   -1   15    0     -0.32      0.00
    0   15    0     -2.07      0.00
    1   15    0      5.44      0.00
    2   15    0      1.19      0.00
    3   15    0     -3.15      0.00
    4   15    0     -2.04      0.00
    5   15    0     -3.56      0.00
    6   15    0      0.50      0.00
    7   15    0      0.58      0.00
    8   15    0      0.78      0.00
    0   16    0     -0.91      0.00
    1   16    0      1.68      0.00
    2   16    0     -3.66      0.00
    3   16    0     -1.35      0.00
    4   16    0      2.02      0.00
    5   16    0      1.36      0.00
   -2  -16    1     -2.03      0.00
   -7  -15    1      1.19      0.00
   -6  -15    1     -5.46      0.00
   -5  -15    1      2.38      0.00
   -4  -15    1     -0.77      0.00
   -3  -15    1      6.96      0.00
   -2  -15    1      0.19      0.00
   -1  -15    1      2.16      0.00
    0  -15    1     -4.09      0.00
    1  -15    1     -1.18      0.00
    2  -15    1      3.95      0.00
    3  -15    1      4.45      0.00
   -9  -14    1     -1.13      0.00
   -8  -14    1      1.12      0.00
   -7  -14    1      0.75      0.00
   -6  -14    1     -1.33      0.00
   -5  -14    1      8.78      0.00
   -4  -14    1     -0.43      0.00
   -3  -14    1      1.09      0.00
   -2  -14    1     -2.38      0.00
   -1  -14    1     -0.46      0.00
    0  -14    1      1.18      0.00
    1  -14    1      2.67      0.00
    2  -14    1      1.72      0.00
    3  -14    1     -3.51      0.00
    4  -14    1     -3.72      0.00
    5  -14    1     -3.39      0.00
  -10  -13    1     -3.31      0.00
   -9  -13    1      2.87      0.00
   -8  -13    1      0.47      0.00
   -7  -13    1     -1.00      0.00
   -6  -13    1      0.66      0.00
   -5  -13    1     -1.00      0.00
   -4  -13    1     -3.77      0.00
   -3  -13    1      0.81      0.00
   -2  -13    1      4.18      0.00
   -1  -13    1      2.54      0.00
    0  -13    1      0.83      0.00
    1  -13    1     -3.05      0.00
    2  -13    1     -0.96      0.00
    3  -13    1      1.48      0.00
    4  -13    1      2.61      0.00
    5  -13    1      1.61      0.00
    6  -13    1      2.75      0.00
  -11  -12    1      2.75      0.00
  -10  -12    1      0.16      0.00
   -9  -12    1     -0.77      0.00
   -8  -12    1     -2.81      0.00
   -7  -12    1     -3.43      0.00
   -6  -12    1     -2.28      0.00
   -5  -12    1     -1.33      0.00
   -4  -12    1      3.90      0.00
   -3  -12    1     -0.76      0.00
   -2  -12    1      0.35      0.00
   -1  -12    1     -4.49      0.00
    0  -12    1     -3.48      0.00
    1  -12    1      1.65      0.00
    2  -12    1      3.45      0.00
    3  -12    1     -1.51      0.00
    4  -12    1     -1.62      0.00
    5  -12    1     -2.91      0.00
    6  -12    1     -2.80      0.00
    7  -12    1      0.54      0.00
  -12  -11    1      0.35      0.00
  -11  -11    1     -1.69      0.00
  -10  -11    1     -1.78      0.00
   -9  -11    1     -2.13      0.00
   -8  -11    1      0.60      0.00
   -7  -11    1     -0.73      0.00
   -6  -11    1      1.85      0.00
   -5  -11    1      2.79      0.00
   -4  -11    1     -0.15      0.00
   -3  -11    1     -1.14      0.00
   -2  -11    1      2.82      0.00
   -1  -11    1      4.52      0.00
    0  -11    1      4.13      0.00
    1  -11    1      5.72      0.00
    2  -11    1     -3.63      0.00
    3  -11    1     -0.02      0.00
    4  -11    1      4.09      0.00
    5  -11    1      2.64      0.00
    6  -11    1      3.85      0.00
    7  -11    1      3.70      0.00
    8  -11    1     -1.83      0.00
    9  -11    1      2.19      0.00
  -12  -10    1      2.26      0.00
  -11  -10    1      2.80      0.00
  -10  -10    1      1.88      0.00
   -9  -10    1     -2.93      0.00
   -8  -10    1     -3.67      0.00
   -7  -10    1     -1.78      0.00
   -6  -10    1     -6.13      0.00
   -5  -10    1     -2.09      0.00
   -4  -10    1     -3.37      0.00
   -3  -10    1      2.82      0.00
   -2  -10    1     -1.61      0.00
   -1  -10    1     -2.70      0.00
    0  -10    1     -7.09      0.00
    1  -10    1     -3.35      0.00
    2  -10    1     -4.53      0.00
    3  -10    1      1.59      0.00
    4  -10    1     -2.17      0.00
    5  -10    1     -3.43      0.00
    6  -10    1     -4.70      0.00
    7  -10    1     -3.70      0.00
    8  -10    1     -2.83      0.00
    9  -10    1      0.55      0.00
   10  -10    1     -0.41      0.00
  -13   -9    1     -9.13      0.00
  -12   -9    1      0.80      0.00
  -11   -9    1      1.25      0.00
  -10   -9    1     -3.52      0.00
   -9   -9    1     -1.54      0.00
   -8   -9    1     -0.27      0.00
   -7   -9    1     -1.39      0.00
   -6   -9    1     -2.92      0.00
   -5   -9    1      9.75      0.00
   -4   -9    1      2.19      0.00
   -3   -9    1      6.54      0.00
   -2   -9    1     -1.92      0.00
   -1   -9    1      0.32      0.00
    0   -9    1      5.75      0.00
    1   -9    1      4.43      0.00
    2   -9    1      1.05      0.00
    3   -9    1     -2.63      0.00
    4   -9    1      3.80      0.00
    5   -9    1      2.25      0.00
    6   -9    1      3.41      0.00
    7   -9    1      5.36      0.00
    8   -9    1      3.53      0.00
    9   -9    1      1.33      0.00
   10   -9    1      0.80      0.00
  -13   -8    1     -3.96      0.00
  -12   -8    1      4.25      0.00
  -11   -8    1     -0.51      0.00
  -10   -8    1     -2.33      0.00
   -9   -8    1     -0.46      0.00
   -8   -8    1     -5.39      0.00
   -7   -8    1     -4.12      0.00
   -6   -8    1      3.38      0.00
   -5   -8    1      0.53      0.00
   -4   -8    1    -10.64      0.00
   -3   -8    1      0.27      0.00
   -2   -8    1     -2.55      0.00
   -1   -8    1     -1.16      0.00
    0   -8    1     -2.35      0.00
    1   -8    1    -11.46      0.00
    2   -8    1     -5.20      0.00
    3   -8    1     -3.28      0.00
    4   -8    1      4.19      0.00
    5   -8    1     -6.87      0.00
    6   -8    1     -1.93      0.00
    7   -8    1     -3.96      0.00
    8   -8    1     -4.70      0.00
    9   -8    1     -4.43      0.00
   10   -8    1     -1.07      0.00
   11   -8    1      0.20      0.00
  -14   -7    1     -2.03      0.00
  -13   -7    1     -1.46      0.00
  -12   -7    1     -1.44      0.00
  -11   -7    1     -1.25      0.00
  -10   -7    1     -1.69      0.00
   -9   -7    1     -0.15      0.00
   -8   -7    1      2.43      0.00
   -7   -7    1      3.83      0.00
   -6   -7    1      3.04      0.00
   -5   -7    1      0.18      0.00
   -4   -7    1      5.25      0.00
   -3   -7    1     15.66      0.00
   -2   -7    1      3.28      0.00
   -1   -7    1     -2.94      0.00
    0   -7    1      0.79      0.00
    1   -7    1      6.97      0.00
    2   -7    1      9.58      0.00
    3   -7    1      2.91      0.00
    4   -7    1      2.36      0.00
    5   -7    1      1.97      0.00
    6   -7    1      7.64      0.00
    7   -7    1     -2.35      0.00
    8   -7    1      2.21      0.00
    9   -7    1      0.68      0.00
   10   -7    1      0.95      0.00
   11   -7    1      0.11      0.00
   12   -7    1     -0.98      0.00
  -14   -6    1      1.46      0.00
  -13   -6    1      0.62      0.00
  -12   -6    1     -1.79      0.00
  -11   -6    1      0.69      0.00
  -10   -6    1      0.22      0.00
   -9   -6    1      1.98      0.00
   -8   -6    1     -1.10      0.00
   -7   -6    1     -4.14      0.00
   -6   -6    1     -1.11      0.00
   -5   -6    1      0.82      0.00
   -4   -6    1     -5.64      0.00
   -3   -6    1    -13.81      0.00
   -2   -6    1    -14.30      0.00
   -1   -6    1    -12.85      0.00
    0   -6    1     -2.30      0.00
    1   -6    1    -10.48      0.00
    2   -6    1    -15.63      0.00
    3   -6    1    -10.10      0.00
    4   -6    1     -4.39      0.00
    5   -6    1     -2.05      0.00
    6   -6    1     -6.77      0.00
    7   -6    1     -8.56      0.00
    8   -6    1      4.89      0.00
    9   -6    1     -2.09      0.00
   10   -6    1     -2.66      0.00
   11   -6    1     -0.53      0.00
   12   -6    1      1.09      0.00
  -14   -5    1     -3.14      0.00
  -13   -5    1     -0.39      0.00
  -12   -5    1      0.00      0.00
  -11   -5    1      1.76      0.00
  -10   -5    1      1.19      0.00
   -9   -5    1      1.24      0.00
   -8   -5    1      1.75      0.00
   -7   -5    1     11.44      0.00
   -6   -5    1     -0.31      0.00
   -5   -5    1     -3.27      0.00
   -4   -5    1     -5.83      0.00
   -3   -5    1      3.06      0.00
   -2   -5    1     23.22      0.00
   -1   -5    1     -1.35      0.00
    0   -5    1      7.48      0.00
    1   -5    1     -1.82      0.00
    2   -5    1     18.14      0.00
    3   -5    1     14.05      0.00
    4   -5    1      7.86      0.00
    5   -5    1      4.04      0.00
    6   -5    1      9.07      0.00
    7   -5    1      5.14      0.00
    8   -5    1      3.06      0.00
    9   -5    1     -5.05      0.00
   10   -5    1     -2.87      0.00
   11   -5    1      1.33      0.00
   12   -5    1      0.62      0.00
   13   -5    1     -1.94      0.00
  -14   -4    1     -0.29      0.00
  -13   -4    1      5.47      0.00
  -12   -4    1     -0.36      0.00
  -11   -4    1     -3.67      0.00
  -10   -4    1     -0.89      0.00
   -9   -4    1     -1.21      0.00
   -8   -4    1     -3.15      0.00
   -7   -4    1     -4.73      0.00
   -6   -4    1    -19.88      0.00
   -5   -4    1      0.57      0.00
   -4   -4    1      5.79      0.00
   -3   -4    1     -1.61      0.00
   -2   -4    1      7.06      0.00
   -1   -4    1    -29.77      0.00
    0   -4    1      1.07      0.00
    1   -4    1     -1.32      0.00
    2   -4    1      0.51      0.00
    3   -4    1    -20.12      0.00
    4   -4    1    -10.04      0.00
    5   -4    1     -7.30      0.00
    6   -4    1     -1.71      0.00
    7   -4    1    -16.93      0.00
    8   -4    1     -5.28      0.00
    9   -4    1      0.37      0.00
   10   -4    1      0.98      0.00
   11   -4    1      1.03      0.00
   12   -4    1     -0.70      0.00
   13   -4    1     -0.20      0.00
  -14   -3    1      1.70      0.00
  -13   -3    1      2.42      0.00
  -12   -3    1     -2.80      0.00
  -11   -3    1     -0.44      0.00
  -10   -3    1      7.66      0.00
   -9   -3    1      0.74      0.00
   -8   -3    1      0.58      0.00
   -7   -3    1      8.38      0.00
   -6   -3    1     17.46      0.00
   -5   -3    1     17.17      0.00
   -4   -3    1      3.55      0.00
   -3   -3    1    -13.62      0.00
   -2   -3    1     37.12      0.00
   -1   -3    1    -13.23      0.00
    0   -3    1      2.73      0.00
    1   -3    1    -20.22      0.00
    2   -3    1    -16.43      0.00
    3   -3    1     -0.73      0.00
    4   -3    1      5.36      0.00
    5   -3    1     -3.38      0.00
    6   -3    1      0.44      0.00
    7   -3    1     -0.50      0.00
    8   -3    1     10.80      0.00
    9   -3    1      2.97      0.00
   10   -3    1     -1.70      0.00
   11   -3    1     -0.35      0.00
   12   -3    1      1.08      0.00
   13   -3    1      1.46      0.00
   14   -3    1     -1.52      0.00
  -14   -2    1      0.77      0.00
  -13   -2    1      0.28      0.00
  -12   -2    1     -0.03      0.00
  -11   -2    1     -0.67      0.00
  -10   -2    1     -0.48      0.00
   -9   -2    1     -8.64      0.00
   -8   -2    1     -1.81      0.00
   -7   -2    1     -3.38      0.00
   -6   -2    1     -9.41      0.00
   -5   -2    1    -34.40      0.00
   -4   -2    1     -6.51      0.00
   -3   -2    1    -17.35      0.00
   -2   -2    1     32.83      0.00
   -1   -2    1    -74.64      0.00
    0   -2    1    -39.34      0.00
    1   -2    1    -23.64      0.00
    2   -2    1     17.63      0.00
    3   -2    1     10.35      0.00
    4   -2    1    -10.20      0.00
    5   -2    1      1.27      0.00
    6   -2    1      5.47      0.00
    7   -2    1      0.89      0.00
    8   -2    1     -5.07      0.00
    9   -2    1     -5.76      0.00
   10   -2    1      0.09      0.00
   11   -2    1      2.21      0.00
   12   -2    1      1.05      0.00
   13   -2    1     -1.69      0.00
   14   -2    1     -1.29      0.00
  -14   -1    1     -0.39      0.00
  -13   -1    1      4.95      0.00
  -12   -1    1      0.60      0.00
  -11   -1    1     -2.83      0.00
  -10   -1    1     -0.97      0.00
   -9   -1    1      1.02      0.00
   -8   -1    1      2.26      0.00
   -7   -1    1    -11.14      0.00
   -6   -1    1      7.83      0.00
   -5   -1    1      8.24      0.00
   -4   -1    1     49.60      0.00
   -3   -1    1    -16.08      0.00
   -2   -1    1     62.12      0.00
   -1   -1    1    -12.53      0.00
    1   -1    1      5.17      0.00
    2   -1    1     16.85      0.00
    3   -1    1    -15.67      0.00
    4   -1    1     -3.16      0.00
    5   -1    1      9.33      0.00
    6   -1    1    -11.72      0.00
    7   -1    1     -3.91      0.00
    8   -1    1     -3.82      0.00
    9   -1    1      1.20      0.00
   10   -1    1     -0.07      0.00
   11   -1    1     -3.68      0.00
   12   -1    1     -1.88      0.00
   13   -1    1     -2.24      0.00
   14   -1    1      2.39      0.00
  -14    0    1     -2.11      0.00
  -13    0    1      0.41      0.00
  -12    0    1     -2.21      0.00
  -11    0    1      1.31      0.00
  -10    0    1      2.38      0.00
   -9    0    1      0.42      0.00
   -8    0    1     -4.80      0.00
   -7    0    1      1.38      0.00
   -6    0    1     24.07      0.00
   -5    0    1     -4.07      0.00
   -4    0    1     -3.45      0.00
   -3    0    1    -42.63      0.00
   -2    0    1     46.94      0.00
    1    0    1   -125.01      0.00
    2    0    1     -2.45      0.00
    3    0    1    -17.04      0.00
    4    0    1     -5.88      0.00
    5    0    1    -12.07      0.00
    6    0    1     -8.29      0.00
    7    0    1     14.19      0.00
    8    0    1     -3.09      0.00
    9    0    1     -0.62      0.00
   10    0    1     -1.14      0.00
   11    0    1      4.46      0.00
   12    0    1      3.86      0.00
   13    0    1      0.76      0.00
   14    0    1      0.77      0.00
  -14    1    1      1.06      0.00
  -13    1    1      0.18      0.00
  -12    1    1      4.03      0.00
  -11    1    1      0.37      0.00
  -10    1    1     -1.97      0.00
   -9    1    1     -3.88      0.00
   -8    1    1      1.54      0.00
   -7    1    1      1.36      0.00
   -6    1    1    -10.89      0.00
   -5    1    1    -18.24      0.00
   -4    1    1     -5.36      0.00
   -3    1    1     -0.26      0.00
   -2    1    1    -10.10      0.00
   -1    1    1    -59.14      0.00
    0    1    1    -76.77      0.00
    1    1    1     52.62      0.00
    2    1    1     99.47      0.00
    3    1    1      3.96      0.00
    4    1    1      9.47      0.00
    5    1    1     19.98      0.00
    6    1    1     17.90      0.00
    7    1    1      5.84      0.00
    8    1    1    -11.86      0.00
    9    1    1      1.87      0.00
   10    1    1     -0.79      0.00
   11    1    1      1.48      0.00
   12    1    1     -5.00      0.00
   13    1    1     -1.09      0.00
   14    1    1     -0.37      0.00
  -14    2    1      0.93      0.00
  -13    2    1     -1.24      0.00
  -12    2    1      1.21      0.00
  -11    2    1     -3.48      0.00
  -10    2    1      0.90      0.00
   -9    2    1     -2.58      0.00
   -8    2    1     -0.96      0.00
   -7    2    1     -6.98      0.00
   -6    2    1      1.60      0.00
   -5    2    1     19.27      0.00
   -4    2    1     -1.54      0.00
   -3    2    1      9.43      0.00
   -2    2    1     -8.27      0.00
   -1    2    1     42.22      0.00
    0    2    1    -24.96      0.00
    1    2    1     42.64      0.00
    2    2    1      0.64      0.00
    3    2    1    -14.64      0.00
    4    2    1      2.20      0.00
    5    2    1     -2.90      0.00
    6    2    1    -20.58      0.00
    7    2    1    -12.18      0.00
    8    2    1     -5.44      0.00
    9    2    1      2.02      0.00
   10    2    1     -3.57      0.00
   11    2    1      0.08      0.00
   12    2    1      1.82      0.00
   13    2    1      3.88      0.00
   14    2    1      1.23      0.00
  -14    3    1      0.22      0.00
  -13    3    1      0.43      0.00
  -12    3    1      1.77      0.00
  -11    3    1     -0.82      0.00
  -10    3    1      2.39      0.00
   -9    3    1     -5.36      0.00
   -8    3    1      2.44      0.00
   -7    3    1      4.59      0.00
   -6    3    1      5.18      0.00
   -5    3    1     -5.37      0.00
   -4    3    1    -21.27      0.00
   -3    3    1     11.71      0.00
   -2    3    1    -12.65      0.00
   -1    3    1    -11.54      0.00
    0    3    1    -83.06      0.00
    1    3    1    -17.41      0.00
    2    3    1     16.78      0.00
    3    3    1     -0.09      0.00
    4    3    1    -18.82      0.00
    5    3    1     -8.93      0.00
    6    3    1     -1.14      0.00
    7    3    1     13.45      0.00
    8    3    1      2.06      0.00
    9    3    1     -1.05      0.00
   10    3    1     -0.89      0.00
   11    3    1      0.75      0.00
   12    3    1      1.14      0.00
   13    3    1     -3.59      0.00
   14    3    1     -0.99      0.00
   15    3    1     -0.46      0.00
  -13    4    1      0.38      0.00
  -12    4    1      1.95      0.00
  -11    4    1     -1.46      0.00
  -10    4    1      2.73      0.00
   -9    4    1      0.08      0.00
   -8    4    1      6.26      0.00
   -7    4    1     -7.30      0.00
   -6    4    1     -6.99      0.00
   -5    4    1     -4.30      0.00
   -4    4    1      0.93      0.00
   -3    4    1      5.83      0.00
   -2    4    1    -13.78      0.00
   -1    4    1     -6.80      0.00
    0    4    1     -1.99      0.00
    1    4    1     30.06      0.00
    2    4    1     43.53      0.00
    3    4    1     -7.81      0.00
    4    4    1      4.59      0.00
    5    4    1     21.48      0.00
    6    4    1      7.03      0.00
    7    4    1      6.27      0.00
    8    4    1     -5.86      0.00
    9    4    1      4.35      0.00
   10    4    1      1.19      0.00
   11    4    1      0.38      0.00
   12    4    1     -0.66      0.00
   13    4    1      2.07      0.00
   14    4    1      2.59      0.00
  -13    5    1      0.19      0.00
  -12    5    1      1.74      0.00
  -11    5    1     -4.12      0.00
  -10    5    1      0.81      0.00
   -9    5    1     -5.31      0.00
   -8    5    1     -4.58      0.00
   -7    5    1     -9.82      0.00
   -6    5    1      5.65      0.00
   -5    5    1      1.12      0.00
   -4    5    1     -5.06      0.00
   -3    5    1     -2.56      0.00
   -2    5    1      9.61      0.00
   -1    5    1      4.39      0.00
    0    5    1     -3.01      0.00
    1    5    1    -14.76      0.00
    2    5    1      6.34      0.00
    3    5    1    -12.07      0.00
    4    5    1     -7.53      0.00
    5    5    1     -8.50      0.00
    6    5    1    -19.63      0.00
    7    5    1     -0.87      0.00
    8    5    1     -4.76      0.00
    9    5    1      3.82      0.00
   10    5    1     -7.22      0.00
   11    5    1      0.22      0.00
   12    5    1      2.64      0.00
   13    5    1      6.46      0.00
   14    5    1     -2.84      0.00
  -12    6    1      1.57      0.00
  -11    6    1     -3.37      0.00
  -10    6    1      1.28      0.00
   -9    6    1     -4.81      0.00
   -8    6    1      9.52      0.00
   -7    6    1      0.20      0.00
   -6    6    1      4.24      0.00
   -5    6    1     -1.05      0.00
   -4    6    1      2.20      0.00
   -3    6    1     10.84      0.00
   -2    6    1      7.37      0.00
   -1    6    1    -11.64      0.00
    0    6    1    -11.90      0.00
    1    6    1      0.90      0.00
    2    6    1     20.84      0.00
    3    6    1      1.06      0.00
    4    6    1     -8.77      0.00
    5    6    1      7.04      0.00
    6    6    1      7.63      0.00
    7    6    1     11.29      0.00
    8    6    1      2.75      0.00
    9    6    1      5.60      0.00
   10    6    1      0.70      0.00
   11    6    1      1.92      0.00
   12    6    1     -0.74      0.00
   13    6    1     -4.37      0.00
   14    6    1     -7.02      0.00
  -12    7    1      3.53      0.00
  -11    7    1     -1.23      0.00
  -10    7    1      1.73      0.00
   -9    7    1     -1.99      0.00
   -8    7    1      4.78      0.00
   -7    7    1    -15.02      0.00
   -6    7    1     -4.30      0.00
   -5    7    1      0.25      0.00
   -4    7    1     -4.42      0.00
   -3    7    1     -6.46      0.00
   -2    7    1     -9.37      0.00
   -1    7    1     -5.69      0.00
    0    7    1     -4.57      0.00
    1    7    1     -0.62      0.00
    2    7    1     -4.41      0.00
    3    7    1     -3.89      0.00
    4    7    1     -7.82      0.00
    5    7    1      5.84      0.00
    6    7    1     -3.86      0.00
    7    7    1     -4.57      0.00
    8    7    1     -1.83      0.00
    9    7    1     -0.80      0.00
   10    7    1     -1.05      0.00
   11    7    1     -6.09      0.00
   12    7    1      0.69      0.00
   13    7    1      4.04      0.00
   14    7    1      0.76      0.00
  -11    8    1     -3.88      0.00
  -10    8    1      1.44      0.00
   -9    8    1     -2.86      0.00
   -8    8    1      1.23      0.00
   -7    8    1     -1.15      0.00
   -6    8    1      5.82      0.00
   -5    8    1      4.52      0.00
   -4    8    1     -1.00      0.00
   -3    8    1      4.76      0.00
   -2    8    1      9.60      0.00
   -1    8    1      6.01      0.00
    0    8    1     -3.17      0.00
    1    8    1      0.51      0.00
    2    8    1      8.53      0.00
    3    8    1     16.04      0.00
    4    8    1     -2.63      0.00
    5    8    1      1.70      0.00
    6    8    1      5.73      0.00
    7    8    1      1.96      0.00
    8    8    1      0.23      0.00
    9    8    1      1.59      0.00
   10    8    1      2.27      0.00
   11    8    1     -4.62      0.00
   12    8    1      1.09      0.00
   13    8    1      0.56      0.00
   14    8    1     -8.37      0.00
  -11    9    1     -2.60      0.00
  -10    9    1      2.99      0.00
   -9    9    1     -3.10      0.00
   -8    9    1     -1.11      0.00
   -7    9    1     -1.25      0.00
   -6    9    1     -4.82      0.00
   -5    9    1     -1.40      0.00
   -4    9    1      0.49      0.00
   -3    9    1     -3.27      0.00
   -2    9    1     -3.75      0.00
   -1    9    1     -9.99      0.00
    0    9    1     -4.70      0.00
    1    9    1     -2.69      0.00
    2    9    1      2.56      0.00
    3    9    1     -3.64      0.00
    4    9    1    -10.17      0.00
    5    9    1     -1.19      0.00
    6    9    1      2.33      0.00
    7    9    1    -11.86      0.00
    8    9    1     -3.08      0.00
    9    9    1      0.13      0.00
   10    9    1     -3.81      0.00
   11    9    1     -3.26      0.00
   12    9    1     -2.21      0.00
   13    9    1     -0.06      0.00
  -10   10    1      1.88      0.00
   -9   10    1      1.61      0.00
   -8   10    1      1.23      0.00
   -7   10    1      5.06      0.00
   -6   10    1      0.49      0.00
   -5   10    1      3.19      0.00
   -4   10    1      0.06      0.00
   -3   10    1     -3.68      0.00
   -2   10    1      3.58      0.00
   -1   10    1      3.68      0.00
    0   10    1      6.07      0.00
    1   10    1      0.39      0.00
    2   10    1      3.34      0.00
    3   10    1      2.45      0.00
    4   10    1      7.26      0.00
    5   10    1      2.09      0.00
    6   10    1      0.19      0.00
    7   10    1     -1.11      0.00
    8   10    1      3.63      0.00
    9   10    1     -0.53      0.00
   10   10    1     -1.58      0.00
   11   10    1      4.24      0.00
   12   10    1     -4.24      0.00
   13   10    1      1.21      0.00
   -9   11    1      1.42      0.00
   -8   11    1     -3.12      0.00
   -7   11    1     -1.43      0.00
   -6   11    1     -5.09      0.00
   -5   11    1     -1.95      0.00
   -4   11    1      0.43      0.00
   -3   11    1      2.46      0.00
   -2   11    1      0.35      0.00
   -1   11    1     -0.49      0.00
    0   11    1     -5.23      0.00
    1   11    1     -3.87      0.00
    2   11    1     -2.34      0.00
    3   11    1      0.09      0.00
    4   11    1     -1.95      0.00
    5   11    1     -4.22      0.00
    6   11    1     -3.93      0.00
    7   11    1     -1.70      0.00
    8   11    1     -3.90      0.00
    9   11    1     -1.33      0.00
   10   11    1     -0.88      0.00
   11   11    1      4.49      0.00
   12   11    1     -3.65      0.00
   -8   12    1     -0.80      0.00
   -7   12    1      0.46      0.00
   -6   12    1      2.22      0.00
   -5   12    1      4.10      0.00
   -4   12    1      3.84      0.00
   -3   12    1     -0.62      0.00
   -2   12    1     -3.41      0.00
   -1   12    1      3.93      0.00
    0   12    1      0.61      0.00
    1   12    1      3.69      0.00
    2   12    1      0.77      0.00
    3   12    1      0.21      0.00
    4   12    1      1.04      0.00
    5   12    1      3.23      0.00
    6   12    1     -3.78      0.00
    7   12    1      2.83      0.00
    8   12    1      0.21      0.00
    9   12    1     -2.34      0.00
   10   12    1     -0.92      0.00
   11   12    1      3.08      0.00
   12   12    1     -2.85      0.00
   -7   13    1     -2.26      0.00
   -6   13    1     -1.95      0.00
   -5   13    1     -5.08      0.00
   -4   13    1     -4.23      0.00
   -3   13    1     -0.28      0.00
   -2   13    1      0.68      0.00
   -1   13    1      4.66      0.00
    0   13    1     -4.15      0.00
    1   13    1     -3.38      0.00
    2   13    1     -3.02      0.00
    3   13    1     -0.13      0.00
    4   13    1      1.94      0.00
    5   13    1      0.87      0.00
    6   13    1     -3.05      0.00
    7   13    1      2.09      0.00
    8   13    1     -4.56      0.00
    9   13    1      0.04      0.00
   10   13    1      6.59      0.00
   11   13    1      4.75      0.00
   -6   14    1     -0.72      0.00
   -5   14    1      0.30      0.00
   -4   14    1      4.84      0.00
   -3   14    1      3.90      0.00
   -2   14    1     -0.75      0.00
   -1   14    1     -1.61      0.00
    0   14    1     -4.59      0.00
    1   14    1      1.98      0.00
    2   14    1      3.00      0.00
    3   14    1      0.78      0.00
    4   14    1     -1.12      0.00
    5   14    1      2.52      0.00
    6   14    1     -2.50      0.00
    7   14    1     -0.80      0.00
    8   14    1     -0.84      0.00
    9   14    1      4.00      0.00
   10   14    1      0.25      0.00
   -4   15    1     -3.48      0.00
   -3   15    1     -1.66      0.00
   -2   15    1     -0.01      0.00
   -1   15    1     -0.26      0.00
    0   15    1      1.40      0.00
    1   15    1      2.23      0.00
    2   15    1     -2.64      0.00
    3   15    1     -3.09      0.00
    4   15    1      0.93      0.00
    5   15    1      4.31      0.00
    6   15    1     -3.68      0.00
    7   15    1      1.40      0.00
    8   15    1      0.75      0.00
   -1   16    1     -1.84      0.00
    0   16    1     -1.58      0.00
    1   16    1     -1.21      0.00
    2   16    1     -2.45      0.00
    3   16    1      2.20      0.00
    4   16    1      0.96      0.00
    5   16    1      0.61      0.00
    6   16    1     -5.52      0.00
   -6  -15    2     -0.05      0.00
   -5  -15    2      1.32      0.00
   -4  -15    2      5.25      0.00
   -3  -15    2     -2.44      0.00
   -2  -15    2     -4.55      0.00
   -1  -15    2     -1.93      0.00
    0  -15    2     -0.19      0.00
    1  -15    2      1.81      0.00
   -8  -14    2      0.80      0.00
   -7  -14    2     -0.70      0.00
   -6  -14    2     -1.51      0.00
   -5  -14    2     -3.47      0.00
   -4  -14    2     -1.54      0.00
   -3  -14    2     -8.40      0.00
   -2  -14    2      1.07      0.00
   -1  -14    2      4.38      0.00
    0  -14    2      1.18      0.00
    1  -14    2     -0.32      0.00
    2  -14    2     -3.88      0.00
    3  -14    2     -1.27      0.00
    4  -14    2      1.00      0.00
   -9  -13    2      2.27      0.00
   -8  -13    2      1.69      0.00
   -7  -13    2     -0.20      0.00
   -6  -13    2      0.63      0.00
   -5  -13    2      0.82      0.00
   -4  -13    2      4.03      0.00
   -3  -13    2      2.00      0.00
   -2  -13    2      1.77      0.00
   -1  -13    2     -2.91      0.00
    0  -13    2     -4.00      0.00
    1  -13    2     -1.21      0.00
    2  -13    2      1.18      0.00
    3  -13    2      4.13      0.00
    4  -13    2      0.55      0.00
    5  -13    2     -0.04      0.00
    6  -13    2     -1.27      0.00
  -10  -12    2     -1.48      0.00
   -9  -12    2     -1.84      0.00
   -8  -12    2     -2.14      0.00
   -7  -12    2      1.74      0.00
   -6  -12    2     -0.58      0.00
   -5  -12    2      4.12      0.00
   -4  -12    2     -1.29      0.00
   -3  -12    2     -3.51      0.00
   -2  -12    2     -4.49      0.00
   -1  -12    2      2.14      0.00
    0  -12    2      3.71      0.00
    1  -12    2      1.49      0.00
    2  -12    2      1.11      0.00
    3  -12    2     -3.31      0.00
    4  -12    2     -3.98      0.00
    5  -12    2      0.87      0.00
    6  -12    2      0.01      0.00
    7  -12    2      0.64      0.00
  -11  -11    2      0.89      0.00
  -10  -11    2      0.66      0.00
   -9  -11    2      2.54      0.00
   -8  -11    2      4.71      0.00
   -7  -11    2      3.68      0.00
   -6  -11    2     -0.23      0.00
   -5  -11    2      1.88      0.00
   -4  -11    2     -5.68      0.00
   -3  -11    2     -0.34      0.00
   -2  -11    2      1.62      0.00
   -1  -11    2     -0.57      0.00
    0  -11    2     -3.74      0.00
    1  -11    2     -2.41      0.00
    2  -11    2     -1.06      0.00
    3  -11    2     -0.23      0.00
    4  -11    2      2.61      0.00
    5  -11    2     -0.06      0.00
    6  -11    2      0.12      0.00
    7  -11    2     -0.13      0.00
    8  -11    2     -0.25      0.00
  -12  -10    2     -2.10      0.00
  -11  -10    2     -2.30      0.00
  -10  -10    2     -1.03      0.00
   -9  -10    2      2.29      0.00
   -8  -10    2      2.50      0.00
   -7  -10    2     -0.70      0.00
   -6  -10    2      0.12      0.00
   -5  -10    2      0.81      0.00
   -4  -10    2      2.27      0.00
   -3  -10    2      1.08      0.00
   -2  -10    2      0.93      0.00
   -1  -10    2     -3.46      0.00
    0  -10    2      4.33      0.00
    1  -10    2      4.40      0.00
    2  -10    2      1.49      0.00
    3  -10    2      1.18      0.00
    4  -10    2     -1.43      0.00
    5  -10    2     -3.32      0.00
    6  -10    2      2.55      0.00
    7  -10    2      1.54      0.00
    8  -10    2      0.11      0.00
    9  -10    2      1.09      0.00
  -13   -9    2      2.04      0.00
  -12   -9    2     -0.32      0.00
  -11   -9    2      0.84      0.00
  -10   -9    2     -2.54      0.00
   -9   -9    2      3.55      0.00
   -8   -9    2     -0.39      0.00
   -7   -9    2      1.07      0.00
   -6   -9    2      1.55      0.00
   -5   -9    2      0.56      0.00
   -4   -9    2     -3.41      0.00
   -3   -9    2     -6.30      0.00
   -2   -9    2      1.85      0.00
   -1   -9    2      1.16      0.00
    0   -9    2      2.97      0.00
    1   -9    2     -0.86      0.00
    2   -9    2      1.13      0.00
    3   -9    2     -0.49      0.00
    4   -9    2      2.40      0.00
    5   -9    2     -1.20      0.00
    6   -9    2      3.80      0.00
    7   -9    2      1.23      0.00
    8   -9    2     -3.07      0.00
    9   -9    2      0.53      0.00
   10   -9    2     -1.57      0.00
  -13   -8    2     -1.78      0.00
  -12   -8    2      1.61      0.00
  -11   -8    2     -3.39      0.00
  -10   -8    2     -0.70      0.00
   -9   -8    2      5.81      0.00
   -8   -8    2      0.23      0.00
   -7   -8    2      3.82      0.00
   -6   -8    2     -1.85      0.00
   -5   -8    2     -5.28      0.00
   -4   -8    2     -0.92      0.00
   -3   -8    2      3.97      0.00
   -2   -8    2      2.95      0.00
   -1   -8    2     -4.11      0.00
    0   -8    2     -5.13      0.00
    1   -8    2      2.48      0.00
    2   -8    2      3.74      0.00
    3   -8    2     -3.89      0.00
    4   -8    2      0.81      0.00
    5   -8    2     -5.48      0.00
    6   -8    2      2.80      0.00
    7   -8    2     -1.50      0.00
    8   -8    2     -3.45      0.00
    9   -8    2      2.61      0.00
   10   -8    2     -0.46      0.00
   11   -8    2     -0.82      0.00
  -13   -7    2      6.19      0.00
  -12   -7    2      2.73      0.00
  -11   -7    2     -1.61      0.00
  -10   -7    2      7.17      0.00
   -9   -7    2      3.52      0.00
   -8   -7    2     -2.49      0.00
   -7   -7    2     -0.98      0.00
   -6   -7    2     -2.55      0.00
   -5   -7    2      0.78      0.00
   -4   -7    2      8.23      0.00
   -3   -7    2     -3.09      0.00
   -2   -7    2     -3.94      0.00
   -1   -7    2      3.44      0.00
    0   -7    2      6.12      0.00
    1   -7    2      6.69      0.00
    2   -7    2      0.24      0.00
    3   -7    2     -3.11      0.00
    4   -7    2      4.48      0.00
    5   -7    2      0.93      0.00
    6   -7    2      3.23      0.00
    7   -7    2      0.23      0.00
    8   -7    2      3.89      0.00
    9   -7    2      4.23      0.00
   10   -7    2     -0.85      0.00
   11   -7    2      0.71      0.00
   12   -7    2      0.43      0.00
  -14   -6    2     -2.95      0.00
  -13   -6    2      0.96      0.00
  -12   -6    2     -1.28      0.00
  -11   -6    2     -2.41      0.00
  -10   -6    2     -1.61      0.00
   -9   -6    2     -5.03      0.00
   -8   -6    2     -6.20      0.00
   -7   -6    2      0.56      0.00
   -6   -6    2      4.10      0.00
   -5   -6    2     -7.07      0.00
   -4   -6    2      1.23      0.00
   -3   -6    2     -4.38      0.00
   -2   -6    2     12.51      0.00
   -1   -6    2      6.56      0.00
    0   -6    2     -5.98      0.00
    1   -6    2     -4.31      0.00
    2   -6    2      1.91      0.00
    3   -6    2      0.50      0.00
    4   -6    2     -0.21      0.00
    5   -6    2     -2.96      0.00
    6   -6    2     -3.16      0.00
    7   -6    2      1.79      0.00
    8   -6    2     -2.55      0.00
    9   -6    2     -5.92      0.00
   10   -6    2     -1.82      0.00
   11   -6    2      2.39      0.00
   12   -6    2     -1.61      0.00
  -14   -5    2     -1.35      0.00
  -13   -5    2      5.61      0.00
  -12   -5    2      0.05      0.00
  -11   -5    2     -2.34      0.00
  -10   -5    2     -1.04      0.00
   -9   -5    2      6.37      0.00
   -8   -5    2     -0.50      0.00
   -7   -5    2      1.89      0.00
   -6   -5    2      2.92      0.00
   -5   -5    2     -4.88      0.00
   -4   -5    2     21.73      0.00
   -3   -5    2      5.15      0.00
   -2   -5    2      8.67      0.00
   -1   -5    2    -12.39      0.00
    0   -5    2      5.05      0.00
    1   -5    2      5.25      0.00
    2   -5    2      8.71      0.00
    3   -5    2     -4.91      0.00
    4   -5    2      0.78      0.00
    5   -5    2      2.38      0.00
    6   -5    2      1.61      0.00
    7   -5    2      1.70      0.00
    8   -5    2     -4.00      0.00
    9   -5    2      6.15      0.00
   10   -5    2      6.56      0.00
   11   -5    2      2.49      0.00
   12   -5    2     -1.62      0.00
   13   -5    2      1.95      0.00
  -14   -4    2     -2.36      0.00
  -13   -4    2      0.47      0.00
  -12   -4    2     -3.78      0.00
  -11   -4    2      2.06      0.00
  -10   -4    2      1.11      0.00
   -9   -4    2      2.35      0.00
   -8   -4    2     -8.31      0.00
   -7   -4    2     -1.62      0.00
   -6   -4    2     11.02      0.00
   -5   -4    2     -3.28      0.00
   -4   -4    2      4.38      0.00
   -3   -4    2    -25.72      0.00
   -2   -4    2     -3.08      0.00
   -1   -4    2     -8.97      0.00
    0   -4    2     12.50      0.00
    1   -4    2    -20.75      0.00
    2   -4    2     -1.01      0.00
    3   -4    2     -8.32      0.00
    4   -4    2      6.12      0.00
    5   -4    2     -4.46      0.00
    6   -4    2     -1.89      0.00
    7   -4    2     -1.43      0.00
    8   -4    2      4.92      0.00
    9   -4    2      2.67      0.00
   10   -4    2     -6.19      0.00
   11   -4    2     -1.76      0.00
   12   -4    2     -1.43      0.00
   13   -4    2     -0.60      0.00
  -14   -3    2     -0.17      0.00
  -13   -3    2     -2.26      0.00
  -12   -3    2      3.25      0.00
  -11   -3    2     -0.09      0.00
  -10   -3    2     -4.49      0.00
   -9   -3    2     -1.56      0.00
   -8   -3    2      3.43      0.00
   -7   -3    2      0.59      0.00
   -6   -3    2      5.49      0.00
   -5   -3    2    -22.02      0.00
   -4   -3    2      4.61      0.00
   -3   -3    2     -0.34      0.00
   -2   -3    2     28.43      0.00
   -1   -3    2     -1.17      0.00
    0   -3    2     18.76      0.00
    1   -3    2      6.71      0.00
    2   -3    2     31.20      0.00
    3   -3    2     14.70      0.00
    4   -3    2      9.81      0.00
    5   -3    2      3.73      0.00
    6   -3    2     12.04      0.00
    7   -3    2      4.39      0.00
    8   -3    2      3.95      0.00
    9   -3    2     -7.46      0.00
   10   -3    2      0.78      0.00
   11   -3    2      6.14      0.00
   12   -3    2     -0.23      0.00
   13   -3    2      0.58      0.00
  -14   -2    2      2.01      0.00
  -13   -2    2     -3.62      0.00
  -12   -2    2      2.64      0.00
  -11   -2    2     -4.98      0.00
  -10   -2    2      1.54      0.00
   -9   -2    2      3.05      0.00
   -8   -2    2      5.03      0.00
   -7   -2    2    -10.80      0.00
   -6   -2    2      4.11      0.00
   -5   -2    2      0.03      0.00
   -4   -2    2     24.17      0.00
   -3   -2    2     -8.86      0.00
   -2   -2    2    -10.69      0.00
   -1   -2    2    -10.62      0.00
    0   -2    2     27.03      0.00
    1   -2    2     11.07      0.00
    2   -2    2    -20.06      0.00
    3   -2    2    -13.72      0.00
    4   -2    2    -18.30      0.00
    5   -2    2      0.84      0.00
    6   -2    2    -10.45      0.00
    7   -2    2    -12.66      0.00
    8   -2    2     -1.86      0.00
    9   -2    2     -1.46      0.00
   10   -2    2      2.45      0.00
   11   -2    2     -3.08      0.00
   12   -2    2     -3.68      0.00
   13   -2    2     -0.91      0.00
   14   -2    2      0.36      0.00
  -14   -1    2      2.83      0.00
  -13   -1    2     -4.48      0.00
  -12   -1    2      1.07      0.00
  -11   -1    2      3.71      0.00
  -10   -1    2      7.35      0.00
   -9   -1    2     -1.31      0.00
   -8   -1    2      4.19      0.00
   -7   -1    2      3.05      0.00
   -6   -1    2     15.33      0.00
   -5   -1    2      0.84      0.00
   -4   -1    2     -9.81      0.00
   -3   -1    2    -23.79      0.00
   -2   -1    2     20.95      0.00
   -1   -1    2     18.66      0.00
    0   -1    2     17.05      0.00
    1   -1    2      3.49      0.00
    2   -1    2    -23.26      0.00
    3   -1    2     36.86      0.00
    4   -1    2      3.98      0.00
    5   -1    2     16.36      0.00
    6   -1    2     -3.95      0.00
    7   -1    2     16.24      0.00
    8   -1    2     11.44      0.00
    9   -1    2      3.20      0.00
   10   -1    2      0.63      0.00
   11   -1    2      3.43      0.00
   12   -1    2      8.05      0.00
   13   -1    2      1.59      0.00
   14   -1    2      3.03      0.00
  -14    0    2      0.91      0.00
  -13    0    2     -1.11      0.00
  -12    0    2      0.89      0.00
  -11    0    2      0.41      0.00
  -10    0    2     -6.23      0.00
   -9    0    2     -8.02      0.00
   -8    0    2     -0.11      0.00
   -7    0    2     -3.93      0.00
   -6    0    2    -22.60      0.00
   -5    0    2    -22.03      0.00
   -4    0    2     -9.25      0.00
   -3    0    2      5.00      0.00
   -2    0    2     16.47      0.00
   -1    0    2    -49.51      0.00
    0    0    2     55.75      0.00
    1    0    2     34.83      0.00
    2    0    2      2.00      0.00
    3    0    2     21.84      0.00
    4    0    2    -25.99      0.00
    5    0    2      5.96      0.00
    6    0    2     -4.37      0.00
    7    0    2     -0.26      0.00
    8    0    2    -16.30      0.00
    9    0    2     -2.95      0.00
   10    0    2     -2.90      0.00
   11    0    2     -2.20      0.00
   12    0    2     -2.34      0.00
   13    0    2     -6.63      0.00
   14    0    2     -0.26      0.00
  -14    1    2      1.19      0.00
  -13    1    2     -1.03      0.00
  -12    1    2      0.85      0.00
  -11    1    2     -0.52      0.00
  -10    1    2      6.26      0.00
   -9    1    2      6.50      0.00
   -8    1    2      4.56      0.00
   -7    1    2      6.97      0.00
   -6    1    2     -1.39      0.00
   -5    1    2     35.66      0.00
   -4    1    2     25.53      0.00
   -3    1    2     20.19      0.00
   -2    1    2     23.56      0.00
   -1    1    2     37.86      0.00
    0    1    2    151.83      0.00
    1    1    2    -17.94      0.00
    2    1    2    -28.85      0.00
    3    1    2     -7.22      0.00
    4    1    2     -4.25      0.00
    5    1    2      9.34      0.00
    6    1    2    -13.03      0.00
    7    1    2     -4.50      0.00
    8    1    2      5.12      0.00
    9    1    2     13.03      0.00
   10    1    2     -1.27      0.00
   11    1    2      1.57      0.00
   12    1    2      2.91      0.00
   13    1    2      2.55      0.00
   14    1    2      2.83      0.00
  -14    2    2     -0.05      0.00
  -13    2    2     -2.06      0.00
  -12    2    2      1.86      0.00
  -11    2    2     -3.05      0.00
  -10    2    2      3.01      0.00
   -9    2    2     -7.70      0.00
   -8    2    2     -3.99      0.00
   -7    2    2      2.73      0.00
   -6    2    2    -11.10      0.00
   -5    2    2     -2.00      0.00
   -4    2    2    -34.06      0.00
   -3    2    2    -10.78      0.00
   -2    2    2    -16.51      0.00
   -1    2    2    -16.75      0.00
    0    2    2    -25.43      0.00
    1    2    2   -107.62      0.00
    2    2    2    -32.62      0.00
    3    2    2     -1.32      0.00
    4    2    2    -10.75      0.00
    5    2    2     -8.25      0.00
    6    2    2     -1.04      0.00
    7    2    2     13.89      0.00
    8    2    2      4.57      0.00
    9    2    2     -4.48      0.00
   10    2    2     -4.19      0.00
   11    2    2      1.89      0.00
   12    2    2     -2.68      0.00
   13    2    2     -1.23      0.00
   14    2    2     -1.71      0.00
  -14    3    2      0.38      0.00
  -13    3    2      0.10      0.00
  -12    3    2      2.58      0.00
  -11    3    2     -2.65      0.00
  -10    3    2      7.00      0.00
   -9    3    2      2.16      0.00
   -8    3    2      9.50      0.00
   -7    3    2      2.93      0.00
   -6    3    2     -7.00      0.00
   -5    3    2      9.38      0.00
   -4    3    2     14.55      0.00
   -3    3    2     29.42      0.00
   -2    3    2     -3.54      0.00
   -1    3    2     32.35      0.00
    0    3    2     44.02      0.00
    1    3    2     41.80      0.00
    2    3    2     20.58      0.00
    3    3    2     22.43      0.00
    4    3    2      7.90      0.00
    5    3    2     22.29      0.00
    6    3    2     12.24      0.00
    7    3    2     -1.05      0.00
    8    3    2     -6.90      0.00
    9    3    2      0.78      0.00
   10    3    2      6.13      0.00
   11    3    2     -0.89      0.00
   12    3    2     -2.63      0.00
   13    3    2      1.59      0.00
   14    3    2      1.48      0.00
   15    3    2     -1.36      0.00
  -13    4    2     -2.38      0.00
  -12    4    2     -1.31      0.00
  -11    4    2     -3.55      0.00
  -10    4    2      1.28      0.00
   -9    4    2     -9.02      0.00
   -8    4    2     -2.97      0.00
   -7    4    2     -8.67      0.00
   -6    4    2      1.02      0.00
   -5    4    2      6.48      0.00
   -4    4    2     -1.39      0.00
   -3    4    2    -17.08      0.00
   -2    4    2    -15.72      0.00
   -1    4    2     26.07      0.00
    0    4    2    -10.43      0.00
    1    4    2    -32.54      0.00
    2    4    2    -53.33      0.00
    3    4    2     -6.37      0.00
    4    4    2     -7.57      0.00
    5    4    2    -10.09      0.00
    6    4    2    -21.59      0.00
    7    4    2     -9.43      0.00
    8    4    2      0.51      0.00
    9    4    2      0.02      0.00
   10    4    2     -3.91      0.00
   11    4    2     -5.34      0.00
   12    4    2      0.91      0.00
   13    4    2      0.09      0.00
   14    4    2      1.71      0.00
  -13    5    2     -3.43      0.00
  -12    5    2      2.37      0.00
  -11    5    2      3.09      0.00
  -10    5    2      3.85      0.00
   -9    5    2      3.24      0.00
   -8    5    2     13.29      0.00
   -7    5    2      8.66      0.00
   -6    5    2      9.19      0.00
   -5    5    2     -2.40      0.00
   -4    5    2      4.37      0.00
   -3    5    2      2.25      0.00
   -2    5    2      9.55      0.00
   -1    5    2      8.85      0.00
    0    5    2     -9.29      0.00
    1    5    2      2.16      0.00
    2    5    2      2.36      0.00
    3    5    2     22.79      0.00
    4    5    2     10.08      0.00
    5    5    2      5.44      0.00
    6    5    2      9.19      0.00
    7    5    2     16.32      0.00
    8    5    2      1.48      0.00
    9    5    2     -0.70      0.00
   10    5    2      2.83      0.00
   11    5    2      4.86      0.00
   12    5    2     -2.32      0.00
   13    5    2     -4.99      0.00
   14    5    2     -0.07      0.00
  -12    6    2      3.08      0.00
  -11    6    2     -0.99      0.00
  -10    6    2      2.57      0.00
   -9    6    2     -3.38      0.00
   -8    6    2     -2.98      0.00
   -7    6    2    -10.65      0.00
   -6    6    2    -10.05      0.00
   -5    6    2     -5.72      0.00
   -4    6    2      1.88      0.00
   -3    6    2    -12.74      0.00
   -2    6    2    -16.04      0.00
   -1    6    2      0.38      0.00
    0    6    2      4.90      0.00
    1    6    2     -3.46      0.00
    2    6    2    -15.68      0.00
    3    6    2     -2.50      0.00
    4    6    2      2.28      0.00
    5    6    2     -4.54      0.00
    6    6    2     -6.83      0.00
    7    6    2     -8.71      0.00
    8    6    2    -10.60      0.00
    9    6    2     -2.70      0.00
   10    6    2     -1.28      0.00
   11    6    2     -3.88      0.00
   12    6    2     -4.03      0.00
   13    6    2      3.57      0.00
   14    6    2      7.22      0.00
  -12    7    2      3.01      0.00
  -11    7    2     -1.39      0.00
  -10    7    2      3.88      0.00
   -9    7    2     -5.74      0.00
   -8    7    2      4.16      0.00
   -7    7    2      6.69      0.00
   -6    7    2     11.11      0.00
   -5    7    2      9.04      0.00
   -4    7    2      1.17      0.00
   -3    7    2      2.11      0.00
   -2    7    2      8.94      0.00
   -1    7    2     22.19      0.00
    0    7    2      4.94      0.00
    1    7    2     -0.07      0.00
    2    7    2     -2.18      0.00
    3    7    2     12.74      0.00
    4    7    2      8.76      0.00
    5    7    2     -5.94      0.00
    6    7    2     -0.45      0.00
    7    7    2      4.13      0.00
    8    7    2      6.41      0.00
    9    7    2     -0.35      0.00
   10    7    2      2.05      0.00
   11    7    2      5.48      0.00
   12    7    2      3.37      0.00
   13    7    2     -0.32      0.00
   14    7    2      1.08      0.00
  -11    8    2     -2.60      0.00
  -10    8    2      0.36      0.00
   -9    8    2     -2.76      0.00
   -8    8    2      1.29      0.00
   -7    8    2     -0.34      0.00
   -6    8    2     -7.10      0.00
   -5    8    2     -5.86      0.00
   -4    8    2     -5.92      0.00
   -3    8    2      2.09      0.00
   -2    8    2     -9.57      0.00
   -1    8    2     -7.27      0.00
    0    8    2     -8.35      0.00
    1    8    2     -4.37      0.00
    2    8    2     -9.98      0.00
    3    8    2     -4.43      0.00
    4    8    2     -2.80      0.00
    5    8    2     -3.96      0.00
    6    8    2      1.96      0.00
    7    8    2     -3.31      0.00
    8    8    2     -1.21      0.00
    9    8    2     -4.78      0.00
   10    8    2     -0.35      0.00
   11    8    2      4.00      0.00
   12    8    2     -3.81      0.00
   13    8    2     -2.12      0.00
   14    8    2      3.60      0.00
  -11    9    2     -1.73      0.00
  -10    9    2      1.89      0.00
   -9    9    2      1.57      0.00
   -8    9    2     -0.37      0.00
   -7    9    2      2.81      0.00
   -6    9    2      0.43      0.00
   -5    9    2      5.84      0.00
   -4    9    2      0.88      0.00
   -3    9    2      2.26      0.00
   -2    9    2     -0.98      0.00
   -1    9    2      9.86      0.00
    0    9    2     12.57      0.00
    1    9    2     -0.49      0.00
    2    9    2      1.51      0.00
    3    9    2      1.15      0.00
    4    9    2      7.99      0.00
    5    9    2      2.52      0.00
    6    9    2     -2.17      0.00
    7    9    2      1.57      0.00
    8    9    2      8.49      0.00
    9    9    2      1.92      0.00
   10    9    2     -2.68      0.00
   11    9    2      8.90      0.00
   12    9    2     -0.50      0.00
   13    9    2      0.38      0.00
  -10   10    2      0.20      0.00
   -9   10    2     -1.99      0.00
   -8   10    2     -1.17      0.00
   -7   10    2      0.18      0.00
   -6   10    2     -1.89      0.00
   -5   10    2     -1.79      0.00
   -4   10    2     -4.68      0.00
   -3   10    2      2.65      0.00
   -2   10    2      1.62      0.00
   -1   10    2     -2.47      0.00
    0   10    2     -3.78      0.00
    1   10    2    -10.01      0.00
    2   10    2     -0.69      0.00
    3   10    2     -5.39      0.00
    4   10    2      0.18      0.00
    5   10    2     -0.24      0.00
    6   10    2     -1.93      0.00
    7   10    2      7.31      0.00
    8   10    2     -1.99      0.00
    9   10    2     -1.93      0.00
   10   10    2     -4.89      0.00
   11   10    2      7.06      0.00
   12   10    2     -2.99      0.00
   13   10    2     -0.54      0.00
   -9   11    2     -1.62      0.00
   -8   11    2      1.74      0.00
   -7   11    2     -0.49      0.00
   -6   11    2      1.87      0.00
   -5   11    2      0.47      0.00
   -4   11    2     -1.11      0.00
   -3   11    2      5.71      0.00
   -2   11    2     -4.87      0.00
   -1   11    2     -0.32      0.00
    0   11    2      3.70      0.00
    1   11    2      2.80      0.00
    2   11    2      3.11      0.00
    3   11    2      2.72      0.00
    4   11    2     -2.20      0.00
    5   11    2      4.99      0.00
    6   11    2     -0.42      0.00
    7   11    2      3.75      0.00
    8   11    2     -2.84      0.00
    9   11    2      6.39      0.00
   10   11    2     -3.94      0.00
   11   11    2      0.51      0.00
   12   11    2     -0.54      0.00
   -8   12    2      2.11      0.00
   -7   12    2      2.25      0.00
   -6   12    2      0.66      0.00
   -5   12    2     -2.66      0.00
   -4   12    2     -6.29      0.00
   -3   12    2      0.82      0.00
   -2   12    2     -2.72      0.00
   -1   12    2      5.28      0.00
    0   12    2     -2.01      0.00
    1   12    2     -0.35      0.00
    2   12    2     -1.57      0.00
    3   12    2      0.13      0.00
    4   12    2     -5.43      0.00
    5   12    2      5.80      0.00
    6   12    2      1.01      0.00
    7   12    2      2.09      0.00
    8   12    2      1.48      0.00
    9   12    2      0.45      0.00
   10   12    2     -1.41      0.00
   11   12    2     -1.91      0.00
   12   12    2      2.86      0.00
   -7   13    2      1.09      0.00
   -6   13    2     -0.76      0.00
   -5   13    2      3.68      0.00
   -4   13    2     -2.19      0.00
   -3   13    2      7.87      0.00
   -2   13    2      2.24      0.00
   -1   13    2     -2.33      0.00
    0   13    2     -2.54      0.00
    1   13    2      3.88      0.00
    2   13    2      0.20      0.00
    3   13    2      0.92      0.00
    4   13    2     -1.30      0.00
    5   13    2      1.84      0.00
    6   13    2      1.87      0.00
    7   13    2     -1.13      0.00
    8   13    2      2.25      0.00
    9   13    2     -2.25      0.00
   10   13    2      1.88      0.00
   11   13    2    -11.57      0.00
   -6   14    2      4.00      0.00
   -5   14    2      2.01      0.00
   -4   14    2     -5.34      0.00
   -3   14    2     -0.68      0.00
   -2   14    2     -2.36      0.00
   -1   14    2     -2.33      0.00
    0   14    2      6.11      0.00
    1   14    2      2.93      0.00
    2   14    2     -0.41      0.00
    3   14    2     -0.15      0.00
    4   14    2     -1.91      0.00
    5   14    2      0.89      0.00
    6   14    2      1.12      0.00
    7   14    2      1.04      0.00
    8   14    2      2.14      0.00
    9   14    2     -2.90      0.00
   10   14    2     -0.94      0.00
   -4   15    2     -2.77      0.00
   -3   15    2      0.87      0.00
   -2   15    2      5.59      0.00
   -1   15    2     -0.99      0.00
    0   15    2      2.39      0.00
    1   15    2     -2.76      0.00
    2   15    2     -1.54      0.00
    3   15    2      0.21      0.00
    4   15    2      1.10      0.00
    5   15    2      2.20      0.00
    6   15    2     -0.55      0.00
    7   15    2      3.20      0.00
    8   15    2     -1.39      0.00
    9   15    2     -1.75      0.00
   -2   16    2     -0.59      0.00
   -1   16    2     -2.19      0.00
    0   16    2      1.09      0.00
    1   16    2      2.35      0.00
    2   16    2      0.99      0.00
    3   16    2      3.91      0.00
    4   16    2     -0.78      0.00
    5   16    2      0.20      0.00
    6   16    2      0.08      0.00
    7   16    2      2.58      0.00
   -3  -15    3     -4.06      0.00
   -2  -15    3      1.46      0.00
   -1  -15    3      4.16      0.00
   -7  -14    3     -2.38      0.00
   -6  -14    3     -1.89      0.00
   -5  -14    3     -2.68      0.00
   -4  -14    3      1.61      0.00
   -3  -14    3     -1.11      0.00
   -2  -14    3      6.98      0.00
   -1  -14    3     -0.34      0.00
    0  -14    3     -3.89      0.00
    1  -14    3     -2.77      0.00
    2  -14    3      2.89      0.00
    3  -14    3      1.71      0.00
   -8  -13    3      3.17      0.00
   -7  -13    3     -4.45      0.00
   -6  -13    3      0.83      0.00
   -5  -13    3      2.35      0.00
   -4  -13    3     -0.98      0.00
   -3  -13    3     -2.00      0.00
   -2  -13    3     -0.49      0.00
   -1  -13    3     -4.59      0.00
    0  -13    3      1.13      0.00
    1  -13    3      3.50      0.00
    2  -13    3      0.88      0.00
    3  -13    3     -1.07      0.00
    4  -13    3     -5.20      0.00
    5  -13    3     -0.69      0.00
  -10  -12    3     -4.20      0.00
   -9  -12    3      1.45      0.00
   -8  -12    3      1.40      0.00
   -7  -12    3      0.79      0.00
   -6  -12    3      1.39      0.00
   -5  -12    3     -1.59      0.00
   -4  -12    3     -3.41      0.00
   -3  -12    3      3.11      0.00
   -2  -12    3      2.36      0.00
   -1  -12    3      5.26      0.00
    0  -12    3      2.30      0.00
    1  -12    3     -1.44      0.00
    2  -12    3     -1.29      0.00
    3  -12    3      2.08      0.00
    4  -12    3     -0.17      0.00
    5  -12    3      4.72      0.00
    6  -12    3      0.19      0.00
  -11  -11    3      3.07      0.00
  -10  -11    3     -0.26      0.00
   -9  -11    3      2.90      0.00
   -8  -11    3     -2.41      0.00
   -7  -11    3     -3.69      0.00
   -6  -11    3     -5.79      0.00
   -5  -11    3     -2.87      0.00
   -4  -11    3      1.33      0.00
   -3  -11    3      2.30      0.00
   -2  -11    3     -1.19      0.00
   -1  -11    3     -3.97      0.00
    0  -11    3     -4.18      0.00
    1  -11    3     -1.56      0.00
    2  -11    3      1.41      0.00
    3  -11    3     -0.10      0.00
    4  -11    3      0.45      0.00
    5  -11    3     -1.48      0.00
    6  -11    3     -4.13      0.00
    7  -11    3     -0.10      0.00
    8  -11    3     -1.61      0.00
  -11  -10    3      1.17      0.00
  -10  -10    3     -0.67      0.00
   -9  -10    3     -2.39      0.00
   -8  -10    3     -4.34      0.00
   -7  -10    3     -1.99      0.00
   -6  -10    3      6.13      0.00
   -5  -10    3      1.96      0.00
   -4  -10    3      4.52      0.00
   -3  -10    3     -0.65      0.00
   -2  -10    3      1.86      0.00
   -1  -10    3     -0.26      0.00
    0  -10    3      6.25      0.00
    1  -10    3     -1.75      0.00
    2  -10    3      0.99      0.00
    3  -10    3     -0.31      0.00
    4  -10    3      0.77      0.00
    5  -10    3     -0.37      0.00
    6  -10    3     -0.27      0.00
    7  -10    3      3.11      0.00
    8  -10    3     -1.89      0.00
    9  -10    3      2.03      0.00
  -12   -9    3      1.55      0.00
  -11   -9    3      4.20      0.00
  -10   -9    3      0.71      0.00
   -9   -9    3     -0.47      0.00
   -8   -9    3      1.73      0.00
   -7   -9    3      1.58      0.00
   -6   -9    3      1.85      0.00
   -5   -9    3     -5.81      0.00
   -4   -9    3     -1.29      0.00
   -3   -9    3     -0.97      0.00
   -2   -9    3      0.89      0.00
   -1   -9    3     -4.60      0.00
    0   -9    3     -3.35      0.00
    1   -9    3     -8.24      0.00
    2   -9    3      1.53      0.00
    3   -9    3     -2.26      0.00
    4   -9    3     -1.02      0.00
    5   -9    3      0.88      0.00
    6   -9    3     -4.47      0.00
    7   -9    3     -0.70      0.00
    8   -9    3     -3.24      0.00
    9   -9    3      1.89      0.00
   10   -9    3      0.12      0.00
  -13   -8    3     -1.33      0.00
  -12   -8    3     -0.91      0.00
  -11   -8    3     -2.39      0.00
  -10   -8    3      0.39      0.00
   -9   -8    3     -0.25      0.00
   -8   -8    3     -0.04      0.00
   -7   -8    3     -5.96      0.00
   -6   -8    3      2.32      0.00
   -5   -8    3      1.70      0.00
   -4   -8    3      4.16      0.00
   -3   -8    3      3.78      0.00
   -2   -8    3     -0.72      0.00
   -1   -8    3      0.81      0.00
    0   -8    3      6.55      0.00
    1   -8    3      1.76      0.00
    2   -8    3      3.39      0.00
    3   -8    3     -0.15      0.00
    4   -8    3      3.63      0.00
    5   -8    3      1.46      0.00
    6   -8    3     -1.77      0.00
    7   -8    3      3.00      0.00
    8   -8    3      3.13      0.00
    9   -8    3      2.81      0.00
   10   -8    3      0.71      0.00
   11   -8    3     -0.52      0.00
  -13   -7    3     -1.16      0.00
  -12   -7    3     -2.77      0.00
  -11   -7    3     -1.71      0.00
  -10   -7    3      0.77      0.00
   -9   -7    3     -7.56      0.00
   -8   -7    3     -1.83      0.00
   -7   -7    3     -1.98      0.00
   -6   -7    3     10.63      0.00
   -5   -7    3     -5.62      0.00
   -4   -7    3     -4.01      0.00
   -3   -7    3     -8.84      0.00
   -2   -7    3      0.61      0.00
   -1   -7    3     -1.27      0.00
    0   -7    3     -2.21      0.00
    1   -7    3    -12.98      0.00
    2   -7    3     -2.81      0.00
    3   -7    3     -0.85      0.00
    4   -7    3     -2.76      0.00
    5   -7    3     -7.15      0.00
    6   -7    3     -0.88      0.00
    7   -7    3     -2.15      0.00
    8   -7    3     -1.21      0.00
    9   -7    3     -4.08      0.00
   10   -7    3     -2.73      0.00
   11   -7    3     -1.22      0.00
  -13   -6    3     -0.72      0.00
  -12   -6    3     -2.13      0.00
  -11   -6    3      3.09      0.00
  -10   -6    3      0.22      0.00
   -9   -6    3      3.11      0.00
   -8   -6    3     11.68      0.00
   -7   -6    3      0.83      0.00
   -6   -6    3      5.54      0.00
   -5   -6    3    -10.60      0.00
   -4   -6    3      8.79      0.00
   -3   -6    3     -2.08      0.00
   -2   -6    3      8.35      0.00
   -1   -6    3     -8.83      0.00
    0   -6    3      4.61      0.00
    1   -6    3      3.77      0.00
    2   -6    3      8.42      0.00
    3   -6    3      4.61      0.00
    4   -6    3      1.06      0.00
    5   -6    3      4.99      0.00
    6   -6    3      8.47      0.00
    7   -6    3     -1.08      0.00
    8   -6    3      3.30      0.00
    9   -6    3      2.35      0.00
   10   -6    3      2.30      0.00
   11   -6    3      1.05      0.00
   12   -6    3     -1.28      0.00
  -14   -5    3     -0.96      0.00
  -13   -5    3     -0.99      0.00
  -12   -5    3     -1.81      0.00
  -11   -5    3      3.49      0.00
  -10   -5    3      1.60      0.00
   -9   -5    3      0.83      0.00
   -8   -5    3     -5.10      0.00
   -7   -5    3    -11.93      0.00
   -6   -5    3      2.68      0.00
   -5   -5    3    -11.59      0.00
   -4   -5    3      1.61      0.00
   -3   -5    3    -27.63      0.00
   -2   -5    3     -1.28      0.00
   -1   -5    3    -11.08      0.00
    0   -5    3      9.99      0.00
    1   -5    3    -10.27      0.00
    2   -5    3    -12.15      0.00
    3   -5    3     -3.48      0.00
    4   -5    3     -4.33      0.00
    5   -5    3     -5.11      0.00
    6   -5    3     -6.00      0.00
    7   -5    3     -5.25      0.00
    8   -5    3      2.66      0.00
    9   -5    3     -0.67      0.00
   10   -5    3     -4.67      0.00
   11   -5    3     -4.16      0.00
   12   -5    3     -1.01      0.00
  -14   -4    3     -1.12      0.00
  -13   -4    3      0.87      0.00
  -12   -4    3      2.02      0.00
  -11   -4    3     -0.49      0.00
  -10   -4    3     -1.37      0.00
   -9   -4    3     -6.67      0.00
   -8   -4    3      2.40      0.00
   -7   -4    3      8.42      0.00
   -6   -4    3      6.80      0.00
   -5   -4    3     -7.57      0.00
   -4   -4    3      9.60      0.00
   -3   -4    3     -0.26      0.00
   -2   -4    3     32.90      0.00
   -1   -4    3      5.44      0.00
    0   -4    3     11.19      0.00
    1   -4    3     -1.71      0.00
    2   -4    3      9.94      0.00
    3   -4    3     10.66      0.00
    4   -4    3      1.59      0.00
    5   -4    3      1.18      0.00
    6   -4    3      8.99      0.00
    7   -4    3      3.04      0.00
    8   -4    3      1.83      0.00
    9   -4    3     -3.62      0.00
   10   -4    3     -1.27      0.00
   11   -4    3      0.57      0.00
   12   -4    3      4.06      0.00
   13   -4    3     -0.67      0.00
  -14   -3    3     -3.21      0.00
  -13   -3    3      1.83      0.00
  -12   -3    3     -0.24      0.00
  -11   -3    3     -4.60      0.00
  -10   -3    3      6.21      0.00
   -9   -3    3      1.26      0.00
   -8   -3    3      5.75      0.00
   -7   -3    3     -5.87      0.00
   -6   -3    3     -9.41      0.00
   -5   -3    3     -0.70      0.00
   -4   -3    3      8.89      0.00
   -3   -3    3    -10.37      0.00
   -2   -3    3    -11.65      0.00
   -1   -3    3    -22.82      0.00
    0   -3    3    -15.86      0.00
    1   -3    3     -3.80      0.00
    2   -3    3    -23.03      0.00
    3   -3    3    -12.32      0.00
    4   -3    3    -12.31      0.00
    5   -3    3     -2.94      0.00
    6   -3    3     -5.37      0.00
    7   -3    3    -12.47      0.00
    8   -3    3     -0.36      0.00
    9   -3    3      1.79      0.00
   10   -3    3      4.05      0.00
   11   -3    3     -2.69      0.00
   12   -3    3      1.25      0.00
   13   -3    3     -1.96      0.00
  -14   -2    3      2.70      0.00
  -13   -2    3      1.17      0.00
  -12   -2    3     -1.17      0.00
  -11   -2    3      1.58      0.00
  -10   -2    3      5.71      0.00
   -9   -2    3     -7.10      0.00
   -8   -2    3     -6.50      0.00
   -7   -2    3     -0.70      0.00
   -6   -2    3      9.12      0.00
   -5   -2    3      3.32      0.00
   -4   -2    3     -8.45      0.00
   -3   -2    3     -8.17      0.00
   -2   -2    3      2.92      0.00
   -1   -2    3     24.65      0.00
    0   -2    3     -3.52      0.00
    1   -2    3      8.64      0.00
    2   -2    3    -18.15      0.00
    3   -2    3     30.65      0.00
    4   -2    3      1.77      0.00
    5   -2    3      9.74      0.00
    6   -2    3     -1.66      0.00
    7   -2    3      9.36      0.00
    8   -2    3      9.66      0.00
    9   -2    3      1.42      0.00
   10   -2    3     -4.69      0.00
   11   -2    3     -4.71      0.00
   12   -2    3      3.09      0.00
   13   -2    3      0.41      0.00
   14   -2    3     -1.26      0.00
  -14   -1    3     -0.33      0.00
  -13   -1    3     -1.88      0.00
  -12   -1    3      0.41      0.00
  -11   -1    3     -2.19      0.00
  -10   -1    3     -5.80      0.00
   -9   -1    3     -6.84      0.00
   -8   -1    3      1.49      0.00
   -7   -1    3      5.06      0.00
   -6   -1    3     -8.80      0.00
   -5   -1    3    -13.67      0.00
   -4   -1    3      0.88      0.00
   -3   -1    3     19.21      0.00
   -2   -1    3     -0.92      0.00
   -1   -1    3    -10.70      0.00
    0   -1    3    -30.90      0.00
    1   -1    3      0.81      0.00
    2   -1    3     -6.66      0.00
    3   -1    3     14.62      0.00
    4   -1    3    -27.49      0.00
    5   -1    3      5.89      0.00
    6   -1    3     -6.51      0.00
    7   -1    3      4.43      0.00
    8   -1    3    -10.98      0.00
    9   -1    3     -5.57      0.00
   10   -1    3     -2.10      0.00
   11   -1    3      1.57      0.00
   12   -1    3     -0.53      0.00
   13   -1    3     -3.00      0.00
   14   -1    3     -1.15      0.00
  -14    0    3     -5.57      0.00
  -13    0    3      1.58      0.00
  -12    0    3     -2.19      0.00
  -11    0    3     -1.58      0.00
  -10    0    3      3.69      0.00
   -9    0    3      9.18      0.00
   -8    0    3      4.48      0.00
   -7    0    3      3.58      0.00
   -6    0    3      3.07      0.00
   -5    0    3     22.48      0.00
   -4    0    3     14.46      0.00
   -3    0    3     -3.67      0.00
   -2    0    3    -18.64      0.00
   -1    0    3    -10.52      0.00
    0    0    3     31.25      0.00
    1    0    3    -22.39      0.00
    2    0    3     -6.85      0.00
    3    0    3     -4.37      0.00
    4    0    3     -2.58      0.00
    5    0    3     13.80      0.00
    6    0    3    -10.53      0.00
    7    0    3      5.72      0.00
    8    0    3      0.11      0.00
    9    0    3      7.56      0.00
   10    0    3      3.27      0.00
   11    0    3     -2.24      0.00
   12    0    3     -2.54      0.00
   13    0    3      1.70      0.00
   14    0    3      1.80      0.00
  -14    1    3     -3.38      0.00
  -13    1    3      2.58      0.00
  -12    1    3     -1.67      0.00
  -11    1    3      1.12      0.00
  -10    1    3     -1.02      0.00
   -9    1    3     -6.51      0.00
   -8    1    3    -11.39      0.00
   -7    1    3      3.73      0.00
   -6    1    3     -4.19      0.00
   -5    1    3     -6.94      0.00
   -4    1    3    -38.62      0.00
   -3    1    3    -18.61      0.00
   -2    1    3     -7.50      0.00
   -1    1    3    -32.05      0.00
    0    1    3    -19.60      0.00
    1    1    3    -88.86      0.00
    2    1    3     38.50      0.00
    3    1    3      5.62      0.00
    4    1    3      6.76      0.00
    5    1    3     -4.21      0.00
    6    1    3      0.35      0.00
    7    1    3     14.49      0.00
    8    1    3     -0.03      0.00
    9    1    3     -5.42      0.00
   10    1    3     -1.29      0.00
   11    1    3     -0.53      0.00
   12    1    3      1.87      0.00
   13    1    3      2.78      0.00
   14    1    3     -1.99      0.00
  -14    2    3     -1.41      0.00
  -13    2    3      0.61      0.00
  -12    2    3     -0.36      0.00
  -11    2    3     -2.91      0.00
  -10    2    3     -1.72      0.00
   -9    2    3     -1.21      0.00
   -8    2    3      7.50      0.00
   -7    2    3      6.20      0.00
   -6    2    3     -8.45      0.00
   -5    2    3      4.14      0.00
   -4    2    3     -0.73      0.00
   -3    2    3     33.88      0.00
   -2    2    3      0.61      0.00
   -1    2    3     -9.39      0.00
    0    2    3     33.32      0.00
    1    2    3     39.98      0.00
    2    2    3     80.15      0.00
    3    2    3     -9.15      0.00
    4    2    3      6.08      0.00
    5    2    3      4.81      0.00
    6    2    3      6.01      0.00
    7    2    3     -7.12      0.00
    8    2    3    -10.87      0.00
    9    2    3     -3.04      0.00
   10    2    3      5.22      0.00
   11    2    3     -0.09      0.00
   12    2    3     -3.22      0.00
   13    2    3      0.92      0.00
   14    2    3     -4.10      0.00
  -13    3    3      0.24      0.00
  -12    3    3      0.33      0.00
  -11    3    3     -1.72      0.00
  -10    3    3      2.52      0.00
   -9    3    3     -3.12      0.00
   -8    3    3     -1.75      0.00
   -7    3    3     -7.01      0.00
   -6    3    3      4.60      0.00
   -5    3    3     10.08      0.00
   -4    3    3    -13.02      0.00
   -3    3    3     -1.09      0.00
   -2    3    3    -24.07      0.00
   -1    3    3      4.81      0.00
    0    3    3      3.91      0.00
    1    3    3    -11.83      0.00
    2    3    3    -28.47      0.00
    3    3    3    -17.81      0.00
    4    3    3     -2.04      0.00
    5    3    3    -11.09      0.00
    6    3    3    -11.90      0.00
    7    3    3     -6.47      0.00
    8    3    3      8.34      0.00
    9    3    3      6.98      0.00
   10    3    3      0.63      0.00
   11    3    3     -0.61      0.00
   12    3    3      1.15      0.00
   13    3    3      6.64      0.00
   14    3    3     -3.99      0.00
  -13    4    3      1.27      0.00
  -12    4    3      2.55      0.00
  -11    4    3     -0.92      0.00
  -10    4    3      1.12      0.00
   -9    4    3     -4.23      0.00
   -8    4    3      4.03      0.00
   -7    4    3      4.30      0.00
   -6    4    3      2.47      0.00
   -5    4    3    -10.14      0.00
   -4    4    3    -17.13      0.00
   -3    4    3     10.90      0.00
   -2    4    3      3.09      0.00
   -1    4    3     -4.47      0.00
    0    4    3    -18.29      0.00
    1    4    3     10.13      0.00
    2    4    3     18.69      0.00
    3    4    3     17.21      0.00
    4    4    3     -5.91      0.00
    5    4    3      0.66      0.00
    6    4    3     10.47      0.00
    7    4    3      8.63      0.00
    8    4    3      2.78      0.00
    9    4    3     -5.22      0.00
   10    4    3     -2.74      0.00
   11    4    3      3.58      0.00
   12    4    3      1.61      0.00
   13    4    3     -0.04      0.00
   14    4    3     -7.48      0.00
  -13    5    3     -1.45      0.00
  -12    5    3      0.84      0.00
  -11    5    3     -4.16      0.00
  -10    5    3     -1.69      0.00
   -9    5    3     -0.82      0.00
   -8    5    3     -1.49      0.00
   -7    5    3     -6.54      0.00
   -6    5    3     -6.56      0.00
   -5    5    3      1.37      0.00
   -4    5    3      6.02      0.00
   -3    5    3     12.01      0.00
   -2    5    3     -0.10      0.00
   -1    5    3    -10.29      0.00
    0    5    3     18.39      0.00
    1    5    3     27.73      0.00
    2    5    3      4.21      0.00
    3    5    3    -12.62      0.00
    4    5    3     -2.53      0.00
    5    5    3      6.07      0.00
    6    5    3      1.72      0.00
    7    5    3     -7.57      0.00
    8    5    3     -3.02      0.00
    9    5    3      3.22      0.00
   10    5    3      5.07      0.00
   11    5    3      0.86      0.00
   12    5    3     -0.81      0.00
   13    5    3      2.67      0.00
   14    5    3      0.16      0.00
  -11    6    3     -3.68      0.00
  -10    6    3     -1.23      0.00
   -9    6    3     -0.86      0.00
   -8    6    3     -2.99      0.00
   -7    6    3      5.19      0.00
   -6    6    3      6.46      0.00
   -5    6    3      5.93      0.00
   -4    6    3     -3.29      0.00
   -3    6    3     -2.05      0.00
   -2    6    3      6.15      0.00
   -1    6    3     -5.41      0.00
    0    6    3      6.46      0.00
    1    6    3     -9.88      0.00
    2    6    3     -6.09      0.00
    3    6    3     -8.21      0.00
    4    6    3     -1.61      0.00
    5    6    3     -7.57      0.00
    6    6    3     -1.62      0.00
    7    6    3     -2.72      0.00
    8    6    3      8.34      0.00
    9    6    3      0.79      0.00
   10    6    3     -0.32      0.00
   11    6    3     -2.11      0.00
   12    6    3      4.13      0.00
   13    6    3     -0.13      0.00
   14    6    3     -3.54      0.00
  -12    7    3      0.88      0.00
  -11    7    3     -4.42      0.00
  -10    7    3     -1.85      0.00
   -9    7    3      5.40      0.00
   -8    7    3      5.70      0.00
   -7    7    3      2.94      0.00
   -6    7    3     -4.71      0.00
   -5    7    3     -4.47      0.00
   -4    7    3     -1.75      0.00
   -3    7    3      6.66      0.00
   -2    7    3      4.46      0.00
   -1    7    3    -12.94      0.00
    0    7    3     -1.60      0.00
    1    7    3      6.40      0.00
    2    7    3      9.55      0.00
    3    7    3     -4.29      0.00
    4    7    3      0.15      0.00
    5    7    3      9.45      0.00
    6    7    3     12.97      0.00
    7    7    3     -0.74      0.00
    8    7    3      4.22      0.00
    9    7    3     -4.35      0.00
   10    7    3      3.60      0.00
   11    7    3     -2.12      0.00
   12    7    3     -1.18      0.00
   13    7    3     -7.46      0.00
   14    7    3      2.18      0.00
  -11    8    3      1.53      0.00
  -10    8    3     -0.26      0.00
   -9    8    3      8.64      0.00
   -8    8    3     -5.66      0.00
   -7    8    3     -5.78      0.00
   -6    8    3     -3.21      0.00
   -5    8    3      3.12      0.00
   -4    8    3     -0.47      0.00
   -3    8    3     -0.36      0.00
   -2    8    3     -5.67      0.00
   -1    8    3     -0.57      0.00
    0    8    3      3.97      0.00
    1    8    3      8.63      0.00
    2    8    3     -5.45      0.00
    3    8    3     -3.54      0.00
    4    8    3     -2.65      0.00
    5    8    3      0.59      0.00
    6    8    3     -7.02      0.00
    7    8    3     -9.78      0.00
    8    8    3      1.22      0.00
    9    8    3      0.48      0.00
   10    8    3      1.79      0.00
   11    8    3     -5.00      0.00
   12    8    3      1.66      0.00
   13    8    3      2.25      0.00
   14    8    3      6.03      0.00
  -11    9    3     -2.15      0.00
  -10    9    3     -2.39      0.00
   -9    9    3      4.21      0.00
   -8    9    3     -3.32      0.00
   -7    9    3      6.70      0.00
   -6    9    3      5.73      0.00
   -5    9    3      4.83      0.00
   -4    9    3     -2.25      0.00
   -3    9    3      4.20      0.00
   -2    9    3      2.90      0.00
   -1    9    3      4.43      0.00
    0    9    3     -4.94      0.00
    1    9    3      4.81      0.00
    2    9    3     -0.22      0.00
    3    9    3      5.57      0.00
    4    9    3     -4.70      0.00
    5    9    3      2.92      0.00
    6    9    3      5.59      0.00
    7    9    3      1.70      0.00
    8    9    3      1.85      0.00
    9    9    3      1.36      0.00
   10    9    3     -2.32      0.00
   11    9    3     -2.45      0.00
   12    9    3      1.82      0.00
   13    9    3     -1.82      0.00
   14    9    3     -1.13      0.00
  -10   10    3      0.84      0.00
   -9   10    3      2.37      0.00
   -8   10    3     -2.67      0.00
   -7   10    3     -3.11      0.00
   -6   10    3     -4.52      0.00
   -5   10    3     -3.26      0.00
   -4   10    3     -2.89      0.00
   -3   10    3     -1.95      0.00
   -2   10    3     -5.14      0.00
   -1   10    3     -5.26      0.00
    0   10    3     -3.60      0.00
    1   10    3      6.35      0.00
    2   10    3      0.53      0.00
    3   10    3     -2.41      0.00
    4   10    3     -3.84      0.00
    5   10    3      0.65      0.00
    6   10    3     -3.40      0.00
    7   10    3     -9.80      0.00
    8   10    3     -3.59      0.00
    9   10    3      1.13      0.00
   10   10    3     -0.40      0.00
   11   10    3     -0.07      0.00
   12   10    3     -0.44      0.00
   13   10    3     -0.87      0.00
   -9   11    3      3.74      0.00
   -8   11    3     -2.16      0.00
   -7   11    3      2.93      0.00
   -6   11    3      4.65      0.00
   -5   11    3      6.97      0.00
   -4   11    3      1.33      0.00
   -3   11    3     -0.62      0.00
   -2   11    3      0.59      0.00
   -1   11    3      4.61      0.00
    0   11    3      2.76      0.00
    1   11    3      4.82      0.00
    2   11    3     -2.22      0.00
    3   11    3      0.65      0.00
    4   11    3      1.52      0.00
    5   11    3     -1.88      0.00
    6   11    3     -1.46      0.00
    7   11    3      1.64      0.00
    8   11    3      2.59      0.00
    9   11    3      2.41      0.00
   10   11    3      2.90      0.00
   11   11    3      0.01      0.00
   12   11    3      1.40      0.00
   13   11    3      1.68      0.00
   -8   12    3     -6.57      0.00
   -7   12    3      0.57      0.00
   -6   12    3     -3.97      0.00
   -5   12    3      1.43      0.00
   -4   12    3     -3.20      0.00
   -3   12    3     -0.27      0.00
   -2   12    3     -1.59      0.00
   -1   12    3      1.18      0.00
    0   12    3     -4.75      0.00
    1   12    3      1.46      0.00
    2   12    3     -2.63      0.00
    3   12    3      0.47      0.00
    4   12    3     -1.28      0.00
    5   12    3     -2.73      0.00
    6   12    3     -3.48      0.00
    7   12    3     -3.99      0.00
    8   12    3     -2.31      0.00
    9   12    3     -3.40      0.00
   10   12    3      2.07      0.00
   11   12    3     -0.86      0.00
   12   12    3     -0.13      0.00
   -7   13    3      0.74      0.00
   -6   13    3     -0.84      0.00
   -5   13    3      4.98      0.00
   -4   13    3     -0.91      0.00
   -3   13    3     -1.43      0.00
   -2   13    3     -3.74      0.00
   -1   13    3      0.19      0.00
    0   13    3     -0.74      0.00
    1   13    3      1.88      0.00
    2   13    3     -1.03      0.00
    3   13    3     -1.42      0.00
    4   13    3      3.31      0.00
    5   13    3     -4.47      0.00
    6   13    3     -2.43      0.00
    7   13    3     -0.91      0.00
    8   13    3      5.30      0.00
    9   13    3     -4.90      0.00
   10   13    3      8.60      0.00
   11   13    3      1.22      0.00
   -6   14    3     -0.29      0.00
   -5   14    3     -2.61      0.00
   -4   14    3     -1.42      0.00
   -3   14    3     -2.50      0.00
   -2   14    3      0.02      0.00
   -1   14    3      2.64      0.00
    0   14    3      1.08      0.00
    1   14    3     -2.64      0.00
    2   14    3      0.50      0.00
    3   14    3     -1.32      0.00
    4   14    3      1.83      0.00
    5   14    3     -4.58      0.00
    6   14    3      1.82      0.00
    7   14    3     -1.28      0.00
    8   14    3      0.18      0.00
    9   14    3     -4.54      0.00
   10   14    3      8.91      0.00
   -5   15    3      0.76      0.00
   -4   15    3      5.35      0.00
   -3   15    3     -1.12      0.00
   -2   15    3      1.70      0.00
   -1   15    3     -2.26      0.00
    0   15    3     -2.94      0.00
    1   15    3     -2.69      0.00
    2   15    3      1.71      0.00
    3   15    3     -0.75      0.00
    4   15    3     -0.87      0.00
    5   15    3     -1.30      0.00
    6   15    3     -1.84      0.00
    7   15    3     -2.18      0.00
    8   15    3      0.38      0.00
    9   15    3      0.55      0.00
   -3   16    3     -2.27      0.00
   -2   16    3     -0.92      0.00
   -1   16    3     -1.07      0.00
    0   16    3      0.56      0.00
    1   16    3      2.56      0.00
    2   16    3     -0.75      0.00
    3   16    3     -0.04      0.00
    4   16    3     -3.74      0.00
    5   16    3      0.30      0.00
    6   16    3     -1.42      0.00
    7   16    3      1.06      0.00
    1   17    3     -0.48      0.00
    2   17    3     -2.91      0.00
    3   17    3      1.71      0.00
    4   17    3     -2.36      0.00
   -5  -14    4      2.03      0.00
   -4  -14    4      5.84      0.00
   -3  -14    4      1.06      0.00
   -2  -14    4     -1.53      0.00
   -1  -14    4     -2.68      0.00
    0  -14    4     -0.74      0.00
    1  -14    4      1.34      0.00
    2  -14    4      0.80      0.00
   -8  -13    4      0.58      0.00
   -7  -13    4     -0.66      0.00
   -6  -13    4      2.94      0.00
   -5  -13    4      1.08      0.00
   -4  -13    4     -1.74      0.00
   -3  -13    4     -2.37      0.00
   -2  -13    4      0.23      0.00
   -1  -13    4      0.71      0.00
    0  -13    4      2.17      0.00
    1  -13    4      3.11      0.00
    2  -13    4     -3.70      0.00
    3  -13    4      0.25      0.00
    4  -13    4      1.32      0.00
   -9  -12    4      4.36      0.00
   -8  -12    4     -0.17      0.00
   -7  -12    4     -0.35      0.00
   -6  -12    4     -0.25      0.00
   -5  -12    4     -1.09      0.00
   -4  -12    4     -0.65      0.00
   -3  -12    4      4.76      0.00
   -2  -12    4     -0.17      0.00
   -1  -12    4     -4.01      0.00
    0  -12    4     -4.07      0.00
    1  -12    4     -2.81      0.00
    2  -12    4     -1.47      0.00
    3  -12    4      2.82      0.00
    4  -12    4      1.55      0.00
    5  -12    4     -0.49      0.00
    6  -12    4      0.63      0.00
  -10  -11    4     -6.11      0.00
   -9  -11    4     -0.27      0.00
   -8  -11    4     -5.44      0.00
   -7  -11    4      0.30      0.00
   -6  -11    4      1.73      0.00
   -5  -11    4      6.45      0.00
   -4  -11    4     -0.12      0.00
   -3  -11    4      0.51      0.00
   -2  -11    4     -1.27      0.00
   -1  -11    4      0.20      0.00
    0  -11    4      3.35      0.00
    1  -11    4      4.83      0.00
    2  -11    4      3.09      0.00
    3  -11    4     -2.79      0.00
    4  -11    4     -0.25      0.00
    5  -11    4     -2.00      0.00
    6  -11    4      0.32      0.00
    7  -11    4      1.11      0.00
  -11  -10    4     -2.10      0.00
  -10  -10    4     -0.61      0.00
   -9  -10    4      3.02      0.00
   -8  -10    4      4.47      0.00
   -7  -10    4      3.11      0.00
   -6  -10    4      2.99      0.00
   -5  -10    4     -3.77      0.00
   -4  -10    4     -5.99      0.00
   -3  -10    4     -2.00      0.00
   -2  -10    4      2.34      0.00
   -1  -10    4     -3.61      0.00
    0  -10    4     -0.63      0.00
    1  -10    4     -1.78      0.00
    2  -10    4     -2.42      0.00
    3  -10    4     -0.29      0.00
    4  -10    4      2.13      0.00
    5  -10    4      1.95      0.00
    6  -10    4      2.58      0.00
    7  -10    4      0.70      0.00
    8  -10    4     -1.60      0.00
  -12   -9    4     -2.10      0.00
  -11   -9    4     -5.84      0.00
  -10   -9    4      0.59      0.00
   -9   -9    4     -1.71      0.00
   -8   -9    4      2.37      0.00
   -7   -9    4     -8.06      0.00
   -6   -9    4     -2.14      0.00
   -5   -9    4     -4.91      0.00
   -4   -9    4      6.08      0.00
   -3   -9    4      0.27      0.00
   -2   -9    4      4.24      0.00
   -1   -9    4     -0.55      0.00
    0   -9    4      5.93      0.00
    1   -9    4      3.14      0.00
    2   -9    4      1.29      0.00
    3   -9    4      2.20      0.00
    4   -9    4     -2.04      0.00
    5   -9    4      0.83      0.00
    6   -9    4     -1.56      0.00
    7   -9    4     -0.78      0.00
    8   -9    4     -0.21      0.00
    9   -9    4      0.57      0.00
  -12   -8    4      4.03      0.00
  -11   -8    4      0.62      0.00
  -10   -8    4      1.73      0.00
   -9   -8    4     -2.16      0.00
   -8   -8    4      0.08      0.00
   -7   -8    4     -4.26      0.00
   -6   -8    4      8.77      0.00
   -5   -8    4     -0.46      0.00
   -4   -8    4      2.98      0.00
   -3   -8    4     -5.63      0.00
   -2   -8    4      0.89      0.00
   -1   -8    4     -0.60      0.00
    0   -8    4     -1.10      0.00
    1   -8    4     -2.49      0.00
    2   -8    4     -2.30      0.00
    3   -8    4      0.66      0.00
    4   -8    4     -0.67      0.00
    5   -8    4      0.28      0.00
    6   -8    4      2.76      0.00
    7   -8    4      1.23      0.00
    8   -8    4     -0.07      0.00
    9   -8    4     -1.49      0.00
   10   -8    4      0.50      0.00
  -13   -7    4      1.27      0.00
  -12   -7    4      6.23      0.00
  -11   -7    4     -1.35      0.00
  -10   -7    4      0.22      0.00
   -9   -7    4      3.81      0.00
   -8   -7    4      3.99      0.00
   -7   -7    4      1.49      0.00
   -6   -7    4      1.46      0.00
   -5   -7    4    -12.78      0.00
   -4   -7    4      4.83      0.00
   -3   -7    4      0.23      0.00
   -2   -7    4      2.89      0.00
   -1   -7    4     -1.86      0.00
    0   -7    4     -1.75      0.00
    1   -7    4      4.66      0.00
    2   -7    4      1.57      0.00
    3   -7    4     -1.25      0.00
    4   -7    4      0.93      0.00
    5   -7    4      0.50      0.00
    6   -7    4      5.41      0.00
    7   -7    4     -4.95      0.00
    8   -7    4     -0.55      0.00
    9   -7    4     -0.40      0.00
   10   -7    4      3.50      0.00
   11   -7    4      0.25      0.00
  -13   -6    4      6.15      0.00
  -12   -6    4     -1.23      0.00
  -11   -6    4     -2.21      0.00
  -10   -6    4      0.42      0.00
   -9   -6    4      0.95      0.00
   -8   -6    4     -5.88      0.00
   -7   -6    4     -8.83      0.00
   -6   -6    4     -0.06      0.00
   -5   -6    4      1.07      0.00
   -4   -6    4     15.63      0.00
   -3   -6    4     -2.01      0.00
   -2   -6    4      1.80      0.00
   -1   -6    4      2.91      0.00
    0   -6    4      4.71      0.00
    1   -6    4      5.39      0.00
    2   -6    4     -5.35      0.00
    3   -6    4     -1.88      0.00
    4   -6    4      3.14      0.00
    5   -6    4     -0.15      0.00
    6   -6    4     -2.52      0.00
    7   -6    4     -5.60      0.00
    8   -6    4      5.28      0.00
    9   -6    4     -0.13      0.00
   10   -6    4      2.65      0.00
   11   -6    4     -0.95      0.00
   12   -6    4      0.73      0.00
  -13   -5    4      1.77      0.00
  -12   -5    4     -0.59      0.00
  -11   -5    4     -2.54      0.00
  -10   -5    4     -1.99      0.00
   -9   -5    4     -5.12      0.00
   -8   -5    4     -1.08      0.00
   -7   -5    4      4.48      0.00
   -6   -5    4     12.44      0.00
   -5   -5    4     -0.62      0.00
   -4   -5    4      4.28      0.00
   -3   -5    4     -1.15      0.00
   -2   -5    4      8.50      0.00
   -1   -5    4     -0.37      0.00
    0   -5    4     -7.89      0.00
    1   -5    4     -0.34      0.00
    2   -5    4     -3.30      0.00
    3   -5    4      4.16      0.00
    4   -5    4     -1.39      0.00
    5   -5    4     -0.06      0.00
    6   -5    4     -1.11      0.00
    7   -5    4      4.65      0.00
    8   -5    4      1.01      0.00
    9   -5    4     -5.34      0.00
   10   -5    4      2.36      0.00
   11   -5    4      0.44      0.00
   12   -5    4      1.05      0.00
  -13   -4    4      0.73      0.00
  -12   -4    4      1.08      0.00
  -11   -4    4     -4.66      0.00
  -10   -4    4      6.50      0.00
   -9   -4    4      4.33      0.00
   -8   -4    4      8.95      0.00
   -7   -4    4     -0.60      0.00
   -6   -4    4     -6.45      0.00
   -5   -4    4     -2.28      0.00
   -4   -4    4      4.81      0.00
   -3   -4    4      2.67      0.00
   -2   -4    4    -10.69      0.00
   -1   -4    4    -11.80      0.00
    0   -4    4     -4.04      0.00
    1   -4    4     10.51      0.00
    2   -4    4     -0.20      0.00
    3   -4    4      2.21      0.00
    4   -4    4     -1.07      0.00
    5   -4    4      6.21      0.00
    6   -4    4      0.56      0.00
    7   -4    4     -1.94      0.00
    8   -4    4     -2.92      0.00
    9   -4    4      2.53      0.00
   10   -4    4      6.95      0.00
   11   -4    4      0.33      0.00
   12   -4    4      0.29      0.00
   13   -4    4     -1.65      0.00
  -14   -3    4      2.62      0.00
  -13   -3    4     -0.32      0.00
  -12   -3    4     -1.40      0.00
  -11   -3    4      0.23      0.00
  -10   -3    4      3.39      0.00
   -9   -3    4     -7.01      0.00
   -8   -3    4     -8.56      0.00
   -7   -3    4     -6.07      0.00
   -6   -3    4      1.03      0.00
   -5   -3    4     10.46      0.00
   -4   -3    4     -9.99      0.00
   -3   -3    4     -0.19      0.00
   -2   -3    4     -9.79      0.00
   -1   -3    4     18.21      0.00
    0   -3    4      1.17      0.00
    1   -3    4     10.76      0.00
    2   -3    4     -5.00      0.00
    3   -3    4      7.26      0.00
    4   -3    4      0.31      0.00
    5   -3    4     -0.14      0.00
    6   -3    4     -3.36      0.00
    7   -3    4     -1.89      0.00
    8   -3    4      5.39      0.00
    9   -3    4     -2.57      0.00
   10   -3    4     -2.71      0.00
   11   -3    4     -3.92      0.00
   12   -3    4     -1.19      0.00
   13   -3    4     -2.20      0.00
  -14   -2    4     -1.67      0.00
  -13   -2    4      0.40      0.00
  -12   -2    4     -2.66      0.00
  -11   -2    4      3.26      0.00
  -10   -2    4     -3.95      0.00
   -9   -2    4      1.14      0.00
   -8   -2    4      6.84      0.00
   -7   -2    4     15.03      0.00
   -6   -2    4      2.19      0.00
   -5   -2    4      0.74      0.00
   -4   -2    4     -0.60      0.00
   -3   -2    4     23.56      0.00
   -2   -2    4      3.98      0.00
   -1   -2    4      6.15      0.00
    0   -2    4    -15.38      0.00
    1   -2    4     17.40      0.00
    2   -2    4     -0.77      0.00
    3   -2    4      9.83      0.00
    4   -2    4     -9.07      0.00
    5   -2    4      3.13      0.00
    6   -2    4      6.02      0.00
    7   -2    4     -0.07      0.00
    8   -2    4     -0.57      0.00
    9   -2    4     -4.97      0.00
   10   -2    4      6.58      0.00
   11   -2    4      6.99      0.00
   12   -2    4      1.51      0.00
   13   -2    4      1.60      0.00
  -14   -1    4      3.72      0.00
  -13   -1    4      3.75      0.00
  -12   -1    4     -2.52      0.00
  -11   -1    4      3.18      0.00
  -10   -1    4      3.09      0.00
   -9   -1    4      6.76      0.00
   -8   -1    4     -0.08      0.00
   -7   -1    4     -4.43      0.00
   -6   -1    4    -12.08      0.00
   -5   -1    4      5.01      0.00
   -4   -1    4      2.30      0.00
   -3   -1    4    -13.93      0.00
   -2   -1    4    -25.45      0.00
   -1   -1    4    -16.39      0.00
    0   -1    4      1.27      0.00
    1   -1    4      9.70      0.00
    2   -1    4    -15.95      0.00
    3   -1    4     -8.05      0.00
    4   -1    4     -9.41      0.00
    5   -1    4      7.83      0.00
    6   -1    4    -10.01      0.00
    7   -1    4    -11.18      0.00
    8   -1    4     -1.39      0.00
    9   -1    4      2.56      0.00
   10   -1    4      2.62      0.00
   11   -1    4     -1.77      0.00
   12   -1    4     -6.02      0.00
   13   -1    4      0.28      0.00
   14   -1    4     -1.44      0.00
  -14    0    4      1.74      0.00
  -13    0    4      0.37      0.00
  -12    0    4     -1.18      0.00
  -11    0    4      3.68      0.00
  -10    0    4      2.04      0.00
   -9    0    4     -9.03      0.00
   -8    0    4     -7.05      0.00
   -7    0    4     -1.78      0.00
   -6    0    4      2.43      0.00
   -5    0    4      4.88      0.00
   -4    0    4     -8.82      0.00
   -3    0    4     -2.77      0.00
   -2    0    4     37.05      0.00
   -1    0    4     15.71      0.00
    0    0    4     18.11      0.00
    1    0    4      6.13      0.00
    2    0    4     10.91      0.00
    3    0    4     16.11      0.00
    4    0    4     10.02      0.00
    5    0    4      3.78      0.00
    6    0    4     -4.96      0.00
    7    0    4     12.57      0.00
    8    0    4      4.74      0.00
    9    0    4      1.61      0.00
   10    0    4     -0.70      0.00
   11    0    4      2.98      0.00
   12    0    4      2.23      0.00
   13    0    4      4.01      0.00
   14    0    4     -0.27      0.00
  -14    1    4      2.17      0.00
  -13    1    4      1.05      0.00
  -12    1    4      1.25      0.00
  -11    1    4     -2.10      0.00
  -10    1    4     -1.99      0.00
   -9    1    4     -0.97      0.00
   -8    1    4      8.54      0.00
   -7    1    4      5.59      0.00
   -6    1    4     -5.78      0.00
   -5    1    4      0.38      0.00
   -4    1    4     10.72      0.00
   -3    1    4     16.85      0.00
   -2    1    4     15.31      0.00
   -1    1    4    -36.19      0.00
    0    1    4      6.78      0.00
    1    1    4      7.85      0.00
    2    1    4      3.00      0.00
    3    1    4    -24.01      0.00
    4    1    4    -19.23      0.00
    5    1    4     -6.57      0.00
    6    1    4     -0.58      0.00
    7    1    4     -5.87      0.00
    8    1    4    -15.78      0.00
    9    1    4     -0.39      0.00
   10    1    4     -1.22      0.00
   11    1    4     -2.17      0.00
   12    1    4     -3.48      0.00
   13    1    4     -2.61      0.00
   14    1    4     -2.76      0.00
  -13    2    4     -3.84      0.00
  -12    2    4      2.85      0.00
  -11    2    4      0.15      0.00
  -10    2    4      8.57      0.00
   -9    2    4      5.71      0.00
   -8    2    4      2.16      0.00
   -7    2    4     -4.29      0.00
   -6    2    4     -0.97      0.00
   -5    2    4     20.06      0.00
   -4    2    4     10.46      0.00
   -3    2    4    -10.37      0.00
   -2    2    4     -3.05      0.00
   -1    2    4      2.07      0.00
    0    2    4     22.52      0.00
    1    2    4    -16.08      0.00
    2    2    4    -22.14      0.00
    3    2    4    -15.91      0.00
    4    2    4     15.93      0.00
    5    2    4      7.81      0.00
    6    2    4     -0.12      0.00
    7    2    4     -1.38      0.00
    8    2    4      9.84      0.00
    9    2    4     11.35      0.00
   10    2    4     -0.40      0.00
   11    2    4     -0.86      0.00
   12    2    4      1.58      0.00
   13    2    4      2.88      0.00
   14    2    4      2.14      0.00
  -13    3    4     -1.99      0.00
  -12    3    4      3.80      0.00
  -11    3    4     -3.32      0.00
  -10    3    4     -2.48      0.00
   -9    3    4     -6.96      0.00
   -8    3    4     -4.65      0.00
   -7    3    4     -2.73      0.00
   -6    3    4     -1.40      0.00
   -5    3    4     -4.40      0.00
   -4    3    4    -15.92      0.00
   -3    3    4     -5.81      0.00
   -2    3    4      6.21      0.00
   -1    3    4     -7.47      0.00
    0    3    4    -32.69      0.00
    1    3    4    -23.72      0.00
    2    3    4      4.49      0.00
    3    3    4      4.21      0.00
    4    3    4      1.30      0.00
    5    3    4     -8.85      0.00
    6    3    4      7.24      0.00
    7    3    4      5.21      0.00
    8    3    4     -1.12      0.00
    9    3    4    -10.09      0.00
   10    3    4     -6.16      0.00
   11    3    4     -2.07      0.00
   12    3    4     -2.19      0.00
   13    3    4     -0.18      0.00
   14    3    4     -2.08      0.00
  -13    4    4     -1.85      0.00
  -12    4    4     -0.19      0.00
  -11    4    4     -0.69      0.00
  -10    4    4      4.02      0.00
   -9    4    4      7.70      0.00
   -8    4    4      7.16      0.00
   -7    4    4      4.06      0.00
   -6    4    4     -0.18      0.00
   -5    4    4     11.63      0.00
   -4    4    4     18.43      0.00
   -3    4    4     17.63      0.00
   -2    4    4     -2.10      0.00
   -1    4    4      6.64      0.00
    0    4    4      9.35      0.00
    1    4    4     25.26      0.00
    2    4    4     12.48      0.00
    3    4    4     -6.77      0.00
    4    4    4      4.58      0.00
    5    4    4     13.14      0.00
    6    4    4      4.90      0.00
    7    4    4     -9.67      0.00
    8    4    4     -4.05      0.00
    9    4    4      0.68      0.00
   10    4    4      6.78      0.00
   11    4    4     -0.23      0.00
   12    4    4     -1.79      0.00
   13    4    4      1.39      0.00
   14    4    4      1.32      0.00
  -13    5    4     -1.64      0.00
  -12    5    4     -1.52      0.00
  -11    5    4      2.66      0.00
  -10    5    4     -1.76      0.00
   -9    5    4     -1.12      0.00
   -8    5    4     -9.01      0.00
   -7    5    4     -4.24      0.00
   -6    5    4     -1.66      0.00
   -5    5    4      4.51      0.00
   -4    5    4    -11.81      0.00
   -3    5    4    -19.15      0.00
   -2    5    4    -19.47      0.00
   -1    5    4      2.33      0.00
    0    5    4    -20.58      0.00
    1    5    4    -26.03      0.00
    2    5    4    -19.43      0.00
    3    5    4     -6.76      0.00
    4    5    4      2.66      0.00
    5    5    4     -6.98      0.00
    6    5    4    -16.81      0.00
    7    5    4     -0.72      0.00
    8    5    4      6.78      0.00
    9    5    4     -2.72      0.00
   10    5    4     -4.32      0.00
   11    5    4     -5.54      0.00
   12    5    4     -0.78      0.00
   13    5    4      0.54      0.00
   14    5    4      0.21      0.00
  -12    6    4      1.56      0.00
  -11    6    4      6.36      0.00
  -10    6    4     -1.29      0.00
   -9    6    4      8.96      0.00
   -8    6    4     -0.92      0.00
   -7    6    4     10.88      0.00
   -6    6    4     -1.68      0.00
   -5    6    4     -0.15      0.00
   -4    6    4     -2.35      0.00
   -3    6    4      8.51      0.00
   -2    6    4      4.66      0.00
   -1    6    4      9.90      0.00
    0    6    4     -5.27      0.00
    1    6    4     10.04      0.00
    2    6    4     20.55      0.00
    3    6    4     14.87      0.00
    4    6    4      3.60      0.00
    5    6    4      5.82      0.00
    6    6    4      7.45      0.00
    7    6    4      9.21      0.00
    8    6    4     -1.30      0.00
    9    6    4     -7.86      0.00
   10    6    4      0.35      0.00
   11    6    4      4.01      0.00
   12    6    4      0.54      0.00
   13    6    4     -0.84      0.00
   14    6    4     -0.59      0.00
  -12    7    4     -1.59      0.00
  -11    7    4      2.40      0.00
  -10    7    4     -5.69      0.00
   -9    7    4      1.25      0.00
   -8    7    4    -14.66      0.00
   -7    7    4     -4.06      0.00
   -6    7    4    -13.00      0.00
   -5    7    4      4.65      0.00
   -4    7    4     -1.93      0.00
   -3    7    4     -3.45      0.00
   -2    7    4    -14.13      0.00
   -1    7    4      3.53      0.00
    0    7    4     -7.95      0.00
    1    7    4     -2.40      0.00
    2    7    4     -8.75      0.00
    3    7    4     -4.24      0.00
    4    7    4     -8.95      0.00
    5    7    4     -1.53      0.00
    6    7    4    -12.71      0.00
    7    7    4     -8.69      0.00
    8    7    4     -2.92      0.00
    9    7    4     -0.68      0.00
   10    7    4     -0.19      0.00
   11    7    4      0.08      0.00
   12    7    4      0.21      0.00
   13    7    4      3.50      0.00
   14    7    4      0.32      0.00
  -11    8    4      2.77      0.00
  -10    8    4     -5.08      0.00
   -9    8    4      1.06      0.00
   -8    8    4     -4.37      0.00
   -7    8    4     11.90      0.00
   -6    8    4      5.30      0.00
   -5    8    4     12.15      0.00
   -4    8    4     -4.55      0.00
   -3    8    4      4.49      0.00
   -2    8    4      2.26      0.00
   -1    8    4     14.02      0.00
    0    8    4     -6.87      0.00
    1    8    4      3.04      0.00
    2    8    4      2.61      0.00
    3    8    4     13.46      0.00
    4    8    4     -2.52      0.00
    5    8    4      2.72      0.00
    6    8    4      1.73      0.00
    7    8    4     11.16      0.00
    8    8    4      4.97      0.00
    9    8    4      0.42      0.00
   10    8    4     -3.23      0.00
   11    8    4      3.56      0.00
   12    8    4      1.19      0.00
   13    8    4     -2.02      0.00
   14    8    4     -8.14      0.00
  -11    9    4      0.39      0.00
  -10    9    4     -3.44      0.00
   -9    9    4      0.02      0.00
   -8    9    4     -2.42      0.00
   -7    9    4      0.26      0.00
   -6    9    4    -13.60      0.00
   -5    9    4     -3.17      0.00
   -4    9    4     -9.04      0.00
   -3    9    4      2.41      0.00
   -2    9    4     -7.25      0.00
   -1    9    4     -4.85      0.00
    0    9    4     -9.92      0.00
    1    9    4     -4.26      0.00
    2    9    4     -3.07      0.00
    3    9    4     -1.45      0.00
    4    9    4     -8.11      0.00
    5    9    4      2.63      0.00
    6    9    4      2.20      0.00
    7    9    4     -4.89      0.00
    8    9    4     -5.91      0.00
    9    9    4     -1.57      0.00
   10    9    4     -2.94      0.00
   11    9    4      3.49      0.00
   12    9    4     -2.09      0.00
   13    9    4      0.09      0.00
   14    9    4     -2.78      0.00
  -10   10    4     -0.92      0.00
   -9   10    4      1.32      0.00
   -8   10    4      0.39      0.00
   -7   10    4      3.58      0.00
   -6   10    4     -0.17      0.00
   -5   10    4     11.03      0.00
   -4   10    4      2.21      0.00
   -3   10    4      4.77      0.00
   -2   10    4      4.19      0.00
   -1   10    4      5.01      0.00
    0   10    4      6.86      0.00
    1   10    4     -1.22      0.00
    2   10    4      8.51      0.00
    3   10    4     -0.43      0.00
    4   10    4      5.50      0.00
    5   10    4      1.25      0.00
    6   10    4      0.13      0.00
    7   10    4      1.27      0.00
    8   10    4      6.96      0.00
    9   10    4      2.65      0.00
   10   10    4     -0.87      0.00
   11   10    4      3.43      0.00
   12   10    4     -3.64      0.00
   13   10    4      2.15      0.00
   -9   11    4     -0.91      0.00
   -8   11    4     -2.02      0.00
   -7   11    4      2.43      0.00
   -6   11    4     -6.17      0.00
   -5   11    4     -0.89      0.00
   -4   11    4     -7.07      0.00
   -3   11    4      0.21      0.00
   -2   11    4      1.73      0.00
   -1   11    4     -8.03      0.00
    0   11    4     -4.06      0.00
    1   11    4     -8.62      0.00
    2   11    4      0.22      0.00
    3   11    4     -5.81      0.00
    4   11    4      2.78      0.00
    5   11    4     -3.97      0.00
    6   11    4      5.26      0.00
    7   11    4      3.04      0.00
    8   11    4     -3.16      0.00
    9   11    4     -4.06      0.00
   10   11    4     -3.54      0.00
   11   11    4     -1.29      0.00
   12   11    4     -3.97      0.00
   13   11    4      1.99      0.00
   -8   12    4      3.18      0.00
   -7   12    4      0.59      0.00
   -6   12    4     -3.41      0.00
   -5   12    4      1.41      0.00
   -4   12    4      1.12      0.00
   -3   12    4      5.58      0.00
   -2   12    4      1.44      0.00
   -1   12    4     -2.10      0.00
    0   12    4      2.62      0.00
    1   12    4     -0.18      0.00
    2   12    4      3.77      0.00
    3   12    4      3.49      0.00
    4   12    4      2.82      0.00
    5   12    4      2.38      0.00
    6   12    4      3.94      0.00
    7   12    4     -0.52      0.00
    8   12    4     -0.21      0.00
    9   12    4      2.79      0.00
   10   12    4     -0.80      0.00
   11   12    4      2.60      0.00
   12   12    4     -1.22      0.00
   -7   13    4     -2.61      0.00
   -6   13    4      3.11      0.00
   -5   13    4      0.32      0.00
   -4   13    4      1.35      0.00
   -3   13    4     -0.13      0.00
   -2   13    4      1.59      0.00
   -1   13    4     -1.50      0.00
    0   13    4     -0.86      0.00
    1   13    4     -0.60      0.00
    2   13    4      2.65      0.00
    3   13    4     -0.67      0.00
    4   13    4      0.62      0.00
    5   13    4     -0.12      0.00
    6   13    4      2.52      0.00
    7   13    4      1.79      0.00
    8   13    4     -0.49      0.00
    9   13    4     -2.30      0.00
   10   13    4     -0.65      0.00
   11   13    4     -0.80      0.00
   -6   14    4      3.73      0.00
   -5   14    4     -1.98      0.00
   -4   14    4      2.38      0.00
   -3   14    4      2.38      0.00
   -2   14    4      4.84      0.00
   -1   14    4     -3.26      0.00
    0   14    4     -0.05      0.00
    1   14    4     -2.03      0.00
    2   14    4      1.04      0.00
    3   14    4     -1.18      0.00
    4   14    4      1.97      0.00
    5   14    4      0.66      0.00
    6   14    4      2.90      0.00
    7   14    4     -2.32      0.00
    8   14    4     -1.54      0.00
    9   14    4      1.00      0.00
   10   14    4     -0.70      0.00
   -5   15    4     -2.91      0.00
   -4   15    4      0.63      0.00
   -3   15    4     -1.63      0.00
   -2   15    4      1.43      0.00
   -1   15    4     -4.90      0.00
    0   15    4      1.64      0.00
    1   15    4      1.26      0.00
    2   15    4      5.31      0.00
    3   15    4     -0.64      0.00
    4   15    4      1.64      0.00
    5   15    4      2.36      0.00
    6   15    4     -2.48      0.00
    7   15    4      0.73      0.00
    8   15    4      1.01      0.00
    9   15    4      0.63      0.00
   -3   16    4      1.21      0.00
   -2   16    4      3.26      0.00
   -1   16    4     -2.63      0.00
    0   16    4      2.90      0.00
    1   16    4      0.35      0.00
    2   16    4     -2.72      0.00
    3   16    4     -3.84      0.00
    4   16    4      2.41      0.00
    5   16    4      2.28      0.00
    6   16    4     -2.75      0.00
    7   16    4      2.98      0.00
    8   16    4     -1.39      0.00
    0   17    4      1.94      0.00
    1   17    4      0.16      0.00
    2   17    4     -0.15      0.00
    3   17    4      2.55      0.00
    4   17    4      2.26      0.00
    5   17    4      1.28      0.00
   -2  -14    5      1.31      0.00
   -1  -14    5      0.70      0.00
   -6  -13    5     -5.79      0.00
   -5  -13    5     -2.58      0.00
   -4  -13    5     -1.78      0.00
   -3  -13    5     -4.24      0.00
   -2  -13    5      8.46      0.00
   -1  -13    5     -0.97      0.00
    0  -13    5     -0.85      0.00
    1  -13    5     -1.93      0.00
    2  -13    5     -3.38      0.00
    3  -13    5      0.60      0.00
   -8  -12    5      0.74      0.00
   -7  -12    5     -0.78      0.00
   -6  -12    5      1.36      0.00
   -5  -12    5      2.75      0.00
   -4  -12    5      1.75      0.00
   -3  -12    5     -1.98      0.00
   -2  -12    5      2.05      0.00
   -1  -12    5     -3.80      0.00
    0  -12    5      4.00      0.00
    1  -12    5      1.30      0.00
    2  -12    5     -0.14      0.00
    3  -12    5      1.66      0.00
    4  -12    5     -4.44      0.00
    5  -12    5      0.03      0.00
   -9  -11    5      3.51      0.00
   -8  -11    5      2.10      0.00
   -7  -11    5      2.67      0.00
   -6  -11    5      1.62      0.00
   -5  -11    5     -2.24      0.00
   -4  -11    5     -3.47      0.00
   -3  -11    5     -1.44      0.00
   -2  -11    5      0.51      0.00
   -1  -11    5      4.26      0.00
    0  -11    5      1.86      0.00
    1  -11    5     -0.80      0.00
    2  -11    5     -3.94      0.00
    3  -11    5      2.22      0.00
    4  -11    5     -1.57      0.00
    5  -11    5      4.25      0.00
    6  -11    5      0.59      0.00
  -10  -10    5      2.16      0.00
   -9  -10    5     -0.61      0.00
   -8  -10    5      1.31      0.00
   -7  -10    5     -3.58      0.00
   -6  -10    5     -3.33      0.00
   -5  -10    5     -4.11      0.00
   -4  -10    5     -0.12      0.00
   -3  -10    5      2.26      0.00
   -2  -10    5     -1.50      0.00
   -1  -10    5     -0.97      0.00
    0  -10    5     -0.16      0.00
    1  -10    5     -0.92      0.00
    2  -10    5     -5.76      0.00
    3  -10    5      3.86      0.00
    4  -10    5     -3.45      0.00
    5  -10    5     -0.83      0.00
    6  -10    5     -2.51      0.00
    7  -10    5     -1.26      0.00
    8  -10    5     -0.98      0.00
  -11   -9    5      1.27      0.00
  -10   -9    5      4.79      0.00
   -9   -9    5     -3.83      0.00
   -8   -9    5      2.03      0.00
   -7   -9    5     -2.12      0.00
   -6   -9    5      8.55      0.00
   -5   -9    5      3.79      0.00
   -4   -9    5      4.61      0.00
   -3   -9    5     -0.26      0.00
   -2   -9    5     -1.48      0.00
   -1   -9    5     -1.75      0.00
    0   -9    5      2.74      0.00
    1   -9    5     -5.28      0.00
    2   -9    5     -0.92      0.00
    3   -9    5      3.58      0.00
    4   -9    5     -2.16      0.00
    5   -9    5     -0.23      0.00
    6   -9    5      1.36      0.00
    7   -9    5      2.98      0.00
    8   -9    5      0.19      0.00
    9   -9    5      1.68      0.00
  -12   -8    5      1.75      0.00
  -11   -8    5     -0.27      0.00
  -10   -8    5     -0.56      0.00
   -9   -8    5     -1.98      0.00
   -8   -8    5      6.50      0.00
   -7   -8    5      0.92      0.00
   -6   -8    5      3.06      0.00
   -5   -8    5     -6.12      0.00
   -4   -8    5     -6.65      0.00
   -3   -8    5     -1.16      0.00
   -2   -8    5     -1.26      0.00
   -1   -8    5     -1.33      0.00
    0   -8    5      0.34      0.00
    1   -8    5      0.64      0.00
    2   -8    5      2.84      0.00
    3   -8    5     -0.57      0.00
    4   -8    5      0.21      0.00
    5   -8    5     -0.93      0.00
    6   -8    5      0.15      0.00
    7   -8    5     -1.20      0.00
    8   -8    5     -4.15      0.00
    9   -8    5      0.20      0.00
   10   -8    5     -2.43      0.00
  -12   -7    5     -5.69      0.00
  -11   -7    5     -5.26      0.00
  -10   -7    5      1.95      0.00
   -9   -7    5     -1.57      0.00
   -8   -7    5     -0.92      0.00
   -7   -7    5     -6.56      0.00
   -6   -7    5     -0.05      0.00
   -5   -7    5      2.84      0.00
   -4   -7    5      4.04      0.00
   -3   -7    5      5.98      0.00
   -2   -7    5     -2.70      0.00
   -1   -7    5      3.98      0.00
    0   -7    5     -0.22      0.00
    1   -7    5      3.41      0.00
    2   -7    5     -4.01      0.00
    3   -7    5      0.70      0.00
    4   -7    5      2.80      0.00
    5   -7    5     -2.80      0.00
    6   -7    5     -1.35      0.00
    7   -7    5     -0.11      0.00
    8   -7    5      1.51      0.00
    9   -7    5      2.23      0.00
   10   -7    5     -0.69      0.00
  -13   -6    5     -1.27      0.00
  -12   -6    5     -2.91      0.00
  -11   -6    5      5.29      0.00
  -10   -6    5      5.24      0.00
   -9   -6    5     -6.79      0.00
   -8   -6    5      2.17      0.00
   -7   -6    5      4.95      0.00
   -6   -6    5      6.36      0.00
   -5   -6    5      1.02      0.00
   -4   -6    5     -9.79      0.00
   -3   -6    5    -10.36      0.00
   -2   -6    5     -5.32      0.00
   -1   -6    5      0.07      0.00
    0   -6    5    -10.79      0.00
    1   -6    5     -1.55      0.00
    2   -6    5     -3.86      0.00
    3   -6    5      4.35      0.00
    4   -6    5     -3.10      0.00
    5   -6    5     -5.24      0.00
    6   -6    5      0.99      0.00
    7   -6    5      1.78      0.00
    8   -6    5     -0.18      0.00
    9   -6    5     -4.14      0.00
   10   -6    5     -3.37      0.00
   11   -6    5     -1.20      0.00
  -13   -5    5     -1.39      0.00
  -12   -5    5      2.64      0.00
  -11   -5    5      2.77      0.00
  -10   -5    5     -0.15      0.00
   -9   -5    5      1.38      0.00
   -8   -5    5      6.47      0.00
   -7   -5    5      1.18      0.00
   -6   -5    5     -9.00      0.00
   -5   -5    5     -7.70      0.00
   -4   -5    5     -2.64      0.00
   -3   -5    5      3.32      0.00
   -2   -5    5      4.74      0.00
   -1   -5    5      2.81      0.00
    0   -5    5      1.33      0.00
    1   -5    5     13.45      0.00
    2   -5    5      2.26      0.00
    3   -5    5      5.37      0.00
    4   -5    5     -1.15      0.00
    5   -5    5      5.83      0.00
    6   -5    5      4.85      0.00
    7   -5    5      0.75      0.00
    8   -5    5     -2.74      0.00
    9   -5    5      0.23      0.00
   10   -5    5      1.80      0.00
   11   -5    5      2.16      0.00
   12   -5    5     -0.02      0.00
  -13   -4    5     -1.86      0.00
  -12   -4    5     -1.48      0.00
  -11   -4    5     -0.54      0.00
  -10   -4    5     -0.33      0.00
   -9   -4    5     -0.57      0.00
   -8   -4    5    -13.11      0.00
   -7   -4    5     -2.23      0.00
   -6   -4    5     -4.57      0.00
   -5   -4    5      4.74      0.00
   -4   -4    5      1.84      0.00
   -3   -4    5     -5.83      0.00
   -2   -4    5     -0.45      0.00
   -1   -4    5      6.96      0.00
    0   -4    5     -0.82      0.00
    1   -4    5     -4.15      0.00
    2   -4    5    -14.83      0.00
    3   -4    5     -2.04      0.00
    4   -4    5     -6.41      0.00
    5   -4    5     -5.45      0.00
    6   -4    5     -6.44      0.00
    7   -4    5     -3.49      0.00
    8   -4    5     -1.93      0.00
    9   -4    5      2.45      0.00
   10   -4    5     -3.40      0.00
   11   -4    5     -2.06      0.00
   12   -4    5     -0.89      0.00
  -13   -3    5      0.02      0.00
  -12   -3    5      2.50      0.00
  -11   -3    5      2.65      0.00
  -10   -3    5     -1.69      0.00
   -9   -3    5      2.06      0.00
   -8   -3    5     -1.68      0.00
   -7   -3    5     20.08      0.00
   -6   -3    5      0.23      0.00
   -5   -3    5      1.46      0.00
   -4   -3    5      0.25      0.00
   -3   -3    5      7.78      0.00
   -2   -3    5     11.42      0.00
   -1   -3    5      4.61      0.00
    0   -3    5     -9.25      0.00
    1   -3    5      1.82      0.00
    2   -3    5      1.11      0.00
    3   -3    5      7.31      0.00
    4   -3    5     -1.37      0.00
    5   -3    5      2.31      0.00
    6   -3    5      9.11      0.00
    7   -3    5      3.60      0.00
    8   -3    5      1.95      0.00
    9   -3    5      0.21      0.00
   10   -3    5     -1.24      0.00
   11   -3    5      2.88      0.00
   12   -3    5      3.41      0.00
   13   -3    5      1.18      0.00
  -13   -2    5      4.08      0.00
  -12   -2    5     -0.27      0.00
  -11   -2    5     -3.31      0.00
  -10   -2    5     -0.26      0.00
   -9   -2    5      5.48      0.00
   -8   -2    5     -6.83      0.00
   -7   -2    5     -4.72      0.00
   -6   -2    5    -20.06      0.00
   -5   -2    5     -7.45      0.00
   -4   -2    5     -2.29      0.00
   -3   -2    5    -11.67      0.00
   -2   -2    5    -14.73      0.00
   -1   -2    5    -13.45      0.00
    0   -2    5     -0.92      0.00
    1   -2    5      1.33      0.00
    2   -2    5    -13.98      0.00
    3   -2    5     -2.26      0.00
    4   -2    5     -5.14      0.00
    5   -2    5      2.22      0.00
    6   -2    5     -2.02      0.00
    7   -2    5     -9.23      0.00
    8   -2    5     -0.33      0.00
    9   -2    5     -0.47      0.00
   10   -2    5     -1.14      0.00
   11   -2    5     -2.76      0.00
   12   -2    5     -1.95      0.00
   13   -2    5     -0.84      0.00
  -13   -1    5     -8.16      0.00
  -12   -1    5     -0.63      0.00
  -11   -1    5     -0.74      0.00
  -10   -1    5     -0.02      0.00
   -9   -1    5     -5.21      0.00
   -8   -1    5     -9.15      0.00
   -7   -1    5      3.50      0.00
   -6   -1    5     10.42      0.00
   -5   -1    5      6.93      0.00
   -4   -1    5      8.64      0.00
   -3   -1    5      3.14      0.00
   -2   -1    5     28.79      0.00
   -1   -1    5     20.42      0.00
    0   -1    5     22.51      0.00
    1   -1    5     -4.92      0.00
    2   -1    5      3.21      0.00
    3   -1    5     19.93      0.00
    4   -1    5     -0.38      0.00
    5   -1    5      5.71      0.00
    6   -1    5     -1.82      0.00
    7   -1    5      8.06      0.00
    8   -1    5     10.54      0.00
    9   -1    5     -0.09      0.00
   10   -1    5     -4.27      0.00
   11   -1    5      0.75      0.00
   12   -1    5      2.92      0.00
   13   -1    5      1.50      0.00
  -13    0    5     -6.23      0.00
  -12    0    5      9.79      0.00
  -11    0    5     -2.53      0.00
  -10    0    5     -2.58      0.00
   -9    0    5      1.17      0.00
   -8    0    5     12.46      0.00
   -7    0    5      7.69      0.00
   -6    0    5      0.18      0.00
   -5    0    5    -12.48      0.00
   -4    0    5      1.43      0.00
   -3    0    5     -3.58      0.00
   -2    0    5     -5.53      0.00
   -1    0    5    -36.39      0.00
    0    0    5    -14.21      0.00
    1    0    5    -22.37      0.00
    2    0    5     -3.40      0.00
    3    0    5     -7.88      0.00
    4    0    5    -19.47      0.00
    5    0    5      3.40      0.00
    6    0    5     -2.84      0.00
    7    0    5      4.17      0.00
    8    0    5     -8.64      0.00
    9    0    5     -6.97      0.00
   10    0    5     -2.19      0.00
   11    0    5      3.40      0.00
   12    0    5     -1.54      0.00
   13    0    5     -2.07      0.00
   14    0    5     -0.59      0.00
  -13    1    5     -1.84      0.00
  -12    1    5     -0.64      0.00
  -11    1    5     -2.79      0.00
  -10    1    5      1.95      0.00
   -9    1    5      3.66      0.00
   -8    1    5     -1.93      0.00
   -7    1    5    -11.63      0.00
   -6    1    5     -6.16      0.00
   -5    1    5      1.25      0.00
   -4    1    5     -2.13      0.00
   -3    1    5     -9.88      0.00
   -2    1    5    -11.19      0.00
   -1    1    5      4.33      0.00
    0    1    5     36.93      0.00
    1    1    5     -4.63      0.00
    2    1    5      7.24      0.00
    3    1    5     13.57      0.00
    4    1    5     14.44      0.00
    5    1    5     14.65      0.00
    6    1    5     -2.41      0.00
    7    1    5      2.46      0.00
    8    1    5      2.56      0.00
    9    1    5      7.58      0.00
   10    1    5      3.45      0.00
   11    1    5      2.17      0.00
   12    1    5      0.72      0.00
   13    1    5      1.37      0.00
   14    1    5      0.59      0.00
  -13    2    5      3.43      0.00
  -12    2    5     -0.57      0.00
  -11    2    5      4.34      0.00
  -10    2    5     -5.23      0.00
   -9    2    5     -8.91      0.00
   -8    2    5     -6.68      0.00
   -7    2    5      2.57      0.00
   -6    2    5     -0.68      0.00
   -5    2    5     -0.50      0.00
   -4    2    5    -21.56      0.00
   -3    2    5      6.43      0.00
   -2    2    5      7.73      0.00
   -1    2    5      8.93      0.00
    0    2    5     -0.95      0.00
    1    2    5    -28.74      0.00
    2    2    5     21.60      0.00
    3    2    5      7.36      0.00
    4    2    5     -7.28      0.00
    5    2    5    -14.04      0.00
    6    2    5     -4.55      0.00
    7    2    5      3.68      0.00
    8    2    5      1.37      0.00
    9    2    5     -8.12      0.00
   10    2    5     -1.81      0.00
   11    2    5     -0.29      0.00
   12    2    5      1.63      0.00
   13    2    5     -2.00      0.00
   14    2    5     -0.99      0.00
  -13    3    5      2.90      0.00
  -12    3    5     -3.96      0.00
  -11    3    5      1.20      0.00
  -10    3    5     -2.14      0.00
   -9    3    5      5.22      0.00
   -8    3    5     11.43      0.00
   -7    3    5      5.33      0.00
   -6    3    5     -3.86      0.00
   -5    3    5      4.85      0.00
   -4    3    5     -3.87      0.00
   -3    3    5     25.51      0.00
   -2    3    5     -7.29      0.00
   -1    3    5     -0.33      0.00
    0    3    5     16.80      0.00
    1    3    5     17.49      0.00
    2    3    5     20.70      0.00
    3    3    5    -12.06      0.00
    4    3    5     -0.86      0.00
    5    3    5      2.26      0.00
    6    3    5      7.03      0.00
    7    3    5     -5.52      0.00
    8    3    5     -3.73      0.00
    9    3    5     -1.18      0.00
   10    3    5      9.39      0.00
   11    3    5      1.76      0.00
   12    3    5      2.18      0.00
   13    3    5     -1.47      0.00
   14    3    5      0.74      0.00
  -13    4    5      2.76      0.00
  -12    4    5     -2.78      0.00
  -11    4    5      3.11      0.00
  -10    4    5      0.75      0.00
   -9    4    5     -3.01      0.00
   -8    4    5     -6.55      0.00
   -7    4    5     -9.79      0.00
   -6    4    5     -4.36      0.00
   -5    4    5     -1.29      0.00
   -4    4    5    -15.81      0.00
   -3    4    5     -3.26      0.00
   -2    4    5    -17.50      0.00
   -1    4    5     15.41      0.00
    0    4    5     -0.64      0.00
    1    4    5    -13.89      0.00
    2    4    5    -21.88      0.00
    3    4    5      1.27      0.00
    4    4    5      0.66      0.00
    5    4    5     -6.40      0.00
    6    4    5     -6.85      0.00
    7    4    5     -0.61      0.00
    8    4    5      9.91      0.00
    9    4    5      5.15      0.00
   10    4    5      0.08      0.00
   11    4    5     -2.50      0.00
   12    4    5      1.09      0.00
   13    4    5     -0.99      0.00
   14    4    5     -0.37      0.00
  -12    5    5      2.03      0.00
  -11    5    5      0.98      0.00
  -10    5    5     -2.80      0.00
   -9    5    5     -2.18      0.00
   -8    5    5      4.92      0.00
   -7    5    5      6.88      0.00
   -6    5    5      3.53      0.00
   -5    5    5     -1.91      0.00
   -4    5    5     -2.65      0.00
   -3    5    5     17.91      0.00
   -2    5    5     14.15      0.00
   -1    5    5     16.12      0.00
    0    5    5     -9.74      0.00
    1    5    5     19.28      0.00
    2    5    5      4.12      0.00
    3    5    5     18.65      0.00
    4    5    5    -13.67      0.00
    5    5    5      5.48      0.00
    6    5    5      6.46      0.00
    7    5    5     10.92      0.00
    8    5    5     -4.19      0.00
    9    5    5     -5.66      0.00
   10    5    5     -2.84      0.00
   11    5    5      4.32      0.00
   12    5    5      1.17      0.00
   13    5    5     -1.61      0.00
   14    5    5     -0.07      0.00
  -12    6    5     -4.10      0.00
  -11    6    5     -6.26      0.00
  -10    6    5     -3.16      0.00
   -9    6    5      2.85      0.00
   -8    6    5      0.01      0.00
   -7    6    5     -2.76      0.00
   -6    6    5     -6.69      0.00
   -5    6    5     -0.69      0.00
   -4    6    5      5.48      0.00
   -3    6    5      5.71      0.00
   -2    6    5     -5.47      0.00
   -1    6    5     -3.22      0.00
    0    6    5     -0.81      0.00
    1    6    5     10.47      0.00
    2    6    5    -24.73      0.00
    3    6    5      0.39      0.00
    4    6    5     -9.56      0.00
    5    6    5     12.02      0.00
    6    6    5     -3.00      0.00
    7    6    5     -2.26      0.00
    8    6    5     -4.39      0.00
    9    6    5      9.73      0.00
   10    6    5      6.30      0.00
   11    6    5      2.37      0.00
   12    6    5     -4.07      0.00
   13    6    5      0.39      0.00
   14    6    5      2.53      0.00
  -12    7    5      3.38      0.00
  -11    7    5      2.97      0.00
  -10    7    5      4.20      0.00
   -9    7    5      2.35      0.00
   -8    7    5      1.96      0.00
   -7    7    5      5.43      0.00
   -6    7    5      5.59      0.00
   -5    7    5      5.03      0.00
   -4    7    5     -0.01      0.00
   -3    7    5     -2.91      0.00
   -2    7    5      3.49      0.00
   -1    7    5      3.47      0.00
    0    7    5     -0.55      0.00
    1    7    5     -2.75      0.00
    2    7    5     -7.54      0.00
    3    7    5     12.16      0.00
    4    7    5     -2.79      0.00
    5    7    5      0.59      0.00
    6    7    5     -5.23      0.00
    7    7    5      3.74      0.00
    8    7    5      2.28      0.00
    9    7    5      0.69      0.00
   10    7    5     -3.80      0.00
   11    7    5     -3.58      0.00
   12    7    5     -2.78      0.00
   13    7    5     -0.26      0.00
   14    7    5      0.64      0.00
  -11    8    5     -3.68      0.00
  -10    8    5     -0.43      0.00
   -9    8    5      0.32      0.00
   -8    8    5      3.97      0.00
   -7    8    5     -2.82      0.00
   -6    8    5     -3.55      0.00
   -5    8    5     -8.72      0.00
   -4    8    5     -1.83      0.00
   -3    8    5      2.94      0.00
   -2    8    5      3.23      0.00
   -1    8    5     -4.47      0.00
    0    8    5      0.84      0.00
    1    8    5      4.10      0.00
    2    8    5     -0.86      0.00
    3    8    5     -1.36      0.00
    4    8    5      0.30      0.00
    5    8    5      6.81      0.00
    6    8    5      4.03      0.00
    7    8    5      4.05      0.00
    8    8    5     -4.92      0.00
    9    8    5     -0.21      0.00
   10    8    5      3.71      0.00
   11    8    5      2.14      0.00
   12    8    5     -1.02      0.00
   13    8    5      2.26      0.00
   14    8    5      7.64      0.00
  -11    9    5      0.63      0.00
  -10    9    5      5.14      0.00
   -9    9    5      2.44      0.00
   -8    9    5     -1.23      0.00
   -7    9    5     -2.46      0.00
   -6    9    5      2.72      0.00
   -5    9    5      3.31      0.00
   -4    9    5      4.75      0.00
   -3    9    5     -0.16      0.00
   -2    9    5     -2.20      0.00
   -1    9    5      2.43      0.00
    0    9    5      5.51      0.00
    1    9    5      2.37      0.00
    2    9    5     -3.53      0.00
    3    9    5      0.76      0.00
    4    9    5      4.47      0.00
    5    9    5     -3.43      0.00
    6    9    5     -9.42      0.00
    7    9    5     -4.42      0.00
    8    9    5     -0.75      0.00
    9    9    5      4.66      0.00
   10    9    5      1.29      0.00
   11    9    5     -0.62      0.00
   12    9    5     -1.38      0.00
   13    9    5      1.89      0.00
   14    9    5      3.06      0.00
  -10   10    5      1.22      0.00
   -9   10    5     -1.63      0.00
   -8   10    5     -4.34      0.00
   -7   10    5      2.90      0.00
   -6   10    5      0.94      0.00
   -5   10    5      1.10      0.00
   -4   10    5     -4.15      0.00
   -3   10    5     -0.59      0.00
   -2   10    5      1.26      0.00
   -1   10    5      1.92      0.00
    0   10    5     -1.70      0.00
    1   10    5     -1.30      0.00
    2   10    5     -2.36      0.00
    3   10    5     -1.21      0.00
    4   10    5      1.25      0.00
    5   10    5     -0.29      0.00
    6   10    5      1.31      0.00
    7   10    5      5.89      0.00
    8   10    5      3.06      0.00
    9   10    5     -2.51      0.00
   10   10    5     -4.71      0.00
   11   10    5      2.87      0.00
   12   10    5     -0.67      0.00
   13   10    5     -0.36      0.00
   -9   11    5      1.59      0.00
   -8   11    5     -2.53      0.00
   -7   11    5      1.76      0.00
   -6   11    5     -5.53      0.00
   -5   11    5      0.17      0.00
   -4   11    5     -3.79      0.00
   -3   11    5      0.21      0.00
   -2   11    5     -1.37      0.00
   -1   11    5      0.05      0.00
    0   11    5      4.07      0.00
    1   11    5      1.10      0.00
    2   11    5     -0.35      0.00
    3   11    5     -0.41      0.00
    4   11    5      3.22      0.00
    5   11    5     -1.24      0.00
    6   11    5     -3.89      0.00
    7   11    5     -3.46      0.00
    8   11    5     -3.27      0.00
    9   11    5     -0.58      0.00
   10   11    5      0.85      0.00
   11   11    5      8.50      0.00
   12   11    5     -0.59      0.00
   13   11    5      0.51      0.00
   -8   12    5     -4.14      0.00
   -7   12    5      1.53      0.00
   -6   12    5      2.54      0.00
   -5   12    5      6.61      0.00
   -4   12    5     -0.07      0.00
   -3   12    5      1.17      0.00
   -2   12    5      0.91      0.00
   -1   12    5      3.71      0.00
    0   12    5      3.91      0.00
    1   12    5     -3.42      0.00
    2   12    5      0.13      0.00
    3   12    5     -0.32      0.00
    4   12    5     -3.24      0.00
    5   12    5     -0.91      0.00
    6   12    5     -2.03      0.00
    7   12    5      2.36      0.00
    8   12    5      0.65      0.00
    9   12    5      3.67      0.00
   10   12    5     -3.54      0.00
   11   12    5      3.66      0.00
   12   12    5     -2.64      0.00
   -7   13    5      2.08      0.00
   -6   13    5      0.30      0.00
   -5   13    5     -6.74      0.00
   -4   13    5     -6.00      0.00
   -3   13    5     -3.74      0.00
   -2   13    5     -1.05      0.00
   -1   13    5      1.31      0.00
    0   13    5      0.31      0.00
    1   13    5     -1.67      0.00
    2   13    5      0.12      0.00
    3   13    5     -4.15      0.00
    4   13    5     -2.81      0.00
    5   13    5      3.20      0.00
    6   13    5     -2.08      0.00
    7   13    5     -0.04      0.00
    8   13    5     -3.08      0.00
    9   13    5      2.78      0.00
   10   13    5     -5.87      0.00
   11   13    5      5.15      0.00
   -6   14    5     -0.45      0.00
   -5   14    5     -4.71      0.00
   -4   14    5      2.67      0.00
   -3   14    5      0.65      0.00
   -2   14    5      0.76      0.00
   -1   14    5      0.97      0.00
    0   14    5      0.14      0.00
    1   14    5     -0.24      0.00
    2   14    5     -0.04      0.00
    3   14    5     -1.77      0.00
    4   14    5      1.71      0.00
    5   14    5      0.14      0.00
    6   14    5      0.13      0.00
    7   14    5      0.07      0.00
    8   14    5      1.94      0.00
    9   14    5      2.71      0.00
   10   14    5     -1.79      0.00
   11   14    5      6.09      0.00
   -5   15    5     -2.71      0.00
   -4   15    5      1.98      0.00
   -3   15    5     -3.39      0.00
   -2   15    5     -0.65      0.00
   -1   15    5      1.16      0.00
    0   15    5      3.61      0.00
    1   15    5      0.95      0.00
    2   15    5      0.76      0.00
    3   15    5     -4.79      0.00
    4   15    5      0.42      0.00
    5   15    5     -0.77      0.00
    6   15    5      2.87      0.00
    7   15    5      0.39      0.00
    8   15    5      0.25      0.00
    9   15    5      0.10      0.00
   -3   16    5     -1.57      0.00
   -2   16    5      1.97      0.00
   -1   16    5      0.21      0.00
    0   16    5      0.48      0.00
    1   16    5     -4.69      0.00
    2   16    5     -0.79      0.00
    3   16    5     -0.74      0.00
    4   16    5      3.86      0.00
    5   16    5     -0.77      0.00
    6   16    5      0.79      0.00
    7   16    5     -0.19      0.00
    8   16    5     -2.02      0.00
    0   17    5     -0.43      0.00
    1   17    5     -0.25      0.00
    2   17    5      2.72      0.00
    3   17    5      1.56      0.00
    4   17    5     -3.19      0.00
    5   17    5     -0.91      0.00
   -4  -13    6      4.13      0.00
   -3  -13    6     -2.06      0.00
   -2  -13    6      4.43      0.00
   -1  -13    6     -4.50      0.00
    0  -13    6     -0.94      0.00
    1  -13    6      1.31      0.00
   -7  -12    6     -4.15      0.00
   -6  -12    6      2.18      0.00
   -5  -12    6      0.46      0.00
   -4  -12    6     -0.75      0.00
   -3  -12    6     -4.71      0.00
   -2  -12    6      2.19      0.00
   -1  -12    6     -6.08      0.00
    0  -12    6      1.21      0.00
    1  -12    6      3.07      0.00
    2  -12    6      0.17      0.00
    3  -12    6     -0.45      0.00
    4  -12    6      0.58      0.00
   -8  -11    6      0.26      0.00
   -7  -11    6     -2.01      0.00
   -6  -11    6     -0.36      0.00
   -5  -11    6     -0.50      0.00
   -4  -11    6      0.02      0.00
   -3  -11    6      1.97      0.00
   -2  -11    6      2.44      0.00
   -1  -11    6     -2.34      0.00
    0  -11    6     -2.72      0.00
    1  -11    6      0.89      0.00
    2  -11    6     -1.78      0.00
    3  -11    6      0.55      0.00
    4  -11    6     -1.25      0.00
    5  -11    6      0.21      0.00
    6  -11    6     -1.91      0.00
   -9  -10    6     -2.83      0.00
   -8  -10    6     -1.30      0.00
   -7  -10    6     -3.78      0.00
   -6  -10    6      0.64      0.00
   -5  -10    6      8.42      0.00
   -4  -10    6      1.46      0.00
   -3  -10    6      2.49      0.00
   -2  -10    6     -0.42      0.00
   -1  -10    6     -0.58      0.00
    0  -10    6     -0.31      0.00
    1  -10    6      5.23      0.00
    2  -10    6      4.13      0.00
    3  -10    6      3.39      0.00
    4  -10    6      0.53      0.00
    5  -10    6      0.18      0.00
    6  -10    6     -0.67      0.00
    7  -10    6      1.19      0.00
  -10   -9    6     -0.66      0.00
   -9   -9    6     -3.18      0.00
   -8   -9    6      1.12      0.00
   -7   -9    6      0.98      0.00
   -6   -9    6      0.90      0.00
   -5   -9    6     -0.55      0.00
   -4   -9    6     -6.77      0.00
   -3   -9    6     -1.16      0.00
   -2   -9    6     -0.78      0.00
   -1   -9    6      0.27      0.00
    0   -9    6      1.04      0.00
    1   -9    6      0.01      0.00
    2   -9    6      4.16      0.00
    3   -9    6     -3.09      0.00
    4   -9    6     -1.98      0.00
    5   -9    6      0.76      0.00
    6   -9    6      1.31      0.00
    7   -9    6     -0.64      0.00
    8   -9    6     -1.59      0.00
  -11   -8    6      0.04      0.00
  -10   -8    6      0.95      0.00
   -9   -8    6     -1.87      0.00
   -8   -8    6      1.92      0.00
   -7   -8    6     -5.61      0.00
   -6   -8    6     -5.99      0.00
   -5   -8    6      1.97      0.00
   -4   -8    6      1.32      0.00
   -3   -8    6      5.07      0.00
   -2   -8    6      0.68      0.00
   -1   -8    6      4.17      0.00
    0   -8    6     -0.12      0.00
    1   -8    6     -0.56      0.00
    2   -8    6     -0.40      0.00
    3   -8    6     -3.63      0.00
    4   -8    6     -0.46      0.00
    5   -8    6      2.02      0.00
    6   -8    6     -0.90      0.00
    7   -8    6     -0.89      0.00
    8   -8    6      0.57      0.00
    9   -8    6      2.41      0.00
  -12   -7    6     -3.07      0.00
  -11   -7    6      5.24      0.00
  -10   -7    6      3.36      0.00
   -9   -7    6     -2.17      0.00
   -8   -7    6      1.94      0.00
   -7   -7    6     -0.91      0.00
   -6   -7    6      4.11      0.00
   -5   -7    6      4.19      0.00
   -4   -7    6     -2.77      0.00
   -3   -7    6      0.44      0.00
   -2   -7    6     -5.36      0.00
   -1   -7    6      4.29      0.00
    0   -7    6     -6.71      0.00
    1   -7    6      0.81      0.00
    2   -7    6     -1.07      0.00
    3   -7    6      4.60      0.00
    4   -7    6     -2.02      0.00
    5   -7    6      2.06      0.00
    6   -7    6      2.00      0.00
    7   -7    6      2.60      0.00
    8   -7    6      0.14      0.00
    9   -7    6      0.97      0.00
   10   -7    6     -1.72      0.00
  -12   -6    6     -1.69      0.00
  -11   -6    6      0.13      0.00
  -10   -6    6     -4.27      0.00
   -9   -6    6     -0.77      0.00
   -8   -6    6      2.68      0.00
   -7   -6    6     -0.06      0.00
   -6   -6    6     -7.30      0.00
   -5   -6    6     -4.62      0.00
   -4   -6    6      1.68      0.00
   -3   -6    6      5.98      0.00
   -2   -6    6      3.32      0.00
   -1   -6    6      6.15      0.00
    0   -6    6     -2.02      0.00
    1   -6    6      8.78      0.00
    2   -6    6     -1.32      0.00
    3   -6    6     -1.35      0.00
    4   -6    6     -4.77      0.00
    5   -6    6      2.70      0.00
    6   -6    6      4.03      0.00
    7   -6    6     -2.29      0.00
    8   -6    6     -1.75      0.00
    9   -6    6      1.45      0.00
   10   -6    6      0.58      0.00
   11   -6    6      1.43      0.00
  -12   -5    6     -8.13      0.00
  -11   -5    6     -3.98      0.00
  -10   -5    6     -2.11      0.00
   -9   -5    6      6.54      0.00
   -8   -5    6     -4.25      0.00
   -7   -5    6     -1.78      0.00
   -6   -5    6     -0.22      0.00
   -5   -5    6     11.10      0.00
   -4   -5    6      9.75      0.00
   -3   -5    6      0.27      0.00
   -2   -5    6     -1.04      0.00
   -1   -5    6     -2.80      0.00
    0   -5    6     -2.33      0.00
    1   -5    6     -0.18      0.00
    2   -5    6    -10.04      0.00
    3   -5    6     -1.34      0.00
    4   -5    6      2.12      0.00
    5   -5    6     -1.20      0.00
    6   -5    6     -1.95      0.00
    7   -5    6     -4.41      0.00
    8   -5    6      1.72      0.00
    9   -5    6      2.08      0.00
   10   -5    6     -0.61      0.00
   11   -5    6     -1.38      0.00
  -13   -4    6      2.36      0.00
  -12   -4    6      0.34      0.00
  -11   -4    6      4.96      0.00
  -10   -4    6      1.34      0.00
   -9   -4    6      2.94      0.00
   -8   -4    6     -4.17      0.00
   -7   -4    6     10.56      0.00
   -6   -4    6      3.63      0.00
   -5   -4    6     -1.52      0.00
   -4   -4    6     -4.91      0.00
   -3   -4    6     -8.69      0.00
   -2   -4    6      2.11      0.00
   -1   -4    6     -9.82      0.00
    0   -4    6     -3.33      0.00
    1   -4    6      1.49      0.00
    2   -4    6      2.65      0.00
    3   -4    6      8.53      0.00
    4   -4    6      1.53      0.00
    5   -4    6     -1.74      0.00
    6   -4    6      4.84      0.00
    7   -4    6      4.40      0.00
    8   -4    6      2.65      0.00
    9   -4    6     -0.06      0.00
   10   -4    6     -2.38      0.00
   11   -4    6     -0.15      0.00
   12   -4    6     -0.96      0.00
  -13   -3    6      0.48      0.00
  -12   -3    6     -1.57      0.00
  -11   -3    6     -6.06      0.00
  -10   -3    6     -2.51      0.00
   -9   -3    6      2.35      0.00
   -8   -3    6      1.57      0.00
   -7   -3    6      0.72      0.00
   -6   -3    6    -13.90      0.00
   -5   -3    6     -1.41      0.00
   -4   -3    6      0.06      0.00
   -3   -3    6     -2.99      0.00
   -2   -3    6      0.63      0.00
   -1   -3    6    -11.30      0.00
    0   -3    6     12.94      0.00
    1   -3    6      6.94      0.00
    2   -3    6      2.16      0.00
    3   -3    6      0.03      0.00
    4   -3    6     -1.99      0.00
    5   -3    6      2.70      0.00
    6   -3    6      0.71      0.00
    7   -3    6     -5.25      0.00
    8   -3    6     -2.04      0.00
    9   -3    6     -0.58      0.00
   10   -3    6     -0.31      0.00
   11   -3    6      0.41      0.00
   12   -3    6     -1.50      0.00
  -13   -2    6     -1.48      0.00
  -12   -2    6     -3.52      0.00
  -11   -2    6     -0.03      0.00
  -10   -2    6      5.30      0.00
   -9   -2    6     -1.26      0.00
   -8   -2    6     -3.75      0.00
   -7   -2    6      2.88      0.00
   -6   -2    6      6.61      0.00
   -5   -2    6     16.62      0.00
   -4   -2    6     -0.44      0.00
   -3   -2    6      1.22      0.00
   -2   -2    6      8.99      0.00
   -1   -2    6      3.78      0.00
    0   -2    6      7.55      0.00
    1   -2    6     -8.59      0.00
    2   -2    6     -2.45      0.00
    3   -2    6      2.99      0.00
    4   -2    6     -0.57      0.00
    5   -2    6     -3.07      0.00
    6   -2    6     -4.58      0.00
    7   -2    6     -0.08      0.00
    8   -2    6      5.38      0.00
    9   -2    6      0.19      0.00
   10   -2    6     -1.05      0.00
   11   -2    6     -1.58      0.00
   12   -2    6      0.17      0.00
   13   -2    6      0.41      0.00
  -13   -1    6      2.28      0.00
  -12   -1    6     -0.44      0.00
  -11   -1    6      6.23      0.00
  -10   -1    6     -0.43      0.00
   -9   -1    6      0.21      0.00
   -8   -1    6      7.64      0.00
   -7   -1    6     10.47      0.00
   -6   -1    6     -4.09      0.00
   -5   -1    6     -8.43      0.00
   -4   -1    6     -7.41      0.00
   -3   -1    6     -5.67      0.00
   -2   -1    6     -4.76      0.00
   -1   -1    6    -20.62      0.00
    0   -1    6    -12.67      0.00
    1   -1    6     -1.97      0.00
    2   -1    6      5.15      0.00
    3   -1    6      1.83      0.00
    4   -1    6     -6.36      0.00
    5   -1    6      1.52      0.00
    6   -1    6      6.08      0.00
    7   -1    6      0.64      0.00
    8   -1    6     -3.04      0.00
    9   -1    6     -2.71      0.00
   10   -1    6      0.36      0.00
   11   -1    6      1.79      0.00
   12   -1    6      2.05      0.00
   13   -1    6      0.11      0.00
  -13    0    6      1.25      0.00
  -12    0    6     -6.19      0.00
  -11    0    6     -1.01      0.00
  -10    0    6     -1.61      0.00
   -9    0    6     -0.75      0.00
   -8    0    6     -3.88      0.00
   -7    0    6    -14.49      0.00
   -6    0    6    -11.82      0.00
   -5    0    6      1.60      0.00
   -4    0    6      5.29      0.00
   -3    0    6    -10.00      0.00
   -2    0    6      3.37      0.00
   -1    0    6      6.80      0.00
    0    0    6     18.87      0.00
    1    0    6     10.78      0.00
    2    0    6      1.16      0.00
    3    0    6     -1.97      0.00
    4    0    6      3.71      0.00
    5    0    6      5.55      0.00
    6    0    6     -6.15      0.00
    7    0    6     -6.63      0.00
    8    0    6     -2.82      0.00
    9    0    6      4.91      0.00
   10    0    6     -0.66      0.00
   11    0    6     -1.39      0.00
   12    0    6     -2.05      0.00
   13    0    6     -0.07      0.00
  -13    1    6     -2.49      0.00
  -12    1    6     -2.79      0.00
  -11    1    6      5.97      0.00
  -10    1    6      3.26      0.00
   -9    1    6     -4.47      0.00
   -8    1    6      1.10      0.00
   -7    1    6      5.51      0.00
   -6    1    6     15.62      0.00
   -5    1    6     11.71      0.00
   -4    1    6      2.77      0.00
   -3    1    6      8.32      0.00
   -2    1    6     19.03      0.00
   -1    1    6     10.36      0.00
    0    1    6     -9.47      0.00
    1    1    6    -11.87      0.00
    2    1    6      1.84      0.00
    3    1    6     -0.27      0.00
    4    1    6     -1.12      0.00
    5    1    6     -9.37      0.00
    6    1    6     -4.11      0.00
    7    1    6      9.94      0.00
    8    1    6     -0.64      0.00
    9    1    6      3.28      0.00
   10    1    6     -5.05      0.00
   11    1    6     -0.32      0.00
   12    1    6     -0.43      0.00
   13    1    6      2.13      0.00
   14    1    6     -0.45      0.00
  -13    2    6     -2.90      0.00
  -12    2    6     -0.60      0.00
  -11    2    6     -0.25      0.00
  -10    2    6     -3.12      0.00
   -9    2    6      1.55      0.00
   -8    2    6      9.37      0.00
   -7    2    6      4.39      0.00
   -6    2    6     -7.28      0.00
   -5    2    6     -1.68      0.00
   -4    2    6     -3.13      0.00
   -3    2    6      2.97      0.00
   -2    2    6    -20.41      0.00
   -1    2    6    -15.47      0.00
    0    2    6    -17.99      0.00
    1    2    6      4.27      0.00
    2    2    6      1.82      0.00
    3    2    6    -18.64      0.00
    4    2    6     -5.31      0.00
    5    2    6      4.49      0.00
    6    2    6      6.29      0.00
    7    2    6      0.25      0.00
    8    2    6    -11.44      0.00
    9    2    6      1.99      0.00
   10    2    6     -2.58      0.00
   11    2    6     -0.62      0.00
   12    2    6     -0.90      0.00
   13    2    6      1.48      0.00
   14    2    6     -0.78      0.00
  -13    3    6     -4.34      0.00
  -12    3    6      0.74      0.00
  -11    3    6      0.62      0.00
  -10    3    6      2.76      0.00
   -9    3    6      2.99      0.00
   -8    3    6     -4.16      0.00
   -7    3    6     -8.41      0.00
   -6    3    6     -3.52      0.00
   -5    3    6     13.19      0.00
   -4    3    6     -2.34      0.00
   -3    3    6      0.03      0.00
   -2    3    6     -8.02      0.00
   -1    3    6     20.47      0.00
    0    3    6      2.48      0.00
    1    3    6      2.36      0.00
    2    3    6     -6.69      0.00
    3    3    6      2.20      0.00
    4    3    6     20.23      0.00
    5    3    6      6.97      0.00
    6    3    6     -5.85      0.00
    7    3    6      0.58      0.00
    8    3    6      3.18      0.00
    9    3    6      8.36      0.00
   10    3    6     -2.91      0.00
   11    3    6     -2.47      0.00
   12    3    6     -0.47      0.00
   13    3    6      0.09      0.00
   14    3    6     -0.98      0.00
  -13    4    6     -1.70      0.00
  -12    4    6      3.25      0.00
  -11    4    6     -2.06      0.00
  -10    4    6     -4.20      0.00
   -9    4    6     -4.88      0.00
   -8    4    6     -3.28      0.00
   -7    4    6      5.54      0.00
   -6    4    6      7.63      0.00
   -5    4    6      1.65      0.00
   -4    4    6     -6.30      0.00
   -3    4    6      6.31      0.00
   -2    4    6     -4.02      0.00
   -1    4    6      0.24      0.00
    0    4    6    -26.15      0.00
    1    4    6     -0.55      0.00
    2    4    6      3.31      0.00
    3    4    6      5.50      0.00
    4    4    6    -10.45      0.00
    5    4    6     -6.79      0.00
    6    4    6     -2.90      0.00
    7    4    6      4.68      0.00
    8    4    6     -4.38      0.00
    9    4    6     -4.53      0.00
   10    4    6     -7.77      0.00
   11    4    6      0.44      0.00
   12    4    6      0.63      0.00
   13    4    6      1.64      0.00
   14    4    6     -0.27      0.00
  -12    5    6      0.01      0.00
  -11    5    6     -2.89      0.00
  -10    5    6      3.31      0.00
   -9    5    6      7.82      0.00
   -8    5    6      4.79      0.00
   -7    5    6      1.64      0.00
   -6    5    6     -1.71      0.00
   -5    5    6     -0.09      0.00
   -4    5    6      4.23      0.00
   -3    5    6      1.48      0.00
   -2    5    6    -14.83      0.00
   -1    5    6     -1.53      0.00
    0    5    6      0.65      0.00
    1    5    6     20.27      0.00
    2    5    6     -2.75      0.00
    3    5    6      0.07      0.00
    4    5    6     -0.46      0.00
    5    5    6     18.73      0.00
    6    5    6     -7.47      0.00
    7    5    6     -2.24      0.00
    8    5    6     -2.85      0.00
    9    5    6      4.55      0.00
   10    5    6      2.83      0.00
   11    5    6      3.59      0.00
   12    5    6     -1.27      0.00
   13    5    6      1.76      0.00
   14    5    6     -1.91      0.00
  -12    6    6      4.45      0.00
  -11    6    6      2.15      0.00
  -10    6    6      2.07      0.00
   -9    6    6     -1.96      0.00
   -8    6    6    -13.34      0.00
   -7    6    6     -3.97      0.00
   -6    6    6      2.11      0.00
   -5    6    6      0.30      0.00
   -4    6    6     -6.63      0.00
   -3    6    6    -10.01      0.00
   -2    6    6     -8.11      0.00
   -1    6    6      2.88      0.00
    0    6    6     -3.07      0.00
    1    6    6     -7.90      0.00
    2    6    6     -5.86      0.00
    3    6    6      5.00      0.00
    4    6    6     -1.70      0.00
    5    6    6     -7.84      0.00
    6    6    6    -19.33      0.00
    7    6    6      2.36      0.00
    8    6    6      2.80      0.00
    9    6    6     -3.86      0.00
   10    6    6     -6.39      0.00
   11    6    6     -3.61      0.00
   12    6    6     -1.56      0.00
   13    6    6      3.06      0.00
   14    6    6     -4.14      0.00
  -11    7    6     -2.92      0.00
  -10    7    6     -2.96      0.00
   -9    7    6      0.54      0.00
   -8    7    6     -1.71      0.00
   -7    7    6      9.81      0.00
   -6    7    6     -0.60      0.00
   -5    7    6     -1.88      0.00
   -3    7    6      5.01      0.00
   -2    7    6      6.17      0.00
   -1    7    6      2.29      0.00
    0    7    6      5.18      0.00
    1    7    6      7.10      0.00
    2    7    6     15.05      0.00
    3    7    6     -1.07      0.00
    4    7    6     -2.45      0.00
    5    7    6      4.08      0.00
    6    7    6     10.25      0.00
    7    7    6      6.49      0.00
    8    7    6      4.71      0.00
    9    7    6     -6.37      0.00
   10    7    6      4.72      0.00
   11    7    6      4.67      0.00
   12    7    6      3.11      0.00
   13    7    6      4.08      0.00
   14    7    6     -4.43      0.00
  -11    8    6     -2.20      0.00
  -10    8    6     -0.14      0.00
   -9    8    6      2.75      0.00
   -8    8    6     -2.79      0.00
   -7    8    6     -1.90      0.00
   -6    8    6     -4.24      0.00
   -5    8    6      3.99      0.00
   -4    8    6     -0.09      0.00
   -3    8    6     -2.36      0.00
   -2    8    6     -5.74      0.00
   -1    8    6     -5.34      0.00
    0    8    6      0.16      0.00
    1    8    6     -5.64      0.00
    2    8    6     -5.28      0.00
    3    8    6     -8.96      0.00
    4    8    6     -1.84      0.00
    5    8    6     -1.01      0.00
    6    8    6    -10.29      0.00
    7    8    6     -8.53      0.00
    8    8    6      0.35      0.00
    9    8    6     -4.53      0.00
   10    8    6      2.55      0.00
   11    8    6     -4.48      0.00
   12    8    6     -3.30      0.00
   13    8    6     -0.35      0.00
   14    8    6     -8.05      0.00
  -10    9    6     -0.07      0.00
   -9    9    6     -1.40      0.00
   -8    9    6      0.22      0.00
   -7    9    6      2.36      0.00
   -6    9    6      3.41      0.00
   -5    9    6      2.58      0.00
   -4    9    6     -1.72      0.00
   -3    9    6      0.29      0.00
   -2    9    6      4.14      0.00
   -1    9    6      3.02      0.00
    0    9    6      0.31      0.00
    1    9    6      1.47      0.00
    2    9    6      3.47      0.00
    3    9    6      5.76      0.00
    4    9    6     -3.43      0.00
    5    9    6      2.47      0.00
    6    9    6      4.01      0.00
    7    9    6     10.40      0.00
    8    9    6      5.10      0.00
    9    9    6     -0.01      0.00
   10    9    6     -2.06      0.00
   11    9    6     -1.27      0.00
   12    9    6      1.01      0.00
   13    9    6      2.07      0.00
  -10   10    6      0.66      0.00
   -9   10    6     -0.45      0.00
   -7   10    6     -1.78      0.00
   -6   10    6     -2.20      0.00
   -5   10    6     -2.51      0.00
   -4   10    6     -1.61      0.00
   -3   10    6     -1.40      0.00
   -2   10    6     -1.71      0.00
   -1   10    6     -6.70      0.00
    0   10    6     -2.36      0.00
    1   10    6     -0.14      0.00
    2   10    6     -0.73      0.00
    3   10    6     -1.29      0.00
    4   10    6     -8.12      0.00
    5   10    6      4.55      0.00
    6   10    6     -0.76      0.00
    7   10    6     -3.47      0.00
    8   10    6     -5.89      0.00
    9   10    6      0.27      0.00
   10   10    6     -2.18      0.00
   11   10    6      3.68      0.00
   12   10    6     -2.39      0.00
   13   10    6      2.79      0.00
   -9   11    6      0.46      0.00
   -8   11    6      3.81      0.00
   -7   11    6     -4.25      0.00
   -6   11    6      3.64      0.00
   -5   11    6      4.23      0.00
   -4   11    6      3.58      0.00
   -3   11    6      1.53      0.00
   -2   11    6      2.86      0.00
   -1   11    6     -0.61      0.00
    0   11    6      3.22      0.00
    1   11    6      0.82      0.00
    2   11    6      5.55      0.00
    3   11    6     -0.02      0.00
    4   11    6      0.72      0.00
    5   11    6      0.50      0.00
    6   11    6     -0.43      0.00
    7   11    6      3.24      0.00
    8   11    6      1.72      0.00
    9   11    6      6.09      0.00
   10   11    6     -1.96      0.00
   11   11    6     -0.44      0.00
   12   11    6     -7.61      0.00
   13   11    6      4.56      0.00
   -8   12    6      0.98      0.00
   -7   12    6      0.21      0.00
   -6   12    6      0.25      0.00
   -5   12    6     -2.35      0.00
   -4   12    6     -3.85      0.00
   -3   12    6     -2.85      0.00
   -2   12    6     -3.59      0.00
   -1   12    6     -6.32      0.00
    0   12    6     -3.55      0.00
    1   12    6      0.86      0.00
    2   12    6      1.11      0.00
    3   12    6     -2.33      0.00
    4   12    6     -0.87      0.00
    5   12    6     -2.07      0.00
    6   12    6      3.85      0.00
    7   12    6      0.62      0.00
    8   12    6     -1.83      0.00
    9   12    6      1.51      0.00
   10   12    6     -2.16      0.00
   11   12    6     -2.82      0.00
   12   12    6     -0.57      0.00
   -7   13    6     -2.35      0.00
   -6   13    6      0.29      0.00
   -5   13    6      2.55      0.00
   -4   13    6      5.44      0.00
   -3   13    6      4.26      0.00
   -2   13    6      1.87      0.00
   -1   13    6      2.52      0.00
    0   13    6     -0.17      0.00
    1   13    6      5.15      0.00
    2   13    6     -0.88      0.00
    3   13    6      3.70      0.00
    4   13    6      1.30      0.00
    5   13    6      0.96      0.00
    6   13    6     -0.53      0.00
    7   13    6     -0.47      0.00
    8   13    6      1.44      0.00
    9   13    6      0.42      0.00
   10   13    6      1.93      0.00
   11   13    6     -1.06      0.00
   -6   14    6      6.45      0.00
   -5   14    6      2.77      0.00
   -4   14    6      1.50      0.00
   -3   14    6     -3.15      0.00
   -2   14    6     -3.47      0.00
   -1   14    6     -3.23      0.00
    0   14    6     -3.42      0.00
    1   14    6      2.86      0.00
    2   14    6     -1.12      0.00
    3   14    6      3.72      0.00
    4   14    6     -2.54      0.00
    5   14    6     -4.09      0.00
    6   14    6     -0.53      0.00
    7   14    6      0.15      0.00
    8   14    6     -1.43      0.00
    9   14    6     -2.82      0.00
   10   14    6      1.87      0.00
   11   14    6     -5.94      0.00
   -5   15    6     -1.20      0.00
   -4   15    6     -0.43      0.00
   -3   15    6      0.96      0.00
   -2   15    6      1.70      0.00
   -1   15    6      0.97      0.00
    0   15    6      0.41      0.00
    1   15    6     -4.09      0.00
    2   15    6      0.78      0.00
    3   15    6      1.31      0.00
    4   15    6     -1.59      0.00
    5   15    6      0.43      0.00
    6   15    6      0.31      0.00
    7   15    6     -2.58      0.00
    8   15    6      0.21      0.00
    9   15    6      0.84      0.00
   -3   16    6      1.80      0.00
   -2   16    6     -1.23      0.00
   -1   16    6     -2.33      0.00
    0   16    6     -2.07      0.00
    1   16    6     -0.36      0.00
    2   16    6      8.09      0.00
    3   16    6     -0.28      0.00
    4   16    6     -2.04      0.00
    5   16    6     -0.95      0.00
    6   16    6     -3.74      0.00
    7   16    6      0.83      0.00
    8   16    6      1.11      0.00
    0   17    6      0.20      0.00
    1   17    6      2.36      0.00
    2   17    6     -2.02      0.00
    3   17    6     -2.36      0.00
    4   17    6     -2.21      0.00
    5   17    6      2.70      0.00
    6   17    6     -1.37      0.00
   -5  -12    7     -3.02      0.00
   -4  -12    7     -0.91      0.00
   -3  -12    7      1.16      0.00
   -2  -12    7      2.50      0.00
   -1  -12    7      4.70      0.00
    0  -12    7      1.92      0.00
    1  -12    7     -0.40      0.00
    2  -12    7     -5.98      0.00
   -7  -11    7     -0.80      0.00
   -6  -11    7     -0.07      0.00
   -5  -11    7     -0.50      0.00
   -4  -11    7      1.75      0.00
   -3  -11    7      3.25      0.00
   -2  -11    7     -5.89      0.00
   -1  -11    7      0.71      0.00
    0  -11    7     -1.59      0.00
    1  -11    7     -2.14      0.00
    2  -11    7     -1.46      0.00
    3  -11    7      5.01      0.00
    4  -11    7     -1.98      0.00
   -8  -10    7      0.89      0.00
   -7  -10    7      1.78      0.00
   -6  -10    7      1.01      0.00
   -5  -10    7     -2.00      0.00
   -4  -10    7     -4.19      0.00
   -3  -10    7      2.64      0.00
   -2  -10    7     -5.42      0.00
   -1  -10    7      4.83      0.00
    0  -10    7     -1.38      0.00
    1  -10    7     -0.76      0.00
    2  -10    7     -4.90      0.00
    3  -10    7      0.65      0.00
    4  -10    7     -2.92      0.00
    5  -10    7      0.94      0.00
    6  -10    7      1.63      0.00
   -9   -9    7      0.53      0.00
   -8   -9    7      3.12      0.00
   -7   -9    7      1.94      0.00
   -6   -9    7     -3.66      0.00
   -5   -9    7     -4.38      0.00
   -4   -9    7      0.43      0.00
   -3   -9    7      4.59      0.00
   -2   -9    7     -5.51      0.00
   -1   -9    7      0.08      0.00
    0   -9    7     -0.21      0.00
    1   -9    7     -3.13      0.00
    2   -9    7     -5.04      0.00
    3   -9    7      2.78      0.00
    4   -9    7     -0.23      0.00
    5   -9    7      0.88      0.00
    6   -9    7      0.03      0.00
    7   -9    7     -1.41      0.00
  -10   -8    7      4.32      0.00
   -9   -8    7     -1.30      0.00
   -8   -8    7      2.34      0.00
   -7   -8    7     -0.12      0.00
   -6   -8    7      1.28      0.00
   -5   -8    7      3.33      0.00
   -4   -8    7      4.34      0.00
   -3   -8    7      0.37      0.00
   -2   -8    7     -2.26      0.00
   -1   -8    7     -0.85      0.00
    0   -8    7     -1.17      0.00
    1   -8    7     -3.36      0.00
    2   -8    7      1.19      0.00
    3   -8    7      4.80      0.00
    4   -8    7      0.72      0.00
    5   -8    7     -2.13      0.00
    6   -8    7     -1.34      0.00
    7   -8    7      1.35      0.00
    8   -8    7      0.62      0.00
  -11   -7    7     -1.99      0.00
  -10   -7    7     -0.09      0.00
   -9   -7    7     -4.42      0.00
   -8   -7    7      1.14      0.00
   -7   -7    7      0.96      0.00
   -6   -7    7      1.61      0.00
   -5   -7    7     -5.56      0.00
   -4   -7    7     -1.46      0.00
   -3   -7    7     -1.79      0.00
   -2   -7    7     -1.89      0.00
   -1   -7    7     -0.55      0.00
    0   -7    7      0.44      0.00
    1   -7    7      5.46      0.00
    2   -7    7      1.82      0.00
    3   -7    7      0.32      0.00
    4   -7    7     -1.47      0.00
    5   -7    7     -2.03      0.00
    6   -7    7     -0.32      0.00
    7   -7    7     -0.04      0.00
    8   -7    7     -2.56      0.00
    9   -7    7      0.01      0.00
  -11   -6    7     -3.05      0.00
  -10   -6    7      3.38      0.00
   -9   -6    7     -0.16      0.00
   -8   -6    7     -0.61      0.00
   -7   -6    7      1.51      0.00
   -6   -6    7      1.06      0.00
   -5   -6    7     -1.39      0.00
   -4   -6    7      7.03      0.00
   -3   -6    7     -3.95      0.00
   -2   -6    7     -1.39      0.00
   -1   -6    7     -0.51      0.00
    0   -6    7     -3.92      0.00
    1   -6    7     -0.25      0.00
    2   -6    7     -5.53      0.00
    3   -6    7      0.03      0.00
    4   -6    7      5.07      0.00
    5   -6    7     -0.68      0.00
    6   -6    7     -1.13      0.00
    7   -6    7     -1.38      0.00
    8   -6    7      1.55      0.00
    9   -6    7      1.62      0.00
   10   -6    7      0.79      0.00
  -12   -5    7      6.68      0.00
  -11   -5    7      7.67      0.00
  -10   -5    7      4.46      0.00
   -9   -5    7     -5.01      0.00
   -8   -5    7     -3.13      0.00
   -7   -5    7      3.50      0.00
   -6   -5    7      2.01      0.00
   -5   -5    7     -5.97      0.00
   -4   -5    7     -4.17      0.00
   -3   -5    7    -10.81      0.00
   -2   -5    7      4.31      0.00
   -1   -5    7     -2.26      0.00
    0   -5    7     -1.15      0.00
    1   -5    7      1.97      0.00
    2   -5    7      3.65      0.00
    3   -5    7      5.91      0.00
    4   -5    7      1.79      0.00
    5   -5    7     -5.29      0.00
    6   -5    7     -0.65      0.00
    7   -5    7      0.79      0.00
    8   -5    7      3.13      0.00
    9   -5    7     -1.59      0.00
   10   -5    7      0.05      0.00
   11   -5    7      1.04      0.00
  -12   -4    7      1.64      0.00
  -11   -4    7     -6.46      0.00
  -10   -4    7     -6.57      0.00
   -9   -4    7     -4.69      0.00
   -8   -4    7     -0.14      0.00
   -7   -4    7      0.47      0.00
   -6   -4    7     -5.00      0.00
   -5   -4    7     -7.41      0.00
   -4   -4    7      9.01      0.00
   -3   -4    7      3.83      0.00
   -2   -4    7     13.04      0.00
   -1   -4    7     -0.18      0.00
    0   -4    7      9.92      0.00
    1   -4    7      2.04      0.00
    2   -4    7      1.89      0.00
    3   -4    7     -2.75      0.00
    4   -4    7     -3.49      0.00
    5   -4    7      3.20      0.00
    6   -4    7      1.85      0.00
    7   -4    7      0.59      0.00
    8   -4    7     -1.52      0.00
    9   -4    7     -1.52      0.00
   10   -4    7      1.80      0.00
   11   -4    7      3.14      0.00
  -12   -3    7      1.33      0.00
  -11   -3    7      0.89      0.00
  -10   -3    7      6.13      0.00
   -9   -3    7      3.04      0.00
   -8   -3    7     -4.05      0.00
   -7   -3    7      0.08      0.00
   -6   -3    7      3.03      0.00
   -5   -3    7      7.75      0.00
   -4   -3    7      7.33      0.00
   -3   -3    7     -7.26      0.00
   -2   -3    7      4.32      0.00
   -1   -3    7     -4.29      0.00
    0   -3    7     -0.34      0.00
    1   -3    7    -17.30      0.00
    2   -3    7     -6.52      0.00
    3   -3    7     -3.70      0.00
    4   -3    7     -1.88      0.00
    5   -3    7     -0.54      0.00
    6   -3    7     -7.48      0.00
    7   -3    7     -1.41      0.00
    8   -3    7     -0.49      0.00
    9   -3    7      2.72      0.00
   10   -3    7      0.96      0.00
   11   -3    7      1.26      0.00
   12   -3    7     -1.19      0.00
  -13   -2    7      4.08      0.00
  -12   -2    7      1.64      0.00
  -11   -2    7      3.80      0.00
  -10   -2    7     -1.68      0.00
   -9   -2    7     -3.94      0.00
   -8   -2    7     -4.35      0.00
   -7   -2    7      5.18      0.00
   -6   -2    7     -2.70      0.00
   -5   -2    7     -6.41      0.00
   -4   -2    7     -6.03      0.00
   -3   -2    7      0.79      0.00
   -2   -2    7      3.85      0.00
   -1   -2    7     -3.83      0.00
    0   -2    7     -3.43      0.00
    1   -2    7      3.26      0.00
    2   -2    7     11.71      0.00
    3   -2    7      6.53      0.00
    4   -2    7      1.44      0.00
    5   -2    7      3.48      0.00
    6   -2    7      4.81      0.00
    7   -2    7      5.95      0.00
    8   -2    7      0.13      0.00
    9   -2    7      0.27      0.00
   10   -2    7     -1.02      0.00
   11   -2    7      2.48      0.00
   12   -2    7      0.72      0.00
  -13   -1    7      9.25      0.00
  -12   -1    7     -6.45      0.00
  -11   -1    7     -0.04      0.00
  -10   -1    7     -6.52      0.00
   -9   -1    7      0.81      0.00
   -8   -1    7     -2.97      0.00
   -7   -1    7     -3.51      0.00
   -6   -1    7     -7.45      0.00
   -5   -1    7      4.09      0.00
   -4   -1    7      8.35      0.00
   -3   -1    7      3.08      0.00
   -2   -1    7     -2.38      0.00
   -1   -1    7      6.07      0.00
    0   -1    7      7.76      0.00
    1   -1    7      8.19      0.00
    2   -1    7    -11.52      0.00
    3   -1    7     -3.73      0.00
    4   -1    7     -5.29      0.00
    5   -1    7      1.05      0.00
    6   -1    7     -3.68      0.00
    7   -1    7     -7.06      0.00
    8   -1    7     -1.66      0.00
    9   -1    7      2.39      0.00
   10   -1    7     -0.14      0.00
   11   -1    7      1.41      0.00
   12   -1    7     -2.39      0.00
   13   -1    7     -3.03      0.00
  -13    0    7      0.47      0.00
  -12    0    7     -5.43      0.00
  -11    0    7      8.65      0.00
  -10    0    7     -1.27      0.00
   -9    0    7      3.40      0.00
   -8    0    7      1.41      0.00
   -7    0    7      8.68      0.00
   -6    0    7     12.71      0.00
   -5    0    7     11.25      0.00
   -4    0    7      1.04      0.00
   -3    0    7      1.94      0.00
   -2    0    7      8.29      0.00
   -1    0    7      0.55      0.00
    0    0    7     -6.03      0.00
    1    0    7     -9.60      0.00
    2    0    7     -6.54      0.00
    3    0    7     12.33      0.00
    4    0    7     -3.29      0.00
    5    0    7      3.43      0.00
    6    0    7     -5.03      0.00
    7    0    7      6.22      0.00
    8    0    7      8.13      0.00
    9    0    7      2.16      0.00
   10    0    7     -1.70      0.00
   11    0    7      3.42      0.00
   12    0    7     -0.15      0.00
   13    0    7     -1.20      0.00
  -13    1    7      8.18      0.00
  -12    1    7      2.51      0.00
  -11    1    7      3.07      0.00
  -10    1    7     -8.22      0.00
   -9    1    7      1.42      0.00
   -8    1    7      3.90      0.00
   -7    1    7     -0.43      0.00
   -6    1    7    -10.63      0.00
   -5    1    7    -13.52      0.00
   -4    1    7    -12.15      0.00
   -3    1    7     -5.09      0.00
   -2    1    7    -15.60      0.00
   -1    1    7    -23.95      0.00
    0    1    7      1.10      0.00
    1    1    7      4.50      0.00
    2    1    7      4.38      0.00
    3    1    7     -0.13      0.00
    4    1    7     -9.63      0.00
    5    1    7      7.16      0.00
    6    1    7     -1.86      0.00
    7    1    7      5.17      0.00
    8    1    7     -6.87      0.00
    9    1    7     -1.24      0.00
   10    1    7     -1.77      0.00
   11    1    7      2.44      0.00
   12    1    7     -2.11      0.00
   13    1    7     -1.33      0.00
  -13    2    7     10.17      0.00
  -12    2    7     -8.67      0.00
  -11    2    7     -1.79      0.00
  -10    2    7     -1.28      0.00
   -9    2    7      3.91      0.00
   -8    2    7     -4.48      0.00
   -7    2    7     -7.88      0.00
   -6    2    7     -3.94      0.00
   -5    2    7      9.04      0.00
   -4    2    7      2.91      0.00
   -3    2    7      6.20      0.00
   -2    2    7      6.25      0.00
   -1    2    7     19.06      0.00
    0    2    7     27.94      0.00
    1    2    7      4.61      0.00
    2    2    7     -2.08      0.00
    3    2    7      7.69      0.00
    4    2    7      7.66      0.00
    5    2    7      8.13      0.00
    6    2    7     -7.56      0.00
    7    2    7     -1.02      0.00
    8    2    7      0.65      0.00
    9    2    7      8.73      0.00
   10    2    7     -0.52      0.00
   11    2    7      3.10      0.00
   12    2    7      0.73      0.00
   13    2    7     -0.16      0.00
   14    2    7      0.16      0.00
  -12    3    7     -2.91      0.00
  -11    3    7      4.00      0.00
  -10    3    7      2.20      0.00
   -9    3    7     -1.87      0.00
   -8    3    7     -1.03      0.00
   -7    3    7      6.47      0.00
   -6    3    7      6.40      0.00
   -5    3    7      3.23      0.00
   -4    3    7    -11.38      0.00
   -3    3    7      4.09      0.00
   -2    3    7      3.20      0.00
   -1    3    7     -8.94      0.00
    0    3    7    -14.39      0.00
    1    3    7    -11.76      0.00
    2    3    7     -2.11      0.00
    3    3    7      0.24      0.00
    4    3    7    -13.39      0.00
    5    3    7    -12.96      0.00
    6    3    7     -4.52      0.00
    7    3    7      5.23      0.00
    8    3    7      0.73      0.00
    9    3    7     -2.44      0.00
   10    3    7     -3.70      0.00
   11    3    7      1.09      0.00
   12    3    7      0.10      0.00
   13    3    7      0.19      0.00
   14    3    7      1.28      0.00
  -12    4    7     -3.68      0.00
  -11    4    7     -4.56      0.00
  -10    4    7      3.96      0.00
   -9    4    7      2.88      0.00
   -8    4    7      5.01      0.00
   -7    4    7      0.22      0.00
   -6    4    7     -6.40      0.00
   -5    4    7     -4.64      0.00
   -4    4    7     -1.47      0.00
   -3    4    7      7.55      0.00
   -2    4    7     -4.27      0.00
   -1    4    7     -3.30      0.00
    0    4    7     14.56      0.00
    1    4    7     17.91      0.00
    2    4    7     -0.21      0.00
    3    4    7     -2.98      0.00
    4    4    7      3.13      0.00
    5    4    7     10.75      0.00
    6    4    7     11.19      0.00
    7    4    7     -1.55      0.00
    8    4    7     -3.99      0.00
    9    4    7      0.94      0.00
   10    4    7      3.96      0.00
   11    4    7      1.92      0.00
   12    4    7      0.97      0.00
   13    4    7      0.81      0.00
   14    4    7     -0.29      0.00
  -12    5    7     -0.14      0.00
  -11    5    7     -1.13      0.00
  -10    5    7      5.92      0.00
   -9    5    7     -4.58      0.00
   -8    5    7     -5.91      0.00
   -7    5    7     -5.09      0.00
   -6    5    7     -1.32      0.00
   -5    5    7      4.40      0.00
   -4    5    7      0.56      0.00
   -3    5    7     -3.02      0.00
   -2    5    7      4.61      0.00
   -1    5    7      7.98      0.00
    0    5    7     -0.25      0.00
    1    5    7    -10.15      0.00
    2    5    7    -17.86      0.00
    3    5    7      3.91      0.00
    4    5    7      1.91      0.00
    5    5    7     -5.22      0.00
    6    5    7     -7.53      0.00
    7    5    7     -0.88      0.00
    8    5    7      4.47      0.00
    9    5    7      1.26      0.00
   10    5    7      0.54      0.00
   11    5    7     -1.50      0.00
   12    5    7     -2.30      0.00
   13    5    7     -0.28      0.00
   14    5    7     -0.60      0.00
  -12    6    7      2.75      0.00
  -11    6    7     -3.87      0.00
  -10    6    7      0.59      0.00
   -9    6    7     -0.82      0.00
   -8    6    7      5.78      0.00
   -7    6    7      9.39      0.00
   -6    6    7      1.38      0.00
   -5    6    7      1.17      0.00
   -4    6    7      1.14      0.00
   -3    6    7      4.74      0.00
   -2    6    7     11.37      0.00
   -1    6    7     -7.18      0.00
    0    6    7     -4.59      0.00
    1    6    7      4.59      0.00
    2    6    7      3.78      0.00
    3    6    7      5.90      0.00
    4    6    7     -3.99      0.00
    5    6    7      2.87      0.00
    6    6    7     10.68      0.00
    7    6    7      9.05      0.00
    8    6    7     -2.88      0.00
    9    6    7     -3.82      0.00
   10    6    7      1.39      0.00
   11    6    7      2.46      0.00
   12    6    7     -2.62      0.00
   13    6    7      2.23      0.00
   14    6    7      1.01      0.00
  -11    7    7     -6.39      0.00
  -10    7    7      2.20      0.00
   -9    7    7      3.36      0.00
   -8    7    7      0.07      0.00
   -7    7    7     -1.89      0.00
   -6    7    7    -11.66      0.00
   -5    7    7      2.06      0.00
   -4    7    7      3.04      0.00
   -3    7    7     -5.24      0.00
   -2    7    7     -3.90      0.00
   -1    7    7     -9.49      0.00
    0    7    7      3.72      0.00
    1    7    7     -3.65      0.00
    2    7    7     -7.83      0.00
    3    7    7     -3.96      0.00
    4    7    7      4.59      0.00
    5    7    7      4.42      0.00
    6    7    7     -3.23      0.00
    7    7    7     -9.78      0.00
    8    7    7     -2.74      0.00
    9    7    7      0.96      0.00
   10    7    7      3.81      0.00
   11    7    7      1.34      0.00
   12    7    7     -6.20      0.00
   13    7    7      2.03      0.00
   14    7    7      0.11      0.00
  -11    8    7      1.28      0.00
  -10    8    7      4.19      0.00
   -9    8    7      0.70      0.00
   -8    8    7     -4.48      0.00
   -7    8    7     -0.20      0.00
   -6    8    7     -0.02      0.00
   -5    8    7      5.83      0.00
   -4    8    7     -0.72      0.00
   -3    8    7     -3.33      0.00
   -2    8    7      7.11      0.00
   -1    8    7      1.84      0.00
    0    8    7      1.39      0.00
    1    8    7     -3.61      0.00
    2    8    7      5.83      0.00
    3    8    7      6.23      0.00
    4    8    7      4.02      0.00
    5    8    7     -3.06      0.00
    6    8    7     -5.53      0.00
    7    8    7      4.99      0.00
    8    8    7      3.11      0.00
    9    8    7     -2.30      0.00
   10    8    7     -0.55      0.00
   11    8    7      0.07      0.00
   12    8    7     -1.66      0.00
   13    8    7      3.28      0.00
  -10    9    7     -1.54      0.00
   -9    9    7     -1.74      0.00
   -8    9    7     -1.08      0.00
   -7    9    7      0.56      0.00
   -6    9    7     -0.03      0.00
   -4    9    7      0.40      0.00
   -3    9    7     -0.48      0.00
   -2    9    7      0.15      0.00
   -1    9    7     -3.91      0.00
    0    9    7     -0.29      0.00
    1    9    7      0.59      0.00
    2    9    7      2.85      0.00
    3    9    7     -3.76      0.00
    4    9    7      0.52      0.00
    5    9    7      2.55      0.00
    6    9    7     -0.12      0.00
    7    9    7      2.56      0.00
    8    9    7     -7.24      0.00
    9    9    7      0.95      0.00
   10    9    7      0.91      0.00
   11    9    7      4.58      0.00
   12    9    7      0.25      0.00
   13    9    7     -1.01      0.00
  -10   10    7     -1.27      0.00
   -9   10    7     -1.30      0.00
   -8   10    7     -2.08      0.00
   -7   10    7     -5.98      0.00
   -6   10    7      1.26      0.00
   -5   10    7     -2.25      0.00
   -4   10    7      3.89      0.00
   -3   10    7     -0.98      0.00
   -2   10    7      0.29      0.00
   -1   10    7      4.55      0.00
    0   10    7      0.78      0.00
    1   10    7     -2.41      0.00
    2   10    7      0.67      0.00
    3   10    7     -0.64      0.00
    4   10    7      5.13      0.00
    5   10    7      1.40      0.00
    6   10    7     -7.24      0.00
    7   10    7     -2.61      0.00
    8   10    7     -1.24      0.00
    9   10    7      4.33      0.00
   10   10    7     -2.42      0.00
   11   10    7      2.93      0.00
   12   10    7     -2.99      0.00
   13   10    7     -3.85      0.00
   -9   11    7     -0.01      0.00
   -8   11    7     -2.49      0.00
   -7   11    7     -0.22      0.00
   -6   11    7      3.36      0.00
   -5   11    7     -1.54      0.00
   -4   11    7     -1.68      0.00
   -3   11    7      2.78      0.00
   -2   11    7      0.34      0.00
   -1   11    7      2.61      0.00
    0   11    7     -4.30      0.00
    1   11    7     -1.01      0.00
    2   11    7      0.70      0.00
    3   11    7     -3.09      0.00
    4   11    7      2.57      0.00
    5   11    7     -0.90      0.00
    6   11    7     -2.81      0.00
    7   11    7      3.04      0.00
    8   11    7     -0.57      0.00
    9   11    7     -1.40      0.00
   10   11    7     -3.73      0.00
   11   11    7      4.37      0.00
   12   11    7     -1.41      0.00
   -8   12    7     -0.89      0.00
   -7   12    7      1.06      0.00
   -6   12    7     -4.90      0.00
   -5   12    7      1.42      0.00
   -3   12    7      4.67      0.00
   -2   12    7     -2.60      0.00
   -1   12    7      4.64      0.00
    0   12    7     -0.42      0.00
    1   12    7     -0.47      0.00
    2   12    7     -3.80      0.00
    3   12    7      0.09      0.00
    4   12    7      2.15      0.00
    5   12    7     -0.40      0.00
    6   12    7     -0.49      0.00
    7   12    7     -3.79      0.00
    8   12    7     -2.62      0.00
    9   12    7     -1.49      0.00
   10   12    7      1.64      0.00
   11   12    7      3.39      0.00
   12   12    7      0.24      0.00
   -7   13    7     -1.62      0.00
   -6   13    7     -0.32      0.00
   -5   13    7      5.18      0.00
   -3   13    7      6.29      0.00
   -2   13    7     -1.52      0.00
   -1   13    7      2.47      0.00
    0   13    7     -3.34      0.00
    1   13    7     -4.19      0.00
    2   13    7      0.34      0.00
    3   13    7      3.33      0.00
    4   13    7     -2.45      0.00
    5   13    7      1.77      0.00
    6   13    7      0.10      0.00
    7   13    7     -1.53      0.00
    8   13    7      0.93      0.00
    9   13    7      0.30      0.00
   10   13    7      1.30      0.00
   11   13    7     -0.08      0.00
   -6   14    7      0.94      0.00
   -5   14    7     -4.58      0.00
   -4   14    7     -6.66      0.00
   -3   14    7      4.56      0.00
   -2   14    7     -2.92      0.00
   -1   14    7      2.40      0.00
    0   14    7      0.76      0.00
    1   14    7     -1.38      0.00
    2   14    7      1.84      0.00
    3   14    7     -1.67      0.00
    4   14    7     -1.47      0.00
    5   14    7      3.73      0.00
    6   14    7      1.35      0.00
    7   14    7     -1.37      0.00
    8   14    7     -0.21      0.00
    9   14    7      3.74      0.00
   10   14    7      0.29      0.00
   -5   15    7     -3.35      0.00
   -4   15    7      1.26      0.00
   -3   15    7      4.24      0.00
   -2   15    7     -1.90      0.00
   -1   15    7      3.79      0.00
    0   15    7     -1.85      0.00
    1   15    7     -1.29      0.00
    2   15    7      1.76      0.00
    3   15    7     -1.99      0.00
    4   15    7      0.92      0.00
    5   15    7      2.23      0.00
    6   15    7      0.55      0.00
    7   15    7     -2.14      0.00
    8   15    7      2.54      0.00
    9   15    7      0.47      0.00
   -3   16    7      1.02      0.00
   -2   16    7     -2.02      0.00
   -1   16    7      2.53      0.00
    0   16    7     -0.51      0.00
    1   16    7      3.33      0.00
    2   16    7     -1.61      0.00
    3   16    7     -4.24      0.00
    4   16    7      4.37      0.00
    5   16    7      2.34      0.00
    6   16    7      0.80      0.00
    7   16    7     -0.04      0.00
    8   16    7      2.07      0.00
    0   17    7     -0.88      0.00
    1   17    7     -1.02      0.00
    2   17    7     -5.48      0.00
    3   17    7      0.61      0.00
    4   17    7      4.16      0.00
    5   17    7     -1.02      0.00
    6   17    7     -0.94      0.00
   -5  -11    8     -0.75      0.00
   -4  -11    8      0.12      0.00
   -3  -11    8     -2.84      0.00
   -2  -11    8      2.87      0.00
   -1  -11    8     -3.77      0.00
    0  -11    8      3.07      0.00
    1  -11    8      1.98      0.00
    2  -11    8      1.25      0.00
    3  -11    8     -2.30      0.00
   -7  -10    8      1.45      0.00
   -6  -10    8      1.50      0.00
   -5  -10    8     -2.79      0.00
   -4  -10    8      0.64      0.00
   -3  -10    8     -0.01      0.00
   -2  -10    8      4.12      0.00
   -1  -10    8      0.75      0.00
    0  -10    8      3.11      0.00
    1  -10    8      2.75      0.00
    2  -10    8     -0.41      0.00
    3  -10    8     -0.18      0.00
    4  -10    8     -0.44      0.00
    5  -10    8      0.33      0.00
   -8   -9    8     -0.16      0.00
   -7   -9    8     -5.64      0.00
   -6   -9    8     -0.59      0.00
   -5   -9    8      0.30      0.00
   -4   -9    8      1.17      0.00
   -3   -9    8      0.54      0.00
   -2   -9    8      1.09      0.00
   -1   -9    8      3.05      0.00
    0   -9    8      1.19      0.00
    1   -9    8     -0.46      0.00
    2   -9    8      2.15      0.00
    3   -9    8      3.02      0.00
    4   -9    8     -0.79      0.00
    5   -9    8      0.72      0.00
    6   -9    8     -1.01      0.00
   -9   -8    8     -0.61      0.00
   -8   -8    8     -4.09      0.00
   -7   -8    8      1.73      0.00
   -6   -8    8      2.20      0.00
   -5   -8    8      0.76      0.00
   -4   -8    8     -5.10      0.00
   -3   -8    8      0.44      0.00
   -2   -8    8     -0.57      0.00
   -1   -8    8      3.77      0.00
    0   -8    8     -0.65      0.00
    1   -8    8     -0.24      0.00
    2   -8    8      4.79      0.00
    3   -8    8     -5.00      0.00
    4   -8    8     -1.83      0.00
    5   -8    8      1.26      0.00
    6   -8    8      2.74      0.00
    7   -8    8      0.87      0.00
    8   -8    8     -1.60      0.00
  -10   -7    8     -1.99      0.00
   -9   -7    8      4.45      0.00
   -8   -7    8     -0.79      0.00
   -7   -7    8      1.13      0.00
   -6   -7    8     -3.54      0.00
   -5   -7    8      1.01      0.00
   -4   -7    8     -4.11      0.00
   -3   -7    8      5.72      0.00
   -2   -7    8     -1.51      0.00
   -1   -7    8      5.82      0.00
    0   -7    8     -0.97      0.00
    1   -7    8     -2.46      0.00
    2   -7    8     -2.56      0.00
    3   -7    8     -5.58      0.00
    4   -7    8      2.85      0.00
    5   -7    8      1.16      0.00
    6   -7    8      0.94      0.00
    7   -7    8     -2.32      0.00
    8   -7    8     -1.52      0.00
    9   -7    8     -0.15      0.00
  -11   -6    8      1.37      0.00
  -10   -6    8      0.75      0.00
   -9   -6    8      1.49      0.00
   -8   -6    8     -0.61      0.00
   -7   -6    8     -0.53      0.00
   -6   -6    8      1.55      0.00
   -5   -6    8      2.21      0.00
   -4   -6    8     -1.08      0.00
   -3   -6    8      3.00      0.00
   -2   -6    8     -0.99      0.00
   -1   -6    8      5.53      0.00
    0   -6    8     -2.90      0.00
    1   -6    8     -0.67      0.00
    2   -6    8      2.42      0.00
    3   -6    8      2.76      0.00
    4   -6    8      0.65      0.00
    5   -6    8     -1.56      0.00
    6   -6    8      0.39      0.00
    7   -6    8      0.08      0.00
    8   -6    8      0.23      0.00
    9   -6    8      0.53      0.00
   10   -6    8     -0.32      0.00
  -11   -5    8     -4.72      0.00
  -10   -5    8     -3.63      0.00
   -9   -5    8     -0.44      0.00
   -8   -5    8      3.99      0.00
   -7   -5    8     -3.12      0.00
   -6   -5    8     -0.46      0.00
   -5   -5    8      0.27      0.00
   -4   -5    8      1.53      0.00
   -3   -5    8      1.83      0.00
   -2   -5    8      2.37      0.00
   -1   -5    8     -0.20      0.00
    0   -5    8      0.60      0.00
    1   -5    8      1.17      0.00
    2   -5    8     -1.81      0.00
    3   -5    8     -4.75      0.00
    4   -5    8     -5.49      0.00
    5   -5    8      1.65      0.00
    6   -5    8      2.67      0.00
    7   -5    8      0.25      0.00
    8   -5    8     -2.19      0.00
    9   -5    8     -1.54      0.00
   10   -5    8     -1.99      0.00
  -12   -4    8      1.26      0.00
  -11   -4    8     -1.63      0.00
  -10   -4    8      7.09      0.00
   -9   -4    8      9.56      0.00
   -8   -4    8      4.43      0.00
   -7   -4    8     -1.09      0.00
   -6   -4    8      5.72      0.00
   -5   -4    8      4.88      0.00
   -4   -4    8      0.99      0.00
   -3   -4    8     -6.18      0.00
   -2   -4    8     -3.39      0.00
   -1   -4    8     -4.50      0.00
    0   -4    8      0.51      0.00
    1   -4    8     -5.51      0.00
    2   -4    8     -4.82      0.00
    3   -4    8      0.74      0.00
    4   -4    8      2.18      0.00
    5   -4    8      3.78      0.00
    6   -4    8     -2.88      0.00
    7   -4    8     -2.58      0.00
    8   -4    8     -2.24      0.00
    9   -4    8      2.53      0.00
   10   -4    8     -0.73      0.00
   11   -4    8     -0.81      0.00
  -12   -3    8      3.06      0.00
  -11   -3    8      1.89      0.00
  -10   -3    8      0.03      0.00
   -9   -3    8     -1.79      0.00
   -8   -3    8     -5.91      0.00
   -7   -3    8      2.16      0.00
   -6   -3    8     -4.23      0.00
   -5   -3    8     -5.74      0.00
   -4   -3    8     -8.00      0.00
   -3   -3    8     -5.20      0.00
   -2   -3    8      5.32      0.00
   -1   -3    8     -2.55      0.00
    0   -3    8      1.29      0.00
    1   -3    8      5.23      0.00
    2   -3    8      6.69      0.00
    3   -3    8      7.75      0.00
    4   -3    8      0.23      0.00
    5   -3    8      1.23      0.00
    6   -3    8      2.83      0.00
    7   -3    8      2.60      0.00
    8   -3    8      1.30      0.00
    9   -3    8      2.09      0.00
   10   -3    8     -4.70      0.00
   11   -3    8     -1.71      0.00
   12   -3    8      1.66      0.00
  -12   -2    8      0.97      0.00
  -11   -2    8     -6.87      0.00
  -10   -2    8     -3.69      0.00
   -9   -2    8      4.65      0.00
   -8   -2    8      3.05      0.00
   -7   -2    8      7.04      0.00
   -6   -2    8     -7.72      0.00
   -5   -2    8      8.04      0.00
   -4   -2    8      3.06      0.00
   -3   -2    8      5.31      0.00
   -2   -2    8      0.82      0.00
   -1   -2    8     -2.57      0.00
    0   -2    8      8.15      0.00
    1   -2    8      7.04      0.00
    2   -2    8     -9.01      0.00
    3   -2    8     -5.48      0.00
    4   -2    8     -6.53      0.00
    5   -2    8      2.15      0.00
    6   -2    8     -0.53      0.00
    7   -2    8     -6.20      0.00
    8   -2    8     -2.34      0.00
    9   -2    8      0.64      0.00
   10   -2    8     -2.20      0.00
   11   -2    8      0.17      0.00
   12   -2    8      1.07      0.00
  -12   -1    8     -0.32      0.00
  -11   -1    8     -0.26      0.00
  -10   -1    8      9.23      0.00
   -9   -1    8      4.63      0.00
   -8   -1    8     -3.26      0.00
   -7   -1    8      4.91      0.00
   -6   -1    8     -5.25      0.00
   -5   -1    8      7.98      0.00
   -4   -1    8    -10.60      0.00
   -3   -1    8     -3.48      0.00
   -2   -1    8     -2.46      0.00
   -1   -1    8      2.32      0.00
    0   -1    8     -5.92      0.00
    1   -1    8     -6.61      0.00
    2   -1    8    -10.73      0.00
    3   -1    8      9.88      0.00
    4   -1    8      1.75      0.00
    5   -1    8      4.20      0.00
    6   -1    8     -0.80      0.00
    7   -1    8      0.29      0.00
    8   -1    8      3.03      0.00
    9   -1    8      2.04      0.00
   10   -1    8     -2.71      0.00
   11   -1    8     -1.10      0.00
   12   -1    8      1.44      0.00
  -12    0    8      2.87      0.00
  -11    0    8      1.26      0.00
  -10    0    8     -1.58      0.00
   -9    0    8     -4.60      0.00
   -8    0    8     -5.40      0.00
   -7    0    8      2.29      0.00
   -6    0    8    -16.13      0.00
   -5    0    8     -3.77      0.00
   -4    0    8     -7.05      0.00
   -3    0    8      1.96      0.00
   -2    0    8     -0.37      0.00
   -1    0    8     -3.09      0.00
    0    0    8     -2.28      0.00
    1    0    8     13.82      0.00
    2    0    8      3.77      0.00
    3    0    8      8.74      0.00
    4    0    8     -9.08      0.00
    5    0    8      5.50      0.00
    6    0    8      2.16      0.00
    7    0    8      0.97      0.00
    8    0    8     -4.65      0.00
    9    0    8     -2.32      0.00
   10    0    8     -2.82      0.00
   11    0    8     -0.08      0.00
   12    0    8      0.55      0.00
   13    0    8      1.56      0.00
  -12    1    8     -4.70      0.00
  -11    1    8     -5.23      0.00
  -10    1    8      0.17      0.00
   -9    1    8      4.01      0.00
   -8    1    8     -5.24      0.00
   -7    1    8     -0.06      0.00
   -6    1    8     -2.35      0.00
   -5    1    8     14.43      0.00
   -4    1    8     10.11      0.00
   -3    1    8      2.28      0.00
   -2    1    8      9.53      0.00
   -1    1    8     13.62      0.00
    0    1    8      9.00      0.00
    1    1    8      0.24      0.00
    2    1    8    -14.38      0.00
    3    1    8     -2.79      0.00
    4    1    8     -3.51      0.00
    5    1    8      6.78      0.00
    6    1    8     -7.72      0.00
    7    1    8     -1.95      0.00
    8    1    8     -7.57      0.00
    9    1    8      4.57      0.00
   10    1    8     -1.20      0.00
   11    1    8      1.42      0.00
   12    1    8     -0.34      0.00
   13    1    8      2.05      0.00
  -12    2    8      2.16      0.00
  -11    2    8      6.08      0.00
  -10    2    8      7.23      0.00
   -9    2    8      0.39      0.00
   -8    2    8     -4.67      0.00
   -7    2    8     10.01      0.00
   -6    2    8      6.78      0.00
   -5    2    8      1.96      0.00
   -4    2    8     -3.08      0.00
   -3    2    8     -3.45      0.00
   -2    2    8      2.34      0.00
   -1    2    8     -5.34      0.00
    0    2    8    -24.78      0.00
    1    2    8    -11.34      0.00
    2    2    8      0.77      0.00
    3    2    8      6.97      0.00
    4    2    8     -1.11      0.00
    5    2    8     -1.38      0.00
    6    2    8     -1.64      0.00
    7    2    8     10.10      0.00
    8    2    8     -3.86      0.00
    9    2    8      6.07      0.00
   10    2    8     -5.50      0.00
   11    2    8      2.81      0.00
   12    2    8     -3.88      0.00
   13    2    8      1.48      0.00
  -12    3    8      4.40      0.00
  -11    3    8     -3.67      0.00
  -10    3    8     -5.59      0.00
   -9    3    8     -4.26      0.00
   -8    3    8     -1.73      0.00
   -7    3    8      1.43      0.00
   -6    3    8    -11.21      0.00
   -5    3    8     -5.31      0.00
   -4    3    8     -0.49      0.00
   -3    3    8      0.24      0.00
   -2    3    8     -8.38      0.00
   -1    3    8     -1.04      0.00
    0    3    8     -2.99      0.00
    1    3    8     19.40      0.00
    2    3    8      5.44      0.00
    3    3    8     -4.71      0.00
    4    3    8      0.89      0.00
    5    3    8      7.03      0.00
    6    3    8      3.72      0.00
    7    3    8      0.06      0.00
    8    3    8    -10.57      0.00
    9    3    8      1.52      0.00
   10    3    8     -2.42      0.00
   11    3    8      2.19      0.00
   12    3    8     -3.37      0.00
   13    3    8      2.40      0.00
  -12    4    8      3.68      0.00
  -11    4    8      0.30      0.00
  -10    4    8      1.59      0.00
   -9    4    8      1.91      0.00
   -8    4    8     -2.77      0.00
   -7    4    8      0.30      0.00
   -6    4    8      1.15      0.00
   -5    4    8     10.21      0.00
   -4    4    8      2.23      0.00
   -3    4    8      3.83      0.00
   -2    4    8      0.53      0.00
   -1    4    8     15.62      0.00
    0    4    8     -2.00      0.00
    1    4    8     -3.81      0.00
    2    4    8     -9.26      0.00
    3    4    8      2.95      0.00
    4    4    8      8.54      0.00
    5    4    8     -3.60      0.00
    6    4    8     -6.98      0.00
    7    4    8     -2.30      0.00
    8    4    8      3.19      0.00
    9    4    8      5.51      0.00
   10    4    8      1.29      0.00
   11    4    8     -2.23      0.00
   12    4    8     -0.09      0.00
   13    4    8     -3.31      0.00
   14    4    8     -0.93      0.00
  -12    5    8      3.00      0.00
  -11    5    8      2.21      0.00
  -10    5    8     -4.06      0.00
   -9    5    8     -4.67      0.00
   -8    5    8     -0.11      0.00
   -7    5    8      4.47      0.00
   -6    5    8      0.25      0.00
   -5    5    8     -4.40      0.00
   -4    5    8     -5.30      0.00
   -3    5    8     -0.22      0.00
   -2    5    8     -3.20      0.00
   -1    5    8     -6.43      0.00
    0    5    8    -16.91      0.00
    1    5    8      1.13      0.00
    2    5    8      8.63      0.00
    3    5    8      4.53      0.00
    4    5    8     -9.81      0.00
    5    5    8     -4.44      0.00
    6    5    8      1.89      0.00
    7    5    8      2.79      0.00
    8    5    8      1.87      0.00
    9    5    8     -5.52      0.00
   10    5    8     -1.27      0.00
   11    5    8     -2.79      0.00
   12    5    8      3.31      0.00
   13    5    8     -2.37      0.00
   14    5    8      4.80      0.00
  -11    6    8     -1.22      0.00
  -10    6    8     -2.19      0.00
   -9    6    8      1.59      0.00
   -8    6    8      3.44      0.00
   -7    6    8     -2.78      0.00
   -6    6    8     -2.53      0.00
   -5    6    8     -2.38      0.00
   -4    6    8      4.07      0.00
   -3    6    8     -0.70      0.00
   -2    6    8      0.53      0.00
   -1    6    8      1.04      0.00
    0    6    8     13.70      0.00
    1    6    8     12.48      0.00
    2    6    8     -1.33      0.00
    3    6    8     -2.61      0.00
    4    6    8     -0.50      0.00
    5    6    8     10.71      0.00
    6    6    8     -3.36      0.00
    7    6    8     -2.58      0.00
    8    6    8     -0.38      0.00
    9    6    8      0.46      0.00
   10    6    8      3.43      0.00
   11    6    8     -0.09      0.00
   12    6    8      2.09      0.00
   13    6    8     -1.62      0.00
   14    6    8      0.24      0.00
  -11    7    8      2.78      0.00
  -10    7    8      2.79      0.00
   -9    7    8     -2.74      0.00
   -8    7    8     -6.01      0.00
   -7    7    8      0.06      0.00
   -6    7    8      3.76      0.00
   -5    7    8      1.10      0.00
   -4    7    8     -0.27      0.00
   -3    7    8     -1.19      0.00
   -2    7    8      6.52      0.00
   -1    7    8      3.64      0.00
    0    7    8      0.15      0.00
    1    7    8    -11.14      0.00
    2    7    8     -5.11      0.00
    3    7    8      3.53      0.00
    4    7    8     -4.02      0.00
    5    7    8     -6.33      0.00
    6    7    8     -6.39      0.00
    7    7    8      1.06      0.00
    8    7    8      3.98      0.00
    9    7    8     -1.34      0.00
   10    7    8     -2.33      0.00
   11    7    8     -1.79      0.00
   12    7    8     -1.08      0.00
   13    7    8      0.69      0.00
  -10    8    8     -4.79      0.00
   -9    8    8     -3.03      0.00
   -8    8    8      3.05      0.00
   -7    8    8      9.56      0.00
   -4    8    8     -3.83      0.00
   -3    8    8      4.61      0.00
   -2    8    8      1.86      0.00
   -1    8    8     -4.47      0.00
    0    8    8     -0.54      0.00
    1    8    8      4.91      0.00
    2    8    8      4.85      0.00
    3    8    8     -0.95      0.00
    4    8    8     -5.55      0.00
    5    8    8      6.48      0.00
    6    8    8     10.10      0.00
    7    8    8      5.64      0.00
    8    8    8      4.33      0.00
    9    8    8     -1.07      0.00
   10    8    8      4.84      0.00
   11    8    8      0.69      0.00
   12    8    8      0.88      0.00
   13    8    8      2.85      0.00
  -10    9    8     -0.71      0.00
   -8    9    8      2.15      0.00
   -7    9    8      0.12      0.00
   -5    9    8      3.29      0.00
   -4    9    8     -2.96      0.00
   -3    9    8      3.49      0.00
   -2    9    8     -4.54      0.00
   -1    9    8     -0.41      0.00
    0    9    8      2.97      0.00
    1    9    8     -4.26      0.00
    2    9    8     -6.05      0.00
    3    9    8     -4.37      0.00
    4    9    8      0.24      0.00
    5    9    8      0.57      0.00
    6    9    8     -4.71      0.00
    7    9    8     -4.70      0.00
    8    9    8     -4.78      0.00
    9    9    8     -0.87      0.00
   10    9    8      1.26      0.00
   11    9    8     -6.79      0.00
   12    9    8     -0.76      0.00
   13    9    8      0.32      0.00
   -9   10    8      0.02      0.00
   -8   10    8      2.03      0.00
   -7   10    8      2.43      0.00
   -6   10    8      1.76      0.00
   -4   10    8     -3.26      0.00
   -3   10    8      1.55      0.00
   -2   10    8     -0.14      0.00
   -1   10    8      1.93      0.00
    0   10    8     -0.79      0.00
    1   10    8     -1.17      0.00
    2   10    8      5.65      0.00
    3   10    8      0.80      0.00
    4   10    8     -1.16      0.00
    5   10    8     -2.02      0.00
    6   10    8      4.74      0.00
    7   10    8      6.25      0.00
    8   10    8      2.43      0.00
    9   10    8      3.57      0.00
   10   10    8     -0.47      0.00
   11   10    8     -3.19      0.00
   12   10    8      4.70      0.00
   13   10    8      3.55      0.00
   -9   11    8     -2.62      0.00
   -8   11    8      5.18      0.00
   -7   11    8      0.36      0.00
   -5   11    8      3.84      0.00
   -4   11    8     -4.65      0.00
   -3   11    8     -1.26      0.00
   -2   11    8     -3.96      0.00
   -1   11    8     -2.22      0.00
    0   11    8      2.09      0.00
    1   11    8      0.65      0.00
    2   11    8      1.60      0.00
    3   11    8     -3.66      0.00
    4   11    8     -1.26      0.00
    5   11    8      2.68      0.00
    6   11    8      3.69      0.00
    7   11    8      1.59      0.00
    8   11    8     -3.15      0.00
    9   11    8      1.45      0.00
   10   11    8     -0.41      0.00
   11   11    8      1.83      0.00
   12   11    8      1.26      0.00
   -8   12    8      3.65      0.00
   -7   12    8     -2.83      0.00
   -6   12    8     -1.63      0.00
   -5   12    8      6.47      0.00
   -3   12    8      2.66      0.00
   -2   12    8     -0.44      0.00
   -1   12    8      4.80      0.00
    0   12    8      1.65      0.00
    1   12    8     -2.71      0.00
    2   12    8      3.85      0.00
    3   12    8      0.49      0.00
    4   12    8      0.70      0.00
    5   12    8      0.45      0.00
    6   12    8      2.22      0.00
    7   12    8      1.53      0.00
    8   12    8     -0.21      0.00
    9   12    8      1.81      0.00
   10   12    8     -2.68      0.00
   11   12    8     -0.95      0.00
   12   12    8     -2.76      0.00
   -7   13    8     -2.20      0.00
   -3   13    8     -0.38      0.00
   -2   13    8     -5.00      0.00
   -1   13    8     -0.04      0.00
    0   13    8     -2.46      0.00
    1   13    8      2.61      0.00
    2   13    8      3.89      0.00
    3   13    8     -3.85      0.00
    4   13    8     -2.23      0.00
    5   13    8     -0.33      0.00
    6   13    8      2.01      0.00
    7   13    8     -1.70      0.00
    8   13    8      1.06      0.00
    9   13    8     -1.47      0.00
   10   13    8     -1.42      0.00
   11   13    8      0.45      0.00
   -5   14    8     -2.88      0.00
   -4   14    8      3.20      0.00
   -3   14    8     -1.74      0.00
   -2   14    8      2.00      0.00
   -1   14    8      4.94      0.00
    0   14    8      1.33      0.00
    1   14    8      4.07      0.00
    2   14    8     -3.51      0.00
    3   14    8     -2.61      0.00
    4   14    8      0.74      0.00
    5   14    8     -0.13      0.00
    6   14    8      1.81      0.00
    7   14    8     -0.75      0.00
    8   14    8      1.14      0.00
    9   14    8     -3.62      0.00
   10   14    8     -2.99      0.00
   -4   15    8      4.33      0.00
   -3   15    8     -4.39      0.00
   -2   15    8      0.48      0.00
   -1   15    8     -4.00      0.00
    0   15    8     -3.90      0.00
    1   15    8      2.01      0.00
    2   15    8     -2.24      0.00
    3   15    8      2.37      0.00
    4   15    8     -1.14      0.00
    5   15    8     -1.39      0.00
    6   15    8      1.96      0.00
    7   15    8     -3.82      0.00
    8   15    8     -0.89      0.00
    9   15    8     -1.31      0.00
   -3   16    8     -3.25      0.00
   -2   16    8      1.42      0.00
   -1   16    8     -1.29      0.00
    0   16    8      3.20      0.00
    1   16    8     -0.21      0.00
    2   16    8      1.03      0.00
    3   16    8     -2.82      0.00
    4   16    8     -1.40      0.00
    5   16    8     -2.36      0.00
    6   16    8      1.46      0.00
    7   16    8     -2.50      0.00
    8   16    8      1.78      0.00
    0   17    8      1.38      0.00
    1   17    8     -1.31      0.00
    2   17    8      7.98      0.00
    3   17    8     -2.29      0.00
    4   17    8      2.53      0.00
    5   17    8     -3.53      0.00
   -2  -11    9      0.32      0.00
   -1  -11    9      2.51      0.00
    0  -11    9      3.01      0.00
   -6  -10    9      1.19      0.00
   -5  -10    9     -0.76      0.00
   -4  -10    9      3.29      0.00
   -3  -10    9     -3.40      0.00
   -2  -10    9     -2.42      0.00
   -1  -10    9     -3.54      0.00
    0  -10    9     -3.73      0.00
    1  -10    9     -5.55      0.00
    2  -10    9     -0.28      0.00
    3  -10    9      1.38      0.00
   -7   -9    9     -0.26      0.00
   -6   -9    9      8.68      0.00
   -5   -9    9      1.74      0.00
   -4   -9    9      2.67      0.00
   -3   -9    9     -2.41      0.00
   -2   -9    9      0.83      0.00
   -1   -9    9     -1.26      0.00
    0   -9    9     -1.38      0.00
    1   -9    9      0.19      0.00
    2   -9    9      1.32      0.00
    3   -9    9     -0.26      0.00
    4   -9    9     -2.15      0.00
    5   -9    9      0.76      0.00
   -8   -8    9     -0.73      0.00
   -7   -8    9      5.24      0.00
   -6   -8    9     -1.41      0.00
   -5   -8    9     -2.12      0.00
   -4   -8    9      1.34      0.00
   -3   -8    9     -4.09      0.00
   -2   -8    9     -2.04      0.00
   -1   -8    9     -2.32      0.00
    0   -8    9      0.80      0.00
    1   -8    9      0.87      0.00
    2   -8    9      0.80      0.00
    3   -8    9     -2.82      0.00
    4   -8    9      1.84      0.00
    5   -8    9     -0.25      0.00
    6   -8    9     -1.81      0.00
    7   -8    9     -1.48      0.00
   -9   -7    9      3.05      0.00
   -8   -7    9     -2.39      0.00
   -7   -7    9      2.04      0.00
   -6   -7    9     -2.51      0.00
   -5   -7    9      5.26      0.00
   -4   -7    9      1.84      0.00
   -3   -7    9     -1.56      0.00
   -2   -7    9      2.49      0.00
   -1   -7    9     -1.30      0.00
    0   -7    9     -1.44      0.00
    1   -7    9     -1.56      0.00
    2   -7    9      1.81      0.00
    3   -7    9     -0.96      0.00
    4   -7    9      3.74      0.00
    5   -7    9     -3.93      0.00
    6   -7    9     -0.22      0.00
    7   -7    9      0.91      0.00
    8   -7    9      3.27      0.00
  -10   -6    9     -0.66      0.00
   -9   -6    9     -2.34      0.00
   -8   -6    9     -3.28      0.00
   -7   -6    9     -0.39      0.00
   -6   -6    9      0.15      0.00
   -5   -6    9     -2.67      0.00
   -4   -6    9      0.98      0.00
   -3   -6    9     -4.08      0.00
   -2   -6    9     -1.34      0.00
   -1   -6    9     -3.28      0.00
    0   -6    9     -0.68      0.00
    1   -6    9      5.34      0.00
    2   -6    9      4.00      0.00
    3   -6    9     -2.25      0.00
    4   -6    9      0.61      0.00
    5   -6    9     -1.25      0.00
    6   -6    9      3.44      0.00
    7   -6    9      1.60      0.00
    8   -6    9     -0.22      0.00
    9   -6    9     -0.67      0.00
  -10   -5    9     -0.34      0.00
   -9   -5    9     -0.90      0.00
   -8   -5    9      0.16      0.00
   -7   -5    9      0.97      0.00
   -6   -5    9      0.72      0.00
   -5   -5    9     -1.98      0.00
   -4   -5    9      3.92      0.00
   -3   -5    9     -5.86      0.00
   -2   -5    9      2.82      0.00
   -1   -5    9     -0.50      0.00
    0   -5    9     -2.94      0.00
    1   -5    9      4.21      0.00
    2   -5    9     -4.82      0.00
    3   -5    9     -2.60      0.00
    4   -5    9      3.55      0.00
    5   -5    9      0.04      0.00
    6   -5    9      0.58      0.00
    7   -5    9     -0.87      0.00
    8   -5    9     -1.19      0.00
    9   -5    9      2.47      0.00
   10   -5    9      1.61      0.00
  -11   -4    9      2.73      0.00
  -10   -4    9     -2.97      0.00
   -9   -4    9     -4.24      0.00
   -8   -4    9     -8.07      0.00
   -7   -4    9     -0.92      0.00
   -6   -4    9     -2.39      0.00
   -5   -4    9     -4.45      0.00
   -4   -4    9      1.56      0.00
   -3   -4    9     -0.70      0.00
   -2   -4    9      6.17      0.00
   -1   -4    9     -1.72      0.00
    0   -4    9     -2.95      0.00
    1   -4    9      7.44      0.00
    2   -4    9     -1.01      0.00
    3   -4    9      5.28      0.00
    4   -4    9      0.91      0.00
    5   -4    9     -5.31      0.00
    6   -4    9      0.64      0.00
    7   -4    9      1.77      0.00
    8   -4    9     -0.73      0.00
    9   -4    9      1.94      0.00
   10   -4    9     -0.11      0.00
  -11   -3    9     -3.77      0.00
  -10   -3    9     -7.86      0.00
   -9   -3    9      2.29      0.00
   -8   -3    9     -3.82      0.00
   -7   -3    9      8.42      0.00
   -6   -3    9     -2.46      0.00
   -5   -3    9      3.51      0.00
   -4   -3    9      9.60      0.00
   -3   -3    9      0.94      0.00
   -2   -3    9      1.84      0.00
   -1   -3    9     -3.90      0.00
    0   -3    9      0.65      0.00
    1   -3    9      6.26      0.00
    2   -3    9     -5.73      0.00
    3   -3    9     -3.59      0.00
    4   -3    9     -5.70      0.00
    5   -3    9     -2.82      0.00
    6   -3    9      3.80      0.00
    7   -3    9      1.21      0.00
    8   -3    9     -2.50      0.00
    9   -3    9      1.18      0.00
   10   -3    9      1.26      0.00
   11   -3    9      1.29      0.00
  -11   -2    9      2.21      0.00
  -10   -2    9      2.54      0.00
   -9   -2    9      8.48      0.00
   -8   -2    9     -8.89      0.00
   -7   -2    9      2.97      0.00
   -6   -2    9     -3.27      0.00
   -5   -2    9      4.58      0.00
   -4   -2    9     -4.93      0.00
   -3   -2    9     -8.58      0.00
   -2   -2    9     -1.86      0.00
   -1   -2    9     -2.26      0.00
    0   -2    9     -4.02      0.00
    1   -2    9     -6.51      0.00
    2   -2    9     -6.96      0.00
    3   -2    9      4.05      0.00
    4   -2    9      2.92      0.00
    5   -2    9     -0.29      0.00
    6   -2    9     -1.43      0.00
    7   -2    9      1.35      0.00
    8   -2    9     -1.57      0.00
    9   -2    9      1.63      0.00
   10   -2    9      0.03      0.00
   11   -2    9      0.90      0.00
  -12   -1    9      1.12      0.00
  -11   -1    9     -2.23      0.00
  -10   -1    9     -3.77      0.00
   -9   -1    9     -5.64      0.00
   -8   -1    9     -8.34      0.00
   -7   -1    9      3.90      0.00
   -6   -1    9      0.10      0.00
   -5   -1    9     -2.11      0.00
   -4   -1    9     -1.15      0.00
   -3   -1    9      8.63      0.00
   -2   -1    9      3.17      0.00
   -1   -1    9      1.69      0.00
    0   -1    9     -4.22      0.00
    1   -1    9      9.88      0.00
    2   -1    9     10.51      0.00
    3   -1    9      8.07      0.00
    4   -1    9     -4.44      0.00
    5   -1    9     -3.91      0.00
    6   -1    9      0.87      0.00
    7   -1    9      5.79      0.00
    8   -1    9     -2.49      0.00
    9   -1    9      1.39      0.00
   10   -1    9     -2.08      0.00
   11   -1    9      3.64      0.00
   12   -1    9     -2.48      0.00
  -12    0    9     -2.23      0.00
  -11    0    9     -1.70      0.00
  -10    0    9     -0.25      0.00
   -9    0    9      3.33      0.00
   -8    0    9      8.70      0.00
   -7    0    9      3.28      0.00
   -6    0    9      6.72      0.00
   -5    0    9      5.75      0.00
   -4    0    9      5.90      0.00
   -3    0    9     -0.75      0.00
   -2    0    9     -7.77      0.00
   -1    0    9      2.86      0.00
    0    0    9     -4.08      0.00
    1    0    9      5.44      0.00
    2    0    9    -13.25      0.00
    3    0    9     -6.99      0.00
    4    0    9     -7.50      0.00
    5    0    9     -0.36      0.00
    6    0    9     -1.69      0.00
    7    0    9     -1.17      0.00
    8    0    9     -0.84      0.00
    9    0    9      2.89      0.00
   10    0    9     -0.73      0.00
   11    0    9      4.31      0.00
   12    0    9     -2.90      0.00
  -12    1    9      0.74      0.00
  -11    1    9      3.83      0.00
  -10    1    9      0.73      0.00
   -9    1    9      0.83      0.00
   -8    1    9      0.09      0.00
   -7    1    9     -3.26      0.00
   -6    1    9      3.45      0.00
   -5    1    9     -7.56      0.00
   -4    1    9    -11.74      0.00
   -3    1    9     -5.74      0.00
   -2    1    9      0.20      0.00
   -1    1    9     -4.27      0.00
    0    1    9    -12.20      0.00
    1    1    9      0.11      0.00
    2    1    9      0.70      0.00
    3    1    9     13.06      0.00
    4    1    9      4.67      0.00
    5    1    9      1.32      0.00
    6    1    9      0.70      0.00
    7    1    9      6.66      0.00
    8    1    9      5.60      0.00
    9    1    9      0.39      0.00
   10    1    9     -1.06      0.00
   11    1    9      1.38      0.00
   12    1    9     -1.09      0.00
   13    1    9     -1.04      0.00
  -12    2    9      3.71      0.00
  -11    2    9     -3.46      0.00
  -10    2    9     -7.22      0.00
   -9    2    9     -1.92      0.00
   -8    2    9      1.45      0.00
   -7    2    9     -1.45      0.00
   -6    2    9     -6.27      0.00
   -5    2    9     -6.47      0.00
   -4    2    9      0.03      0.00
   -3    2    9      5.14      0.00
   -2    2    9     -2.53      0.00
   -1    2    9     -5.10      0.00
    0    2    9     11.38      0.00
    1    2    9     15.93      0.00
    2    2    9      7.55      0.00
    3    2    9     -5.75      0.00
    4    2    9     -6.52      0.00
    5    2    9     -5.29      0.00
    6    2    9      0.84      0.00
    7    2    9     -1.75      0.00
    8    2    9     -3.75      0.00
    9    2    9     -2.92      0.00
   10    2    9     -1.02      0.00
   11    2    9     -0.45      0.00
   12    2    9      0.37      0.00
   13    2    9     -0.50      0.00
  -12    3    9     -4.35      0.00
  -11    3    9     -4.48      0.00
  -10    3    9      2.63      0.00
   -9    3    9      5.57      0.00
   -8    3    9      2.67      0.00
   -7    3    9     -2.87      0.00
   -6    3    9      1.09      0.00
   -5    3    9      9.56      0.00
   -4    3    9      1.15      0.00
   -3    3    9      0.38      0.00
   -2    3    9      2.53      0.00
   -1    3    9     10.58      0.00
    0    3    9      7.55      0.00
    1    3    9     -7.44      0.00
    2    3    9    -11.05      0.00
    3    3    9     -7.75      0.00
    4    3    9      6.67      0.00
    5    3    9     -1.58      0.00
    6    3    9      0.28      0.00
    7    3    9     -0.34      0.00
    8    3    9      5.90      0.00
    9    3    9      2.59      0.00
   10    3    9      2.14      0.00
   11    3    9      1.16      0.00
   12    3    9      3.27      0.00
   13    3    9      0.94      0.00
  -11    4    9      0.57      0.00
  -10    4    9      5.15      0.00
   -9    4    9     -1.72      0.00
   -8    4    9     -1.23      0.00
   -7    4    9      0.36      0.00
   -6    4    9      2.16      0.00
   -5    4    9     -2.75      0.00
   -4    4    9    -10.25      0.00
   -3    4    9      0.63      0.00
   -2    4    9     -3.14      0.00
   -1    4    9     -7.63      0.00
    0    4    9    -13.03      0.00
    1    4    9     -1.43      0.00
    2    4    9      5.01      0.00
    3    4    9      2.21      0.00
    4    4    9     -0.55      0.00
    5    4    9     -8.44      0.00
    6    4    9      2.87      0.00
    7    4    9      3.41      0.00
    8    4    9     -0.95      0.00
    9    4    9     -4.95      0.00
   10    4    9     -1.12      0.00
   11    4    9     -2.28      0.00
   12    4    9      1.72      0.00
   13    4    9     -0.16      0.00
  -11    5    9     -7.52      0.00
  -10    5    9      2.89      0.00
   -9    5    9     -1.45      0.00
   -8    5    9      2.40      0.00
   -7    5    9      0.26      0.00
   -6    5    9     -2.55      0.00
   -5    5    9      1.01      0.00
   -4    5    9      4.59      0.00
   -3    5    9      3.47      0.00
   -2    5    9     -3.79      0.00
   -1    5    9      5.09      0.00
    0    5    9     10.62      0.00
    1    5    9     14.86      0.00
    2    5    9     -3.91      0.00
    3    5    9     -6.81      0.00
    4    5    9      2.55      0.00
    5    5    9      6.32      0.00
    6    5    9      5.25      0.00
    7    5    9     -1.37      0.00
    8    5    9     -3.02      0.00
    9    5    9      0.02      0.00
   10    5    9      1.89      0.00
   11    5    9      0.12      0.00
   12    5    9      3.17      0.00
   13    5    9     -0.26      0.00
  -11    6    9     -0.01      0.00
  -10    6    9      7.45      0.00
   -9    6    9      2.50      0.00
   -8    6    9     -2.37      0.00
   -7    6    9     -0.90      0.00
   -6    6    9      1.98      0.00
   -5    6    9      4.53      0.00
   -4    6    9     -0.85      0.00
   -3    6    9     -5.39      0.00
   -2    6    9      0.37      0.00
   -1    6    9      0.76      0.00
    0    6    9     -6.83      0.00
    1    6    9    -10.67      0.00
    2    6    9    -13.33      0.00
    3    6    9      4.63      0.00
    4    6    9      4.40      0.00
    5    6    9     -5.62      0.00
    6    6    9     -6.90      0.00
    7    6    9      1.19      0.00
    8    6    9     -0.15      0.00
    9    6    9      0.03      0.00
   10    6    9      1.36      0.00
   11    6    9      0.26      0.00
   12    6    9      0.69      0.00
   13    6    9     -0.94      0.00
  -10    7    9     -2.66      0.00
   -9    7    9      2.46      0.00
   -8    7    9     -3.50      0.00
   -7    7    9      5.03      0.00
   -6    7    9     -2.20      0.00
   -5    7    9     -2.09      0.00
   -4    7    9     -1.20      0.00
   -3    7    9     -0.45      0.00
   -2    7    9     -5.29      0.00
   -1    7    9     -6.49      0.00
    0    7    9     -4.15      0.00
    1    7    9      7.07      0.00
    2    7    9      7.75      0.00
    3    7    9      6.82      0.00
    4    7    9     -3.06      0.00
    5    7    9     -1.39      0.00
    6    7    9      9.33      0.00
    7    7    9      2.56      0.00
    8    7    9     -1.06      0.00
    9    7    9     -2.07      0.00
   10    7    9     -0.03      0.00
   11    7    9     -0.12      0.00
   12    7    9     -0.80      0.00
   13    7    9      1.07      0.00
  -10    8    9     -2.82      0.00
   -9    8    9     10.30      0.00
   -8    8    9     -4.80      0.00
   -5    8    9      3.85      0.00
   -4    8    9      2.41      0.00
   -3    8    9     -2.00      0.00
   -2    8    9     -6.67      0.00
   -1    8    9      8.14      0.00
    0    8    9      2.75      0.00
    1    8    9      6.98      0.00
    2    8    9     -6.50      0.00
    3    8    9     -2.24      0.00
    4    8    9      0.77      0.00
    5    8    9     -0.72      0.00
    6    8    9     -4.11      0.00
    7    8    9    -11.91      0.00
    8    8    9     -0.87      0.00
    9    8    9     -6.53      0.00
   10    8    9      1.69      0.00
   11    8    9      0.65      0.00
   12    8    9     -0.59      0.00
   13    8    9      0.88      0.00
  -10    9    9     -3.64      0.00
   -9    9    9      7.85      0.00
   -8    9    9    -11.57      0.00
   -7    9    9      0.42      0.00
   -6    9    9      0.27      0.00
   -5    9    9      2.86      0.00
   -4    9    9     -1.24      0.00
   -3    9    9      1.04      0.00
   -2    9    9     -0.16      0.00
   -1    9    9      7.09      0.00
    0    9    9     -5.18      0.00
    1    9    9      1.51      0.00
    2    9    9     -1.22      0.00
    3    9    9      7.81      0.00
    4    9    9      2.56      0.00
    5    9    9     -3.75      0.00
    6    9    9      0.66      0.00
    7    9    9      5.25      0.00
    8    9    9      6.05      0.00
    9    9    9     -1.31      0.00
   10    9    9      3.33      0.00
   11    9    9     -0.39      0.00
   12    9    9      0.83      0.00
   13    9    9      0.00      0.00
   -8   10    9     -4.98      0.00
   -7   10    9      3.59      0.00
   -6   10    9     -2.12      0.00
   -5   10    9     -2.76      0.00
   -4   10    9      2.86      0.00
   -3   10    9      1.17      0.00
   -2   10    9     -4.04      0.00
   -1   10    9     -0.35      0.00
    0   10    9     -0.10      0.00
    1   10    9      2.07      0.00
    2   10    9      0.84      0.00
    3   10    9     -0.56      0.00
    4   10    9     -3.32      0.00
    5   10    9     -0.92      0.00
    6   10    9      1.08      0.00
    7   10    9     -2.34      0.00
    8   10    9     -1.70      0.00
    9   10    9     -2.17      0.00
   10   10    9     -0.75      0.00
   11   10    9      3.58      0.00
   12   10    9     -0.94      0.00
   -8   11    9      1.11      0.00
   -7   11    9     -4.80      0.00
   -6   11    9      0.92      0.00
   -5   11    9     -3.25      0.00
   -4   11    9      2.29      0.00
   -3   11    9     -0.08      0.00
   -2   11    9      0.97      0.00
   -1   11    9      1.83      0.00
    0   11    9      2.51      0.00
    1   11    9     -6.85      0.00
    2   11    9      1.03      0.00
    3   11    9     -0.76      0.00
    4   11    9      1.47      0.00
    5   11    9      0.09      0.00
    6   11    9     -6.09      0.00
    7   11    9     -2.45      0.00
    8   11    9      0.94      0.00
    9   11    9     -2.83      0.00
   10   11    9     -3.06      0.00
   11   11    9      3.25      0.00
   12   11    9     -7.85      0.00
   -7   12    9     -1.88      0.00
   -6   12    9      6.85      0.00
   -3   12    9      3.83      0.00
   -2   12    9     -0.91      0.00
   -1   12    9     -3.48      0.00
    0   12    9     -1.29      0.00
    1   12    9     -2.02      0.00
    2   12    9      7.91      0.00
    3   12    9     -2.46      0.00
    4   12    9     -0.05      0.00
    5   12    9     -5.84      0.00
    6   12    9     -2.35      0.00
    7   12    9      1.85      0.00
    8   12    9      1.85      0.00
    9   12    9      1.42      0.00
   10   12    9      3.65      0.00
   11   12    9      6.21      0.00
   -6   13    9     -0.01      0.00
   -5   13    9     -4.99      0.00
   -4   13    9     -0.08      0.00
   -3   13    9     -2.48      0.00
   -2   13    9     -1.89      0.00
   -1   13    9      0.00      0.00
    0   13    9      0.20      0.00
    1   13    9      1.56      0.00
    2   13    9     -2.30      0.00
    3   13    9     -3.03      0.00
    4   13    9      1.85      0.00
    5   13    9     -2.80      0.00
    6   13    9      4.55      0.00
    7   13    9     -1.23      0.00
    8   13    9      2.26      0.00
    9   13    9      0.41      0.00
   10   13    9      1.76      0.00
   11   13    9     -2.89      0.00
   -5   14    9      1.76      0.00
   -4   14    9      3.24      0.00
   -3   14    9      2.36      0.00
   -2   14    9      4.14      0.00
   -1   14    9     -4.78      0.00
    0   14    9     -3.82      0.00
    1   14    9      0.06      0.00
    2   14    9     -1.05      0.00
    3   14    9      7.81      0.00
    4   14    9      1.17      0.00
    5   14    9     -3.01      0.00
    6   14    9      1.74      0.00
    7   14    9     -2.35      0.00
    8   14    9      1.18      0.00
    9   14    9      3.67      0.00
   10   14    9      4.07      0.00
   -4   15    9     -0.70      0.00
   -3   15    9     -1.59      0.00
   -2   15    9     -1.05      0.00
   -1   15    9     -2.22      0.00
    0   15    9      4.12      0.00
    1   15    9      2.34      0.00
    2   15    9      0.89      0.00
    3   15    9      3.25      0.00
    4   15    9     -3.61      0.00
    5   15    9     -1.27      0.00
    6   15    9      3.11      0.00
    7   15    9      0.73      0.00
    8   15    9      1.76      0.00
    9   15    9      6.63      0.00
   -2   16    9      1.78      0.00
   -1   16    9      1.38      0.00
    0   16    9     -1.06      0.00
    1   16    9     -3.36      0.00
    2   16    9      1.73      0.00
    3   16    9      0.76      0.00
    4   16    9      2.04      0.00
    5   16    9      0.02      0.00
    6   16    9      0.64      0.00
    7   16    9     -0.57      0.00
    1   17    9     -0.77      0.00
    2   17    9      0.13      0.00
    3   17    9     -2.20      0.00
    4   17    9      2.42      0.00
    5   17    9     -2.25      0.00
   -3  -10   10     -0.48      0.00
   -2  -10   10      2.08      0.00
   -1  -10   10      0.08      0.00
    0  -10   10      2.32      0.00
    1  -10   10      2.91      0.00
   -6   -9   10     -2.69      0.00
   -5   -9   10     -6.24      0.00
   -4   -9   10      1.60      0.00
   -3   -9   10     -0.25      0.00
   -2   -9   10     -0.56      0.00
   -1   -9   10      0.64      0.00
    0   -9   10      1.89      0.00
    1   -9   10      3.67      0.00
    2   -9   10     -2.44      0.00
    3   -9   10      1.99      0.00
    4   -9   10     -2.59      0.00
   -7   -8   10     -5.90      0.00
   -6   -8   10     -3.69      0.00
   -5   -8   10     -4.46      0.00
   -4   -8   10      5.54      0.00
   -3   -8   10     -1.46      0.00
   -2   -8   10      1.04      0.00
   -1   -8   10      3.40      0.00
    0   -8   10     -1.47      0.00
    1   -8   10     -2.95      0.00
    2   -8   10     -1.95      0.00
    3   -8   10      3.48      0.00
    4   -8   10     -2.11      0.00
    5   -8   10      3.55      0.00
   -8   -7   10     -2.15      0.00
   -7   -7   10     -2.26      0.00
   -6   -7   10      1.90      0.00
   -5   -7   10     -1.81      0.00
   -4   -7   10      3.26      0.00
   -3   -7   10     -1.45      0.00
   -2   -7   10      0.86      0.00
   -1   -7   10     -1.66      0.00
    0   -7   10     -1.94      0.00
    1   -7   10      1.39      0.00
    2   -7   10      4.28      0.00
    3   -7   10      1.22      0.00
    4   -7   10     -2.44      0.00
    5   -7   10      2.91      0.00
    6   -7   10     -0.82      0.00
    7   -7   10      1.35      0.00
   -9   -6   10      1.43      0.00
   -8   -6   10      2.53      0.00
   -7   -6   10      0.93      0.00
   -6   -6   10      3.01      0.00
   -5   -6   10     -4.21      0.00
   -4   -6   10      4.40      0.00
   -3   -6   10     -1.68      0.00
   -2   -6   10     -0.96      0.00
   -1   -6   10      3.81      0.00
    0   -6   10      1.33      0.00
    1   -6   10     -0.36      0.00
    2   -6   10     -3.54      0.00
    3   -6   10     -2.13      0.00
    4   -6   10     -2.71      0.00
    5   -6   10      0.63      0.00
    6   -6   10     -4.78      0.00
    7   -6   10     -1.07      0.00
    8   -6   10     -3.50      0.00
  -10   -5   10      3.27      0.00
   -9   -5   10      1.25      0.00
   -8   -5   10      3.89      0.00
   -7   -5   10     -0.81      0.00
   -6   -5   10      1.10      0.00
   -5   -5   10     -2.51      0.00
   -4   -5   10      4.94      0.00
   -3   -5   10     -2.63      0.00
   -2   -5   10      1.77      0.00
   -1   -5   10      3.67      0.00
    0   -5   10     -5.34      0.00
    1   -5   10      0.82      0.00
    2   -5   10     -1.99      0.00
    3   -5   10      7.71      0.00
    4   -5   10      1.50      0.00
    5   -5   10      1.61      0.00
    6   -5   10     -2.27      0.00
    7   -5   10      2.01      0.00
    8   -5   10      0.44      0.00
    9   -5   10      1.59      0.00
  -10   -4   10      2.01      0.00
   -9   -4   10      1.09      0.00
   -8   -4   10      4.05      0.00
   -7   -4   10     -0.86      0.00
   -6   -4   10      0.85      0.00
   -5   -4   10     -0.05      0.00
   -4   -4   10      1.33      0.00
   -3   -4   10     -2.54      0.00
   -2   -4   10     -2.13      0.00
   -1   -4   10      0.14      0.00
    0   -4   10     -0.71      0.00
    1   -4   10      2.64      0.00
    2   -4   10     -3.99      0.00
    3   -4   10      4.47      0.00
    4   -4   10     -6.44      0.00
    5   -4   10      0.53      0.00
    6   -4   10     -1.78      0.00
    7   -4   10      1.42      0.00
    8   -4   10     -0.16      0.00
    9   -4   10     -1.29      0.00
   10   -4   10     -0.89      0.00
  -10   -3   10      6.00      0.00
   -9   -3   10      3.52      0.00
   -8   -3   10      1.20      0.00
   -7   -3   10      0.63      0.00
   -6   -3   10     -1.22      0.00
   -5   -3   10      0.06      0.00
   -4   -3   10     -2.07      0.00
   -3   -3   10     -4.79      0.00
   -2   -3   10      0.38      0.00
   -1   -3   10      4.74      0.00
    0   -3   10      1.12      0.00
    1   -3   10     -4.18      0.00
    2   -3   10     -1.65      0.00
    3   -3   10      5.78      0.00
    4   -3   10      1.84      0.00
    5   -3   10      6.78      0.00
    6   -3   10     -3.45      0.00
    7   -3   10     -1.11      0.00
    8   -3   10     -0.89      0.00
    9   -3   10     -0.30      0.00
   10   -3   10     -0.46      0.00
  -11   -2   10     -1.04      0.00
  -10   -2   10     -0.19      0.00
   -9   -2   10     -3.24      0.00
   -8   -2   10     -2.19      0.00
   -7   -2   10      1.25      0.00
   -6   -2   10     -4.64      0.00
   -5   -2   10      0.07      0.00
   -4   -2   10     -1.33      0.00
   -3   -2   10      5.07      0.00
   -2   -2   10      9.17      0.00
   -1   -2   10      1.29      0.00
    0   -2   10      0.03      0.00
    1   -2   10      2.55      0.00
    2   -2   10      6.84      0.00
    3   -2   10      5.26      0.00
    4   -2   10     -1.31      0.00
    5   -2   10      0.03      0.00
    6   -2   10     -3.65      0.00
    7   -2   10      1.87      0.00
    8   -2   10      1.66      0.00
    9   -2   10      1.18      0.00
   10   -2   10     -1.48      0.00
   11   -2   10      0.76      0.00
  -11   -1   10     -2.08      0.00
  -10   -1   10      3.47      0.00
   -9   -1   10      2.15      0.00
   -8   -1   10      6.15      0.00
   -7   -1   10      1.80      0.00
   -6   -1   10     -2.56      0.00
   -5   -1   10      3.62      0.00
   -4   -1   10      2.57      0.00
   -3   -1   10     -0.20      0.00
   -2   -1   10     -6.06      0.00
   -1   -1   10     -3.95      0.00
    0   -1   10      3.97      0.00
    1   -1   10      1.14      0.00
    2   -1   10     -8.66      0.00
    3   -1   10     -7.29      0.00
    4   -1   10     -4.83      0.00
    5   -1   10      4.02      0.00
    6   -1   10     -1.99      0.00
    7   -1   10     -1.32      0.00
    8   -1   10     -2.44      0.00
    9   -1   10      1.66      0.00
   10   -1   10     -2.59      0.00
   11   -1   10      1.28      0.00
  -11    0   10     -2.10      0.00
  -10    0   10      5.33      0.00
   -9    0   10     -5.26      0.00
   -8    0   10     -3.03      0.00
   -7    0   10     -8.66      0.00
   -6    0   10     -5.90      0.00
   -5    0   10     -2.58      0.00
   -4    0   10     -5.57      0.00
   -3    0   10     -3.79      0.00
   -2    0   10      4.62      0.00
   -1    0   10      8.02      0.00
    0    0   10      0.59      0.00
    1    0   10     -4.66      0.00
    2    0   10     -3.69      0.00
    3    0   10      9.78      0.00
    4    0   10      7.90      0.00
    5    0   10      6.30      0.00
    6    0   10     -2.26      0.00
    7    0   10     -0.28      0.00
    8    0   10      0.50      0.00
    9    0   10      1.76      0.00
   10    0   10     -3.39      0.00
   11    0   10      1.14      0.00
   12    0   10      0.61      0.00
  -11    1   10     -0.82      0.00
  -10    1   10     -0.47      0.00
   -9    1   10     -2.05      0.00
   -8    1   10      0.61      0.00
   -7    1   10      2.45      0.00
   -6    1   10      0.28      0.00
   -5    1   10      6.44      0.00
   -4    1   10      8.24      0.00
   -3    1   10     10.57      0.00
   -2    1   10      5.57      0.00
   -1    1   10     -1.91      0.00
    0    1   10      3.86      0.00
    1    1   10      4.57      0.00
    2    1   10      3.70      0.00
    3    1   10      0.27      0.00
    4    1   10     -7.06      0.00
    5    1   10     -3.88      0.00
    6    1   10     -3.22      0.00
    7    1   10     -4.22      0.00
    8    1   10     -0.81      0.00
    9    1   10     -1.81      0.00
   10    1   10      0.39      0.00
   11    1   10     -0.31      0.00
   12    1   10      0.49      0.00
  -11    2   10     -1.75      0.00
  -10    2   10      2.25      0.00
   -9    2   10      8.21      0.00
   -8    2   10     -3.04      0.00
   -7    2   10      2.87      0.00
   -6    2   10      0.05      0.00
   -5    2   10      7.75      0.00
   -4    2   10      0.57      0.00
   -3    2   10     -5.52      0.00
   -2    2   10     -4.37      0.00
   -1    2   10      0.52      0.00
    0    2   10      5.11      0.00
    1    2   10    -16.05      0.00
    2    2   10     -8.59      0.00
    3    2   10     -6.19      0.00
    4    2   10      3.76      0.00
    5    2   10      4.57      0.00
    6    2   10      2.32      0.00
    7    2   10     -2.96      0.00
    8    2   10      4.14      0.00
    9    2   10      0.33      0.00
   10    2   10      1.73      0.00
   11    2   10     -1.20      0.00
   12    2   10      2.14      0.00
  -11    3   10      5.75      0.00
  -10    3   10      2.60      0.00
   -9    3   10      0.98      0.00
   -8    3   10     -7.60      0.00
   -7    3   10      4.35      0.00
   -6    3   10      1.84      0.00
   -5    3   10     -4.28      0.00
   -4    3   10     -4.05      0.00
   -3    3   10      0.17      0.00
   -2    3   10      4.65      0.00
   -1    3   10     -3.45      0.00
    0    3   10     -7.18      0.00
    1    3   10     -6.54      0.00
    2    3   10     15.32      0.00
    3    3   10      7.75      0.00
    4    3   10      8.41      0.00
    5    3   10     -2.72      0.00
    6    3   10      0.92      0.00
    7    3   10     -2.88      0.00
    8    3   10      2.69      0.00
    9    3   10     -3.42      0.00
   10    3   10     -1.32      0.00
   11    3   10     -0.88      0.00
   12    3   10     -2.48      0.00
   13    3   10     -1.26      0.00
  -11    4   10     -0.67      0.00
  -10    4   10     -5.33      0.00
   -9    4   10      0.93      0.00
   -8    4   10     -1.77      0.00
   -7    4   10      3.80      0.00
   -6    4   10     -1.98      0.00
   -5    4   10     -4.04      0.00
   -4    4   10      7.97      0.00
   -3    4   10      5.43      0.00
   -2    4   10     -1.60      0.00
   -1    4   10     -1.79      0.00
    0    4   10      7.38      0.00
    1    4   10      9.46      0.00
    2    4   10      0.04      0.00
    3    4   10     -6.96      0.00
    4    4   10      0.62      0.00
    5    4   10     -3.08      0.00
    6    4   10      3.07      0.00
    7    4   10     -4.53      0.00
    8    4   10      0.41      0.00
    9    4   10     -0.67      0.00
   10    4   10      1.99      0.00
   11    4   10     -0.09      0.00
   12    4   10     -0.17      0.00
   13    4   10      2.99      0.00
  -11    5   10      7.56      0.00
  -10    5   10     -1.05      0.00
   -9    5   10      5.17      0.00
   -8    5   10     -5.08      0.00
   -7    5   10      3.57      0.00
   -6    5   10     -2.53      0.00
   -5    5   10     -0.40      0.00
   -4    5   10      0.36      0.00
   -3    5   10     -3.32      0.00
   -2    5   10     -1.20      0.00
   -1    5   10      5.63      0.00
    0    5   10     -2.62      0.00
    1    5   10     -9.23      0.00
    2    5   10     -8.49      0.00
    3    5   10      6.84      0.00
    4    5   10      5.05      0.00
    5    5   10     -4.64      0.00
    6    5   10     -1.59      0.00
    7    5   10     -2.97      0.00
    8    5   10      4.79      0.00
    9    5   10      0.56      0.00
   10    5   10      1.31      0.00
   11    5   10     -1.72      0.00
   12    5   10      0.68      0.00
   13    5   10     -2.08      0.00
  -10    6   10    -11.22      0.00
   -9    6   10      0.28      0.00
   -8    6   10     -5.50      0.00
   -7    6   10      5.17      0.00
   -6    6   10     -6.34      0.00
   -5    6   10     -3.58      0.00
   -4    6   10     -0.58      0.00
   -3    6   10      2.53      0.00
   -2    6   10      4.89      0.00
   -1    6   10     -3.56      0.00
    0    6   10     -5.49      0.00
    1    6   10      5.71      0.00
    2    6   10      8.71      0.00
    3    6   10      5.88      0.00
    4    6   10     -4.70      0.00
    5    6   10     -3.12      0.00
    6    6   10      3.15      0.00
    7    6   10      2.08      0.00
    8    6   10      1.40      0.00
    9    6   10     -3.17      0.00
   10    6   10      1.48      0.00
   11    6   10     -3.25      0.00
   12    6   10     -0.79      0.00
   13    6   10     -0.30      0.00
  -10    7   10     -7.38      0.00
   -7    7   10      4.09      0.00
   -6    7   10     -2.83      0.00
   -5    7   10      3.14      0.00
   -4    7   10      5.32      0.00
   -3    7   10      1.58      0.00
   -2    7   10      4.36      0.00
   -1    7   10      2.80      0.00
    0    7   10     10.37      0.00
    1    7   10      4.09      0.00
    2    7   10     -4.72      0.00
    3    7   10     -6.66      0.00
    4    7   10      1.46      0.00
    5    7   10      0.98      0.00
    6    7   10      0.74      0.00
    7    7   10     -2.65      0.00
    8    7   10      1.82      0.00
    9    7   10      0.96      0.00
   10    7   10      2.55      0.00
   11    7   10     -0.37      0.00
   12    7   10      0.52      0.00
   13    7   10      1.91      0.00
  -10    8   10      0.79      0.00
   -9    8   10     -1.68      0.00
   -7    8   10      3.17      0.00
   -6    8   10     -0.86      0.00
   -5    8   10      0.09      0.00
   -4    8   10     -4.38      0.00
   -3    8   10     -2.65      0.00
   -2    8   10      5.75      0.00
   -1    8   10     -1.87      0.00
    0    8   10     -9.07      0.00
    1    8   10    -12.07      0.00
    2    8   10     -4.01      0.00
    3    8   10      1.01      0.00
    4    8   10      4.68      0.00
    5    8   10     -3.54      0.00
    6    8   10      0.83      0.00
    7    8   10      1.43      0.00
    8    8   10      6.98      0.00
    9    8   10     -2.71      0.00
   10    8   10      1.94      0.00
   11    8   10     -1.56      0.00
   12    8   10     -3.27      0.00
   13    8   10      0.38      0.00
   -9    9   10     -4.55      0.00
   -8    9   10      3.12      0.00
   -7    9   10      3.78      0.00
   -6    9   10     -0.55      0.00
   -5    9   10     -0.86      0.00
   -4    9   10     -2.44      0.00
   -3    9   10      3.46      0.00
   -2    9   10      2.54      0.00
   -1    9   10     -9.73      0.00
    1    9   10      3.14      0.00
    2    9   10      5.42      0.00
    3    9   10     -0.27      0.00
    4    9   10     -1.76      0.00
    5    9   10     -0.08      0.00
    6    9   10      0.82      0.00
    7    9   10      1.48      0.00
    8    9   10     -0.19      0.00
    9    9   10     -4.05      0.00
   10    9   10      4.37      0.00
   11    9   10     -2.63      0.00
   12    9   10      0.90      0.00
   -8   10   10      3.60      0.00
   -7   10   10     -2.82      0.00
   -6   10   10     -0.07      0.00
   -5   10   10     -0.77      0.00
   -4   10   10     -0.56      0.00
   -3   10   10     -1.06      0.00
   -2   10   10      1.29      0.00
   -1   10   10     -0.63      0.00
    0   10   10      6.16      0.00
    1   10   10     -6.11      0.00
    2   10   10      0.04      0.00
    3   10   10     -2.52      0.00
    4   10   10      1.80      0.00
    5   10   10      3.39      0.00
    6   10   10     -2.22      0.00
    7   10   10     -1.32      0.00
    8   10   10     -3.64      0.00
    9   10   10     -0.79      0.00
   10   10   10     -0.25      0.00
   11   10   10     -3.86      0.00
   12   10   10      0.84      0.00
   -8   11   10      1.80      0.00
   -7   11   10     -4.25      0.00
   -6   11   10      5.67      0.00
   -4   11   10      2.04      0.00
   -3   11   10     -2.04      0.00
   -2   11   10      6.32      0.00
   -1   11   10     -2.76      0.00
    0   11   10     -2.41      0.00
    1   11   10     -2.77      0.00
    2   11   10      6.47      0.00
    3   11   10     -1.77      0.00
    4   11   10      1.05      0.00
    5   11   10      0.02      0.00
    6   11   10      0.87      0.00
    7   11   10      2.14      0.00
    8   11   10      1.37      0.00
    9   11   10      3.98      0.00
   10   11   10      0.74      0.00
   11   11   10      1.61      0.00
   12   11   10      2.59      0.00
   -7   12   10     -3.52      0.00
   -4   12   10      0.75      0.00
   -3   12   10     -5.59      0.00
   -2   12   10      1.23      0.00
   -1   12   10     -1.75      0.00
    0   12   10      2.75      0.00
    1   12   10      2.02      0.00
    2   12   10     -1.12      0.00
    3   12   10     -4.51      0.00
    4   12   10      5.57      0.00
    5   12   10      4.86      0.00
    6   12   10      5.21      0.00
    7   12   10     -1.52      0.00
    8   12   10     -3.92      0.00
    9   12   10     -0.64      0.00
   10   12   10     -6.15      0.00
   11   12   10     -2.73      0.00
   -6   13   10     -1.14      0.00
   -5   13   10      4.92      0.00
   -4   13   10     -0.67      0.00
   -3   13   10      1.22      0.00
   -2   13   10      5.44      0.00
   -1   13   10      6.76      0.00
    0   13   10     -3.11      0.00
    1   13   10     -1.50      0.00
    2   13   10     -1.26      0.00
    3   13   10     -0.46      0.00
    4   13   10      5.39      0.00
    5   13   10     -1.74      0.00
    6   13   10     -2.43      0.00
    7   13   10     -5.96      0.00
    8   13   10     -3.15      0.00
    9   13   10     -0.76      0.00
   10   13   10     -4.66      0.00
   -5   14   10      1.61      0.00
   -4   14   10     -6.42      0.00
   -3   14   10     -1.08      0.00
   -2   14   10     -2.00      0.00
   -1   14   10      0.12      0.00
    0   14   10     -4.32      0.00
    1   14   10      3.85      0.00
    2   14   10      0.10      0.00
    3   14   10     -5.77      0.00
    4   14   10      3.31      0.00
    5   14   10     -2.76      0.00
    6   14   10      0.75      0.00
    7   14   10     -1.48      0.00
    8   14   10     -1.91      0.00
    9   14   10     -2.08      0.00
   10   14   10     -3.61      0.00
   -3   15   10      2.39      0.00
   -2   15   10      2.07      0.00
   -1   15   10      5.12      0.00
    0   15   10     -0.33      0.00
    1   15   10      0.29      0.00
    2   15   10     -2.72      0.00
    3   15   10     -5.60      0.00
    4   15   10      5.86      0.00
    5   15   10     -3.34      0.00
    6   15   10      1.72      0.00
    7   15   10     -3.81      0.00
    8   15   10     -2.38      0.00
   -2   16   10     -0.68      0.00
   -1   16   10     -0.53      0.00
    0   16   10     -5.47      0.00
    1   16   10      1.25      0.00
    2   16   10     -1.58      0.00
    3   16   10     -2.58      0.00
    4   16   10      2.74      0.00
    5   16   10     -1.43      0.00
    6   16   10      1.02      0.00
    7   16   10     -3.52      0.00
    3   17   10     -0.57      0.00
   -3   -9   11     -3.56      0.00
   -2   -9   11      3.17      0.00
   -1   -9   11     -1.06      0.00
    0   -9   11     -0.64      0.00
    1   -9   11     -4.51      0.00
   -5   -8   11      0.41      0.00
   -4   -8   11      2.95      0.00
   -3   -8   11     -2.09      0.00
   -2   -8   11      5.41      0.00
   -1   -8   11     -0.26      0.00
    0   -8   11     -1.23      0.00
    1   -8   11     -0.42      0.00
    2   -8   11      2.36      0.00
    3   -8   11      0.65      0.00
    4   -8   11     -3.31      0.00
   -7   -7   11      3.79      0.00
   -6   -7   11      1.32      0.00
   -5   -7   11     -1.81      0.00
   -4   -7   11     -0.60      0.00
   -3   -7   11     -2.70      0.00
   -2   -7   11     -0.11      0.00
   -1   -7   11      0.71      0.00
    0   -7   11     -0.32      0.00
    1   -7   11      3.85      0.00
    2   -7   11     -2.31      0.00
    3   -7   11     -1.21      0.00
    4   -7   11     -1.21      0.00
    5   -7   11      2.08      0.00
   -8   -6   11     -1.47      0.00
   -7   -6   11      1.59      0.00
   -6   -6   11     -2.14      0.00
   -5   -6   11     -0.22      0.00
   -4   -6   11     -3.85      0.00
   -3   -6   11      2.76      0.00
   -2   -6   11      0.30      0.00
   -1   -6   11      3.59      0.00
    0   -6   11     -5.60      0.00
    1   -6   11     -0.39      0.00
    2   -6   11     -4.44      0.00
    3   -6   11      2.46      0.00
    4   -6   11      2.42      0.00
    5   -6   11      1.45      0.00
    6   -6   11      1.70      0.00
    7   -6   11      1.67      0.00
   -8   -5   11     -4.38      0.00
   -7   -5   11     -1.14      0.00
   -6   -5   11     -2.13      0.00
   -5   -5   11     -0.96      0.00
   -4   -5   11      0.29      0.00
   -3   -5   11      3.20      0.00
   -2   -5   11     -2.09      0.00
   -1   -5   11      0.73      0.00
    0   -5   11     -3.82      0.00
    1   -5   11      6.06      0.00
    2   -5   11      1.82      0.00
    3   -5   11     -0.80      0.00
    4   -5   11     -2.16      0.00
    5   -5   11     -1.95      0.00
    6   -5   11      0.71      0.00
    7   -5   11      0.17      0.00
    8   -5   11     -0.55      0.00
   -9   -4   11     -2.87      0.00
   -8   -4   11     -0.53      0.00
   -7   -4   11      1.95      0.00
   -6   -4   11      3.09      0.00
   -5   -4   11      0.00      0.00
   -4   -4   11      0.00      0.00
   -3   -4   11      0.00      0.00
   -2   -4   11      1.00      0.00
   -1   -4   11      0.88      0.00
    0   -4   11     -0.14      0.00
    1   -4   11      2.31      0.00
    2   -4   11     -2.54      0.00
    3   -4   11     -5.48      0.00
    4   -4   11      0.35      0.00
    5   -4   11      2.74      0.00
    6   -4   11     -0.35      0.00
    7   -4   11      2.04      0.00
    8   -4   11     -2.83      0.00
    9   -4   11      0.62      0.00
  -10   -3   11     -0.99      0.00
   -9   -3   11     -0.91      0.00
   -8   -3   11     -1.99      0.00
   -7   -3   11      1.76      0.00
   -6   -3   11      0.98      0.00
   -5   -3   11     -4.77      0.00
   -4   -3   11      2.14      0.00
   -3   -3   11      2.40      0.00
   -2   -3   11      1.92      0.00
   -1   -3   11     -3.09      0.00
    0   -3   11     -2.81      0.00
    1   -3   11     -1.14      0.00
    2   -3   11      0.35      0.00
    3   -3   11     -3.48      0.00
    4   -3   11     -0.34      0.00
    5   -3   11     -0.57      0.00
    6   -3   11     -3.08      0.00
    7   -3   11      3.94      0.00
    8   -3   11     -3.27      0.00
    9   -3   11      2.83      0.00
  -10   -2   11     -2.67      0.00
   -9   -2   11      2.24      0.00
   -8   -2   11     -1.37      0.00
   -7   -2   11      2.61      0.00
   -6   -2   11     -0.26      0.00
   -5   -2   11     -0.10      0.00
   -4   -2   11      1.93      0.00
   -3   -2   11     -3.03      0.00
   -2   -2   11     -6.54      0.00
   -1   -2   11     -5.76      0.00
    0   -2   11     -0.20      0.00
    1   -2   11      2.26      0.00
    2   -2   11     -1.16      0.00
    3   -2   11     -6.12      0.00
    4   -2   11     -1.63      0.00
    5   -2   11      1.62      0.00
    6   -2   11      1.47      0.00
    7   -2   11      1.98      0.00
    8   -2   11     -2.14      0.00
    9   -2   11      1.11      0.00
   10   -2   11     -1.02      0.00
  -10   -1   11     -2.75      0.00
   -9   -1   11      3.36      0.00
   -8   -1   11     -4.54      0.00
   -7   -1   11      1.73      0.00
   -6   -1   11      2.46      0.00
   -5   -1   11      0.14      0.00
   -4   -1   11     -4.72      0.00
   -3   -1   11      0.17      0.00
   -2   -1   11     -0.25      0.00
   -1   -1   11      6.10      0.00
    0   -1   11      0.96      0.00
    1   -1   11     -2.85      0.00
    2   -1   11     -1.79      0.00
    3   -1   11      4.21      0.00
    4   -1   11      4.65      0.00
    5   -1   11      2.59      0.00
    6   -1   11      0.16      0.00
    7   -1   11     -0.85      0.00
    8   -1   11      0.07      0.00
    9   -1   11      0.20      0.00
   10   -1   11     -0.74      0.00
   11   -1   11     -0.47      0.00
  -10    0   11      0.61      0.00
   -9    0   11     -0.42      0.00
   -8    0   11      2.58      0.00
   -7    0   11      6.66      0.00
   -6    0   11      4.26      0.00
   -5    0   11     -0.69      0.00
   -4    0   11      0.68      0.00
   -3    0   11      7.18      0.00
   -2    0   11     -3.30      0.00
   -1    0   11     -4.04      0.00
    0    0   11     -8.18      0.00
    1    0   11      2.17      0.00
    2    0   11      7.33      0.00
    3    0   11      2.33      0.00
    4    0   11     -7.30      0.00
    5    0   11     -4.83      0.00
    6    0   11      0.49      0.00
    7    0   11     -0.85      0.00
    8    0   11      1.23      0.00
    9    0   11      0.59      0.00
   10    0   11     -1.20      0.00
   11    0   11      0.72      0.00
  -10    1   11      0.61      0.00
   -9    1   11     -1.02      0.00
   -8    1   11      5.24      0.00
   -7    1   11     -1.56      0.00
   -6    1   11     -1.64      0.00
   -5    1   11     -1.98      0.00
   -4    1   11     -7.40      0.00
   -3    1   11     -7.63      0.00
   -2    1   11    -11.47      0.00
   -1    1   11     -1.65      0.00
    0    1   11      1.50      0.00
    1    1   11      4.44      0.00
    2    1   11     -4.44      0.00
    3    1   11     -5.49      0.00
    4    1   11     -1.79      0.00
    5    1   11      4.58      0.00
    6    1   11      5.40      0.00
    7    1   11      0.52      0.00
    8    1   11      2.48      0.00
    9    1   11      0.01      0.00
   10    1   11     -1.19      0.00
   11    1   11      1.13      0.00
  -10    2   11     -2.24      0.00
   -9    2   11     -5.12      0.00
   -8    2   11     -4.09      0.00
   -7    2   11      0.00      0.00
   -6    2   11     -2.31      0.00
   -5    2   11     -2.22      0.00
   -4    2   11     -8.55      0.00
   -3    2   11      4.05      0.00
   -2    2   11      7.61      0.00
   -1    2   11      3.06      0.00
    0    2   11     -0.31      0.00
    1    2   11      1.75      0.00
    2    2   11      3.99      0.00
    3    2   11      7.03      0.00
    4    2   11      3.54      0.00
    5    2   11     -1.34      0.00
    6    2   11     -0.06      0.00
    7    2   11     -0.16      0.00
    8    2   11     -1.94      0.00
    9    2   11     -0.30      0.00
   10    2   11     -1.77      0.00
   11    2   11      1.53      0.00
   12    2   11     -0.97      0.00
  -10    3   11     -3.14      0.00
   -9    3   11     -1.54      0.00
   -8    3   11      1.37      0.00
   -7    3   11      6.39      0.00
   -6    3   11     -6.03      0.00
   -5    3   11      2.62      0.00
   -4    3   11      2.66      0.00
   -3    3   11      4.11      0.00
   -2    3   11     -2.25      0.00
   -1    3   11     -7.13      0.00
    0    3   11      4.90      0.00
    1    3   11      5.82      0.00
    2    3   11      0.76      0.00
    3    3   11    -10.07      0.00
    4    3   11     -5.56      0.00
    5    3   11     -5.43      0.00
    6    3   11      0.59      0.00
    7    3   11     -0.13      0.00
    8    3   11     -2.80      0.00
    9    3   11      3.32      0.00
   10    3   11     -1.62      0.00
   11    3   11      3.55      0.00
   12    3   11     -2.35      0.00
  -10    4   11      0.21      0.00
   -9    4   11      0.14      0.00
   -8    4   11     -2.91      0.00
   -7    4   11     -0.50      0.00
   -6    4   11     -2.11      0.00
   -5    4   11      4.22      0.00
   -4    4   11     -3.02      0.00
   -3    4   11    -10.23      0.00
   -2    4   11     -1.66      0.00
   -1    4   11      2.97      0.00
    0    4   11      2.33      0.00
    1    4   11     -6.17      0.00
    2    4   11     -6.63      0.00
    3    4   11     -3.69      0.00
    4    4   11      6.09      0.00
    5    4   11     -0.50      0.00
    6    4   11      2.08      0.00
    7    4   11      3.52      0.00
    8    4   11     -0.03      0.00
    9    4   11      2.56      0.00
   10    4   11     -1.78      0.00
   11    4   11      2.21      0.00
   12    4   11     -2.61      0.00
  -10    5   11     -0.54      0.00
   -9    5   11      0.62      0.00
   -8    5   11     -0.71      0.00
   -7    5   11      5.02      0.00
   -6    5   11      2.53      0.00
   -5    5   11     -0.53      0.00
   -4    5   11      0.72      0.00
   -3    5   11      1.71      0.00
   -2    5   11      4.74      0.00
   -1    5   11      1.52      0.00
    0    5   11     -6.39      0.00
    1    5   11      4.00      0.00
    2    5   11      7.32      0.00
    3    5   11      3.26      0.00
    4    5   11     -1.43      0.00
    5    5   11      0.10      0.00
    6    5   11      1.82      0.00
    7    5   11      2.15      0.00
    8    5   11     -4.00      0.00
    9    5   11      0.25      0.00
   10    5   11     -1.06      0.00
   11    5   11      0.19      0.00
   12    5   11     -1.53      0.00
  -10    6   11     -1.13      0.00
   -9    6   11      2.88      0.00
   -8    6   11      0.37      0.00
   -7    6   11      0.11      0.00
   -6    6   11      0.01      0.00
   -4    6   11      4.15      0.00
   -3    6   11     -4.56      0.00
   -2    6   11     -5.74      0.00
   -1    6   11      0.00      0.00
    0    6   11      1.23      0.00
    1    6   11      5.15      0.00
    2    6   11     -6.64      0.00
    3    6   11     -9.87      0.00
    4    6   11     -1.86      0.00
    5    6   11      4.30      0.00
    6    6   11     -2.38      0.00
    7    6   11      0.10      0.00
    8    6   11     -1.07      0.00
    9    6   11      0.93      0.00
   10    6   11     -0.86      0.00
   11    6   11     -0.21      0.00
   12    6   11      0.38      0.00
   -9    7   11      6.45      0.00
   -8    7   11     -0.78      0.00
   -7    7   11     -0.28      0.00
   -6    7   11      2.50      0.00
   -5    7   11     -0.78      0.00
   -4    7   11     -4.80      0.00
   -3    7   11     -6.12      0.00
   -2    7   11      0.88      0.00
   -1    7   11      0.34      0.00
    0    7   11      0.48      0.00
    1    7   11     -9.43      0.00
    2    7   11     -1.42      0.00
    3    7   11      4.16      0.00
    4    7   11      6.72      0.00
    5    7   11     -1.69      0.00
    6    7   11     -0.52      0.00
    7    7   11     -0.06      0.00
    8    7   11     -1.68      0.00
    9    7   11     -2.65      0.00
   10    7   11     -0.20      0.00
   11    7   11      0.08      0.00
   12    7   11      0.20      0.00
   -9    8   11      0.18      0.00
   -8    8   11     -2.16      0.00
   -7    8   11     -0.85      0.00
   -6    8   11     -1.91      0.00
   -5    8   11     -0.83      0.00
   -4    8   11      3.10      0.00
   -3    8   11      1.94      0.00
   -2    8   11     -0.28      0.00
   -1    8   11     -2.49      0.00
    0    8   11      4.32      0.00
    1    8   11      2.08      0.00
    2    8   11     12.49      0.00
    3    8   11     -0.01      0.00
    4    8   11     -2.54      0.00
    5    8   11     -1.09      0.00
    6    8   11      4.20      0.00
    7    8   11     -3.06      0.00
    8    8   11      0.82      0.00
    9    8   11     -0.35      0.00
   10    8   11      1.33      0.00
   11    8   11     -0.11      0.00
   12    8   11      0.11      0.00
   -9    9   11      4.84      0.00
   -8    9   11      1.79      0.00
   -7    9   11     -3.32      0.00
   -6    9   11      1.07      0.00
   -5    9   11      4.66      0.00
   -4    9   11      1.62      0.00
   -3    9   11     -3.73      0.00
   -2    9   11     -1.03      0.00
   -1    9   11      5.01      0.00
    0    9   11      8.19      0.00
    1    9   11      3.53      0.00
    2    9   11     -3.76      0.00
    3    9   11     -6.55      0.00
    4    9   11      0.15      0.00
    5    9   11      1.32      0.00
    6    9   11     -2.24      0.00
    7    9   11     -2.50      0.00
    8    9   11     -0.85      0.00
    9    9   11     -0.63      0.00
   10    9   11     -0.07      0.00
   11    9   11     -0.66      0.00
   12    9   11     -0.55      0.00
   -8   10   11     -3.43      0.00
   -7   10   11      0.21      0.00
   -6   10   11      2.54      0.00
   -5   10   11      0.38      0.00
   -4   10   11     -3.27      0.00
   -3   10   11     -0.55      0.00
   -2   10   11      0.72      0.00
   -1   10   11      1.41      0.00
    0   10   11     -2.99      0.00
    1   10   11     -2.55      0.00
    2   10   11     -3.44      0.00
    3   10   11      2.52      0.00
    4   10   11      1.88      0.00
    5   10   11     -1.75      0.00
    6   10   11      3.62      0.00
    7   10   11      3.07      0.00
    8   10   11      3.00      0.00
    9   10   11      5.62      0.00
   10   10   11      0.99      0.00
   11   10   11      0.64      0.00
   12   10   11      0.70      0.00
   -5   11   11      1.92      0.00
   -4   11   11     -1.12      0.00
   -3   11   11     -0.54      0.00
   -2   11   11     -3.79      0.00
   -1   11   11     -1.07      0.00
    0   11   11      1.29      0.00
    1   11   11      4.47      0.00
    2   11   11      0.90      0.00
    3   11   11     -2.12      0.00
    4   11   11     -1.09      0.00
    5   11   11     -1.37      0.00
    6   11   11      2.49      0.00
    7   11   11     -5.18      0.00
    8   11   11      2.53      0.00
    9   11   11     -2.48      0.00
   10   11   11     -1.08      0.00
   11   11   11     -0.57      0.00
   -6   12   11      0.92      0.00
   -5   12   11      3.11      0.00
   -4   12   11     -5.08      0.00
   -3   12   11      0.22      0.00
   -2   12   11      0.41      0.00
   -1   12   11      2.09      0.00
    0   12   11      2.54      0.00
    1   12   11     -5.68      0.00
    2   12   11     -0.27      0.00
    3   12   11     -2.79      0.00
    4   12   11     -1.28      0.00
    5   12   11     -3.53      0.00
    6   12   11     -4.61      0.00
    7   12   11     -0.38      0.00
    8   12   11      5.59      0.00
    9   12   11     -2.85      0.00
   10   12   11      5.87      0.00
   11   12   11      0.17      0.00
   -5   13   11     -0.45      0.00
   -4   13   11     -3.00      0.00
   -3   13   11      4.07      0.00
   -2   13   11     -3.96      0.00
   -1   13   11     -2.49      0.00
    0   13   11     -2.85      0.00
    1   13   11     -2.14      0.00
    2   13   11     10.11      0.00
    3   13   11     -2.59      0.00
    4   13   11     -1.91      0.00
    5   13   11      0.72      0.00
    6   13   11      1.66      0.00
    7   13   11      9.20      0.00
    8   13   11      3.66      0.00
    9   13   11      2.14      0.00
   10   13   11      9.54      0.00
   -4   14   11     -0.07      0.00
   -3   14   11      0.99      0.00
   -2   14   11     -2.11      0.00
   -1   14   11      0.92      0.00
    0   14   11      1.57      0.00
    1   14   11      2.33      0.00
    2   14   11      1.97      0.00
    3   14   11     -4.87      0.00
    4   14   11      0.37      0.00
    5   14   11      1.82      0.00
    6   14   11      2.14      0.00
    7   14   11      4.60      0.00
    8   14   11      0.14      0.00
    9   14   11      3.58      0.00
   -2   15   11      0.13      0.00
   -1   15   11     -4.36      0.00
    0   15   11     -0.07      0.00
    1   15   11     -2.75      0.00
    2   15   11      0.79      0.00
    3   15   11      2.39      0.00
    4   15   11     -0.51      0.00
    5   15   11      0.09      0.00
    6   15   11      2.39      0.00
    7   15   11      0.89      0.00
    8   15   11     -0.05      0.00
   -1   16   11     -0.65      0.00
    0   16   11      4.45      0.00
    1   16   11      2.38      0.00
    2   16   11      3.43      0.00
    3   16   11      2.14      0.00
    4   16   11     -2.84      0.00
    5   16   11      2.44      0.00
    6   16   11      2.10      0.00
   -2   -8   12     -5.15      0.00
   -1   -8   12     -0.08      0.00
    0   -8   12     -2.02      0.00
   -5   -7   12      0.12      0.00
   -4   -7   12     -1.37      0.00
   -3   -7   12      0.08      0.00
   -2   -7   12     -2.37      0.00
   -1   -7   12      5.31      0.00
    0   -7   12     -4.64      0.00
    1   -7   12      2.86      0.00
    2   -7   12     -6.19      0.00
    3   -7   12      2.00      0.00
    4   -7   12     -0.27      0.00
   -6   -6   12     -0.12      0.00
   -5   -6   12      4.03      0.00
   -4   -6   12     -1.38      0.00
   -3   -6   12      5.98      0.00
   -2   -6   12     -2.56      0.00
   -1   -6   12     -0.46      0.00
    0   -6   12     -2.13      0.00
    1   -6   12      3.83      0.00
    2   -6   12      1.78      0.00
    3   -6   12      1.61      0.00
    4   -6   12      0.09      0.00
    5   -6   12     -1.76      0.00
   -7   -5   12      2.34      0.00
   -6   -5   12      3.66      0.00
   -5   -5   12      2.49      0.00
   -4   -5   12     -0.59      0.00
   -3   -5   12     -2.10      0.00
   -2   -5   12     -5.15      0.00
   -1   -5   12      1.27      0.00
    0   -5   12      2.90      0.00
    1   -5   12     -1.71      0.00
    2   -5   12      0.18      0.00
    3   -5   12     -4.51      0.00
    4   -5   12      2.23      0.00
    5   -5   12     -0.60      0.00
    6   -5   12      0.88      0.00
    7   -5   12     -0.76      0.00
   -8   -4   12      4.20      0.00
   -7   -4   12     -3.57      0.00
   -6   -4   12     -0.34      0.00
   -5   -4   12     -2.35      0.00
   -4   -4   12     -1.85      0.00
   -3   -4   12     -2.38      0.00
   -2   -4   12      2.95      0.00
   -1   -4   12     -1.23      0.00
    0   -4   12     -0.74      0.00
    1   -4   12     -3.66      0.00
    2   -4   12     -0.67      0.00
    3   -4   12      2.46      0.00
    4   -4   12      5.08      0.00
    5   -4   12      0.32      0.00
    6   -4   12      0.57      0.00
    7   -4   12     -0.68      0.00
    8   -4   12      1.30      0.00
   -8   -3   12     -0.28      0.00
   -7   -3   12     -6.05      0.00
   -6   -3   12      0.29      0.00
   -5   -3   12      0.73      0.00
   -4   -3   12      2.05      0.00
   -3   -3   12     -0.61      0.00
   -2   -3   12     -0.92      0.00
   -1   -3   12     -2.20      0.00
    0   -3   12      5.10      0.00
    1   -3   12      0.89      0.00
    2   -3   12      3.13      0.00
    3   -3   12      6.58      0.00
    4   -3   12     -1.41      0.00
    5   -3   12     -0.05      0.00
    6   -3   12      0.09      0.00
    7   -3   12     -0.50      0.00
    8   -3   12      0.84      0.00
   -9   -2   12     -0.15      0.00
   -8   -2   12     -1.35      0.00
   -7   -2   12      0.74      0.00
   -6   -2   12      1.15      0.00
   -5   -2   12      6.13      0.00
   -4   -2   12     -1.26      0.00
   -3   -2   12     -0.75      0.00
   -2   -2   12      3.06      0.00
   -1   -2   12      4.78      0.00
    0   -2   12      4.17      0.00
    1   -2   12     -3.91      0.00
    2   -2   12      0.50      0.00
    3   -2   12     -0.18      0.00
    4   -2   12      0.46      0.00
    5   -2   12      0.14      0.00
    6   -2   12     -0.70      0.00
    7   -2   12     -1.73      0.00
    8   -2   12      0.29      0.00
    9   -2   12     -1.10      0.00
   -9   -1   12      4.27      0.00
   -8   -1   12     -3.99      0.00
   -7   -1   12      1.21      0.00
   -6   -1   12     -4.65      0.00
   -5   -1   12      1.42      0.00
   -4   -1   12     -5.19      0.00
   -3   -1   12      5.60      0.00
   -2   -1   12      0.65      0.00
   -1   -1   12     -2.68      0.00
    0   -1   12     -2.70      0.00
    1   -1   12     -2.06      0.00
    2   -1   12      2.88      0.00
    3   -1   12     -0.37      0.00
    4   -1   12      1.66      0.00
    5   -1   12     -6.41      0.00
    6   -1   12      2.03      0.00
    7   -1   12      0.70      0.00
    8   -1   12      1.54      0.00
    9   -1   12      0.12      0.00
   10   -1   12      2.85      0.00
   -9    0   12      1.12      0.00
   -8    0   12     -6.96      0.00
   -7    0   12     -2.22      0.00
   -6    0   12     -3.22      0.00
   -5    0   12      2.15      0.00
   -4    0   12      1.43      0.00
   -3    0   12      1.10      0.00
   -2    0   12     -5.19      0.00
   -1    0   12      2.48      0.00
    0    0   12      6.21      0.00
    1    0   12      2.76      0.00
    2    0   12     -3.27      0.00
    3    0   12     -5.18      0.00
    4    0   12      1.24      0.00
    5    0   12     -1.00      0.00
    6    0   12      4.75      0.00
    7    0   12     -1.19      0.00
    8    0   12     -0.79      0.00
    9    0   12     -0.72      0.00
   10    0   12      0.46      0.00
  -10    1   12     -1.70      0.00
   -9    1   12      1.24      0.00
   -8    1   12     -3.75      0.00
   -7    1   12     -3.83      0.00
   -6    1   12      4.60      0.00
   -5    1   12      1.10      0.00
   -4    1   12      2.85      0.00
   -3    1   12      3.78      0.00
   -2    1   12      8.72      0.00
   -1    1   12      7.32      0.00
    0    1   12     -1.74      0.00
    1    1   12     -6.27      0.00
    2    1   12     -4.98      0.00
    3    1   12      3.21      0.00
    4    1   12      6.67      0.00
    5    1   12     -1.37      0.00
    6    1   12     -1.50      0.00
    7    1   12     -1.57      0.00
    8    1   12     -1.09      0.00
    9    1   12     -0.77      0.00
   10    1   12      0.95      0.00
   11    1   12      0.46      0.00
  -10    2   12     -0.40      0.00
   -9    2   12      8.33      0.00
   -8    2   12     -0.13      0.00
   -7    2   12      1.76      0.00
   -6    2   12      4.06      0.00
   -5    2   12      0.89      0.00
   -4    2   12      5.62      0.00
   -3    2   12      5.29      0.00
   -2    2   12     -2.59      0.00
   -1    2   12     -8.92      0.00
    0    2   12     -3.39      0.00
    1    2   12     -0.21      0.00
    2    2   12      1.73      0.00
    3    2   12      1.59      0.00
    4    2   12     -2.01      0.00
    5    2   12     -3.66      0.00
    6    2   12      0.40      0.00
    7    2   12      0.09      0.00
    8    2   12      0.26      0.00
    9    2   12      1.47      0.00
   10    2   12      1.87      0.00
   11    2   12     -0.80      0.00
  -10    3   12     -1.42      0.00
   -9    3   12      7.70      0.00
   -8    3   12     -6.38      0.00
   -7    3   12     -1.05      0.00
   -6    3   12     -1.02      0.00
   -5    3   12      3.35      0.00
   -4    3   12     -1.99      0.00
   -3    3   12     -4.40      0.00
   -2    3   12     -4.45      0.00
   -1    3   12      2.02      0.00
    0    3   12      5.09      0.00
    1    3   12     -6.05      0.00
    2    3   12     -1.02      0.00
    3    3   12     -0.78      0.00
    4    3   12      2.11      0.00
    5    3   12      4.31      0.00
    6    3   12      1.89      0.00
    7    3   12      0.23      0.00
    8    3   12      2.09      0.00
    9    3   12     -0.60      0.00
   10    3   12     -1.26      0.00
   11    3   12     -1.07      0.00
  -10    4   12      0.13      0.00
   -9    4   12      3.45      0.00
   -8    4   12     -1.08      0.00
   -7    4   12      1.62      0.00
   -6    4   12      3.61      0.00
   -5    4   12     -3.38      0.00
   -4    4   12     -0.51      0.00
   -3    4   12      6.10      0.00
   -2    4   12      7.72      0.00
   -1    4   12     -0.30      0.00
    0    4   12     -3.41      0.00
    1    4   12     -1.54      0.00
    2    4   12      7.21      0.00
    3    4   12      3.69      0.00
    4    4   12      2.52      0.00
    5    4   12      0.31      0.00
    6    4   12     -2.27      0.00
    7    4   12     -1.38      0.00
    8    4   12     -1.60      0.00
    9    4   12     -2.40      0.00
   10    4   12      0.81      0.00
   11    4   12      0.82      0.00
   -9    5   12     -1.49      0.00
   -8    5   12      2.11      0.00
   -7    5   12     -5.24      0.00
   -6    5   12     -0.45      0.00
   -5    5   12     -6.92      0.00
   -4    5   12      7.05      0.00
   -3    5   12      0.62      0.00
   -2    5   12     -7.09      0.00
   -1    5   12     -5.75      0.00
    0    5   12      2.75      0.00
    1    5   12      3.90      0.00
    2    5   12     -4.82      0.00
    3    5   12     -2.82      0.00
    4    5   12     -2.93      0.00
    5    5   12     -1.61      0.00
    6    5   12     -1.76      0.00
    7    5   12     -0.81      0.00
    8    5   12      0.20      0.00
    9    5   12      1.67      0.00
   10    5   12      1.28      0.00
   11    5   12     -0.34      0.00
   12    5   12      0.71      0.00
   -9    6   12     -6.71      0.00
   -8    6   12      3.56      0.00
   -7    6   12     -3.07      0.00
   -6    6   12      2.05      0.00
   -5    6   12     -3.16      0.00
   -4    6   12      1.14      0.00
   -3    6   12     -4.32      0.00
   -2    6   12      0.57      0.00
   -1    6   12      6.38      0.00
    0    6   12      1.08      0.00
    1    6   12     -2.10      0.00
    2    6   12     -1.99      0.00
    3    6   12      7.65      0.00
    4    6   12      3.35      0.00
    5    6   12     -0.34      0.00
    6    6   12      0.49      0.00
    7    6   12      1.60      0.00
    8    6   12      0.51      0.00
    9    6   12     -1.10      0.00
   10    6   12      1.40      0.00
   11    6   12      1.65      0.00
   12    6   12      1.46      0.00
   -8    7   12      3.94      0.00
   -7    7   12     -2.94      0.00
   -6    7   12     -1.73      0.00
   -5    7   12     -2.72      0.00
   -4    7   12      4.32      0.00
   -3    7   12      4.11      0.00
   -2    7   12      4.33      0.00
   -1    7   12     -4.84      0.00
    0    7   12     -3.02      0.00
    1    7   12      2.33      0.00
    2    7   12      3.29      0.00
    3    7   12      0.67      0.00
    4    7   12     -3.75      0.00
    5    7   12     -4.47      0.00
    6    7   12      3.17      0.00
    7    7   12     -0.78      0.00
    8    7   12     -0.94      0.00
    9    7   12      1.84      0.00
   10    7   12      3.92      0.00
   12    7   12     -0.46      0.00
   -8    8   12      4.52      0.00
   -7    8   12     -1.00      0.00
   -6    8   12      2.61      0.00
   -5    8   12      4.23      0.00
   -4    8   12      4.83      0.00
   -3    8   12     -4.75      0.00
   -2    8   12     -1.53      0.00
   -1    8   12     -2.07      0.00
    0    8   12      3.37      0.00
    1    8   12      2.27      0.00
    2    8   12     -3.41      0.00
    3    8   12     -3.70      0.00
    4    8   12     -0.99      0.00
    5    8   12     -0.49      0.00
    6    8   12      2.22      0.00
    7    8   12     -3.23      0.00
    8    8   12      1.49      0.00
    9    8   12      1.86      0.00
   10    8   12     -1.60      0.00
   11    8   12      0.80      0.00
   -8    9   12      3.74      0.00
   -7    9   12     -2.79      0.00
   -6    9   12      1.11      0.00
   -5    9   12     -2.50      0.00
   -4    9   12     -5.45      0.00
   -3    9   12     -4.45      0.00
   -2    9   12      4.90      0.00
   -1    9   12     -3.05      0.00
    0    9   12     -8.54      0.00
    1    9   12     -2.88      0.00
    2    9   12     -5.70      0.00
    3    9   12      4.09      0.00
    4    9   12      3.26      0.00
    5    9   12     -0.64      0.00
    6    9   12      2.66      0.00
    7    9   12      1.47      0.00
    8    9   12      0.09      0.00
    9    9   12      0.46      0.00
   10    9   12     -0.85      0.00
   11    9   12      3.52      0.00
   -7   10   12     -0.52      0.00
   -5   10   12      0.78      0.00
   -4   10   12      1.45      0.00
   -3   10   12      6.24      0.00
   -2   10   12      0.85      0.00
   -1   10   12     -5.56      0.00
    0   10   12      0.54      0.00
    1   10   12      5.51      0.00
    2   10   12      2.31      0.00
    3   10   12      6.53      0.00
    4   10   12     -3.18      0.00
    5   10   12     -5.17      0.00
    6   10   12      1.25      0.00
    7   10   12     -3.88      0.00
    8   10   12     -6.54      0.00
    9   10   12      0.38      0.00
   10   10   12     -2.78      0.00
   11   10   12      1.07      0.00
   -6   11   12     -2.76      0.00
   -5   11   12      5.27      0.00
   -4   11   12     -1.82      0.00
   -3   11   12      2.05      0.00
   -2   11   12     -1.21      0.00
   -1   11   12      3.55      0.00
    0   11   12      3.60      0.00
    1   11   12     -2.80      0.00
    2   11   12      0.44      0.00
    3   11   12      1.38      0.00
    4   11   12     -2.12      0.00
    5   11   12      1.22      0.00
    6   11   12      3.05      0.00
    7   11   12      0.08      0.00
    8   11   12     -1.27      0.00
    9   11   12      2.93      0.00
   10   11   12     -2.53      0.00
   11   11   12      2.96      0.00
   -6   12   12     -1.32      0.00
   -5   12   12      1.34      0.00
   -4   12   12     -1.28      0.00
   -3   12   12      5.82      0.00
   -2   12   12      1.48      0.00
   -1   12   12     -2.98      0.00
    0   12   12     -2.44      0.00
    1   12   12     -2.77      0.00
    2   12   12      4.44      0.00
    3   12   12      1.75      0.00
    4   12   12     -1.19      0.00
    5   12   12      1.89      0.00
    6   12   12      1.11      0.00
    7   12   12      2.07      0.00
    8   12   12     -5.03      0.00
    9   12   12      0.64      0.00
   10   12   12     -2.67      0.00
   -5   13   12      2.72      0.00
   -4   13   12      0.74      0.00
   -3   13   12      1.21      0.00
   -2   13   12     -4.53      0.00
   -1   13   12      0.01      0.00
    0   13   12      5.12      0.00
    1   13   12      1.76      0.00
    2   13   12      1.23      0.00
    3   13   12     -2.22      0.00
    4   13   12     -0.19      0.00
    5   13   12      3.65      0.00
    6   13   12     -2.24      0.00
    7   13   12     -3.37      0.00
    8   13   12     -8.05      0.00
    9   13   12     -0.46      0.00
   -4   14   12     -3.36      0.00
   -3   14   12      1.02      0.00
   -2   14   12      1.78      0.00
   -1   14   12      4.42      0.00
    0   14   12     -2.06      0.00
    1   14   12     -0.55      0.00
    2   14   12     -3.32      0.00
    3   14   12      0.00      0.00
    4   14   12      1.52      0.00
    5   14   12     -1.29      0.00
    6   14   12     -7.14      0.00
    7   14   12     -2.86      0.00
    8   14   12     -3.63      0.00
   -2   15   12      0.77      0.00
   -1   15   12     -2.00      0.00
    0   15   12      0.14      0.00
    1   15   12      3.63      0.00
    2   15   12     -1.05      0.00
    3   15   12      1.93      0.00
    4   15   12      0.57      0.00
    5   15   12     -1.52      0.00
    6   15   12     -1.56      0.00
    7   15   12      1.42      0.00
    1   16   12     -2.04      0.00
    2   16   12     -2.85      0.00
    3   16   12     -1.48      0.00
    4   16   12     -0.32      0.00
    5   16   12     -2.49      0.00
   -4   -6   13     -1.29      0.00
   -3   -6   13     -1.77      0.00
   -2   -6   13     -1.86      0.00
   -1   -6   13     -0.59      0.00
    0   -6   13      0.39      0.00
    1   -6   13      3.56      0.00
    2   -6   13     -0.07      0.00
    3   -6   13     -2.90      0.00
   -5   -5   13     -4.47      0.00
   -4   -5   13     -1.07      0.00
   -3   -5   13      0.16      0.00
   -2   -5   13      2.73      0.00
   -1   -5   13      4.96      0.00
    0   -5   13     -2.47      0.00
    1   -5   13      0.17      0.00
    2   -5   13     -1.71      0.00
    3   -5   13     -2.48      0.00
    4   -5   13      1.87      0.00
    5   -5   13     -2.85      0.00
   -6   -4   13     -0.36      0.00
   -5   -4   13     -0.13      0.00
   -4   -4   13      6.10      0.00
   -3   -4   13      2.29      0.00
   -2   -4   13      2.10      0.00
   -1   -4   13     -0.07      0.00
    0   -4   13     -2.18      0.00
    1   -4   13      5.82      0.00
    2   -4   13      1.46      0.00
    3   -4   13     -0.18      0.00
    4   -4   13     -0.70      0.00
    5   -4   13     -3.13      0.00
    6   -4   13     -0.11      0.00
   -7   -3   13      2.79      0.00
   -6   -3   13      5.24      0.00
   -5   -3   13     -1.22      0.00
   -4   -3   13      1.38      0.00
   -3   -3   13     -2.48      0.00
   -2   -3   13     -0.51      0.00
   -1   -3   13     -0.54      0.00
    0   -3   13      1.18      0.00
    1   -3   13     -0.78      0.00
    2   -3   13     -3.11      0.00
    3   -3   13     -5.87      0.00
    4   -3   13     -2.73      0.00
    5   -3   13     -1.42      0.00
    6   -3   13     -1.71      0.00
    7   -3   13      2.06      0.00
   -8   -2   13      2.76      0.00
   -7   -2   13      1.28      0.00
   -6   -2   13     -0.98      0.00
   -5   -2   13     -7.93      0.00
   -4   -2   13     -1.59      0.00
   -3   -2   13      0.49      0.00
   -2   -2   13      1.53      0.00
   -1   -2   13     -2.83      0.00
    0   -2   13     -1.19      0.00
    1   -2   13     -2.61      0.00
    2   -2   13      1.94      0.00
    3   -2   13     -2.87      0.00
    4   -2   13      4.08      0.00
    5   -2   13     -0.42      0.00
    6   -2   13      0.90      0.00
    7   -2   13      3.56      0.00
    8   -2   13     -0.83      0.00
   -8   -1   13      0.64      0.00
   -7   -1   13     -2.92      0.00
   -6   -1   13      2.02      0.00
   -5   -1   13     -0.54      0.00
   -4   -1   13      2.28      0.00
   -3   -1   13      3.40      0.00
   -2   -1   13     -3.12      0.00
   -1   -1   13     -2.37      0.00
    0   -1   13      3.21      0.00
    1   -1   13      4.30      0.00
    2   -1   13      1.03      0.00
    3   -1   13     -1.32      0.00
    4   -1   13      1.55      0.00
    5   -1   13     -2.50      0.00
    6   -1   13      0.69      0.00
    7   -1   13     -1.69      0.00
    8   -1   13     -1.44      0.00
    9   -1   13     -2.13      0.00
   -8    0   13      5.22      0.00
   -7    0   13      2.08      0.00
   -6    0   13      6.83      0.00
   -5    0   13     -2.32      0.00
   -4    0   13     -1.87      0.00
   -3    0   13      0.28      0.00
   -2    0   13     -1.07      0.00
   -1    0   13      3.75      0.00
    0    0   13     -0.48      0.00
    1    0   13     -0.91      0.00
    2    0   13     -3.76      0.00
    3    0   13      3.95      0.00
    4    0   13      0.31      0.00
    5    0   13      0.70      0.00
    6    0   13      0.02      0.00
    7    0   13     -0.13      0.00
    8    0   13      1.16      0.00
    9    0   13     -0.20      0.00
   -9    1   13     -1.07      0.00
   -8    1   13      5.33      0.00
   -7    1   13     -1.05      0.00
   -6    1   13      0.26      0.00
   -5    1   13     -5.94      0.00
   -4    1   13     -1.42      0.00
   -3    1   13     -1.32      0.00
   -2    1   13     -3.04      0.00
   -1    1   13     -5.88      0.00
    0    1   13     -3.91      0.00
    1    1   13      4.01      0.00
    2    1   13      4.65      0.00
    3    1   13      3.22      0.00
    4    1   13     -4.56      0.00
    5    1   13     -1.36      0.00
    6    1   13     -1.48      0.00
    7    1   13      0.81      0.00
    8    1   13     -0.36      0.00
    9    1   13      1.16      0.00
   10    1   13     -1.08      0.00
   -9    2   13     -5.45      0.00
   -8    2   13      1.27      0.00
   -7    2   13     -2.55      0.00
   -6    2   13     -1.74      0.00
   -5    2   13     -0.73      0.00
   -4    2   13     -2.44      0.00
   -3    2   13     -4.49      0.00
   -2    2   13     -1.54      0.00
   -1    2   13      2.66      0.00
    0    2   13      9.87      0.00
    1    2   13      4.23      0.00
    2    2   13     -1.70      0.00
    3    2   13     -4.04      0.00
    4    2   13     -2.92      0.00
    5    2   13      0.69      0.00
    6    2   13      0.26      0.00
    7    2   13      1.22      0.00
    8    2   13     -0.20      0.00
    9    2   13      0.41      0.00
   10    2   13     -2.80      0.00
   -9    3   13     -3.10      0.00
   -8    3   13     -1.69      0.00
   -7    3   13      5.90      0.00
   -6    3   13     -2.09      0.00
   -5    3   13      0.82      0.00
   -4    3   13     -2.92      0.00
   -3    3   13      3.68      0.00
   -2    3   13      6.42      0.00
   -1    3   13      1.84      0.00
    0    3   13      1.03      0.00
    1    3   13     -4.93      0.00
    2    3   13      0.37      0.00
    3    3   13      2.21      0.00
    4    3   13     -0.32      0.00
    5    3   13      0.24      0.00
    6    3   13     -1.06      0.00
    7    3   13     -0.82      0.00
    8    3   13     -0.22      0.00
    9    3   13     -0.73      0.00
   10    3   13     -0.78      0.00
   -9    4   13     -0.03      0.00
   -8    4   13     -1.87      0.00
   -7    4   13      5.06      0.00
   -6    4   13     -7.01      0.00
   -5    4   13      0.17      0.00
   -4    4   13      2.56      0.00
   -3    4   13     -0.93      0.00
   -2    4   13     -3.70      0.00
   -1    4   13     -6.96      0.00
    0    4   13      4.42      0.00
    1    4   13      0.17      0.00
    2    4   13      1.04      0.00
    3    4   13     -2.78      0.00
    4    4   13     -1.54      0.00
    5    4   13     -2.32      0.00
    6    4   13      1.03      0.00
    7    4   13     -0.95      0.00
    8    4   13      4.26      0.00
    9    4   13     -1.19      0.00
   10    4   13      0.41      0.00
   11    4   13      1.60      0.00
   -9    5   13     -2.61      0.00
   -8    5   13     -3.75      0.00
   -7    5   13      2.98      0.00
   -6    5   13      1.51      0.00
   -5    5   13      4.27      0.00
   -4    5   13      2.07      0.00
   -3    5   13     -6.83      0.00
   -2    5   13      3.37      0.00
   -1    5   13      2.28      0.00
    0    5   13      6.01      0.00
    1    5   13     -7.67      0.00
    2    5   13     -0.26      0.00
    3    5   13      1.52      0.00
    4    5   13      2.45      0.00
    5    5   13     -3.60      0.00
    6    5   13      6.52      0.00
    7    5   13     -3.03      0.00
    8    5   13      4.45      0.00
    9    5   13     -5.09      0.00
   10    5   13      0.39      0.00
   11    5   13     -0.52      0.00
   -8    6   13      3.43      0.00
   -7    6   13      3.31      0.00
   -6    6   13     -1.32      0.00
   -5    6   13     -0.35      0.00
   -4    6   13      0.28      0.00
   -3    6   13      1.68      0.00
   -2    6   13      7.28      0.00
   -1    6   13     -1.59      0.00
    0    6   13     -2.01      0.00
    1    6   13     -3.33      0.00
    2    6   13      6.59      0.00
    3    6   13     -0.22      0.00
    4    6   13     -2.55      0.00
    5    6   13     -1.11      0.00
    6    6   13      5.18      0.00
    7    6   13     -6.15      0.00
    8    6   13      2.53      0.00
    9    6   13     -2.66      0.00
   10    6   13      0.42      0.00
   11    6   13     -1.63      0.00
   -8    7   13     -0.12      0.00
   -7    7   13     -3.74      0.00
   -6    7   13     -0.63      0.00
   -5    7   13      5.98      0.00
   -4    7   13     -0.43      0.00
   -3    7   13     -3.36      0.00
   -2    7   13     -2.99      0.00
   -1    7   13     -4.36      0.00
    0    7   13      2.29      0.00
    1    7   13     -0.78      0.00
    2    7   13     -1.49      0.00
    3    7   13     -2.07      0.00
    4    7   13     -0.21      0.00
    5    7   13     -0.09      0.00
    6    7   13      0.18      0.00
    7    7   13     -2.32      0.00
    8    7   13      2.61      0.00
    9    7   13     -0.45      0.00
   10    7   13     -3.30      0.00
   11    7   13     -1.85      0.00
   -8    8   13      3.05      0.00
   -7    8   13     -0.38      0.00
   -6    8   13      0.03      0.00
   -5    8   13     -1.66      0.00
   -4    8   13     -7.46      0.00
   -3    8   13     -1.62      0.00
   -2    8   13      5.26      0.00
   -1    8   13      3.87      0.00
    0    8   13      3.98      0.00
    1    8   13     -6.89      0.00
    2    8   13      0.47      0.00
    3    8   13      5.34      0.00
    4    8   13     -1.11      0.00
    5    8   13     -0.14      0.00
    6    8   13      2.68      0.00
    7    8   13      0.06      0.00
    8    8   13     -0.08      0.00
    9    8   13     -2.51      0.00
   10    8   13     -2.76      0.00
   11    8   13     -0.90      0.00
   -7    9   13     -4.32      0.00
   -6    9   13     -2.90      0.00
   -5    9   13      1.00      0.00
   -4    9   13      3.67      0.00
   -3    9   13      5.09      0.00
   -2    9   13      2.98      0.00
   -1    9   13     -1.41      0.00
    0    9   13     -0.15      0.00
    1    9   13     -0.68      0.00
    2    9   13      6.33      0.00
    3    9   13      2.70      0.00
    4    9   13     -3.34      0.00
    5    9   13      1.52      0.00
    6    9   13     -1.78      0.00
    7    9   13     -0.66      0.00
    8    9   13     -0.19      0.00
    9    9   13     -0.46      0.00
   10    9   13      0.81      0.00
   11    9   13     -1.75      0.00
   -7   10   13     -2.05      0.00
   -6   10   13      2.84      0.00
   -5   10   13      3.48      0.00
   -4   10   13     -0.74      0.00
   -3   10   13     -3.73      0.00
   -2   10   13     -1.97      0.00
   -1   10   13      1.79      0.00
    0   10   13      3.68      0.00
    1   10   13      0.12      0.00
    2   10   13     -3.71      0.00
    3   10   13     -2.50      0.00
    4   10   13     -3.06      0.00
    5   10   13      1.56      0.00
    6   10   13     -1.34      0.00
    7   10   13      4.39      0.00
    8   10   13      0.71      0.00
    9   10   13      1.54      0.00
   10   10   13     -0.50      0.00
   -6   11   13     -0.16      0.00
   -5   11   13     -1.64      0.00
   -4   11   13     -4.41      0.00
   -3   11   13     -0.68      0.00
   -2   11   13     -0.07      0.00
   -1   11   13      0.73      0.00
    0   11   13     -6.27      0.00
    1   11   13     -4.24      0.00
    2   11   13     -2.75      0.00
    3   11   13      1.89      0.00
    4   11   13     -0.48      0.00
    5   11   13      2.60      0.00
    6   11   13     -0.41      0.00
    7   11   13     -1.45      0.00
    8   11   13      0.25      0.00
    9   11   13     -0.54      0.00
   10   11   13     -2.03      0.00
   -5   12   13      2.05      0.00
   -4   12   13     -1.36      0.00
   -3   12   13     -1.29      0.00
   -2   12   13     -2.01      0.00
   -1   12   13      0.83      0.00
    0   12   13     -0.87      0.00
    1   12   13      6.42      0.00
    2   12   13      0.33      0.00
    3   12   13      0.79      0.00
    4   12   13      0.60      0.00
    5   12   13      1.28      0.00
    6   12   13     -0.22      0.00
    7   12   13     -4.75      0.00
    8   12   13      6.72      0.00
    9   12   13     -1.43      0.00
   -4   13   13     -4.34      0.00
   -3   13   13     -0.53      0.00
   -2   13   13      2.77      0.00
   -1   13   13      4.15      0.00
    0   13   13     -2.64      0.00
    1   13   13     -2.77      0.00
    2   13   13     -4.43      0.00
    3   13   13     -0.10      0.00
    4   13   13     -0.80      0.00
    5   13   13     -2.42      0.00
    6   13   13     -1.42      0.00
    7   13   13     -2.26      0.00
    8   13   13      8.69      0.00
   -3   14   13      1.72      0.00
   -2   14   13     -0.86      0.00
   -1   14   13     -0.76      0.00
    0   14   13     -7.77      0.00
    1   14   13      2.96      0.00
    2   14   13      2.24      0.00
    3   14   13      2.41      0.00
    4   14   13      0.59      0.00
    5   14   13      2.34      0.00
    6   14   13      4.25      0.00
    7   14   13      5.47      0.00
   -1   15   13      0.39      0.00
    0   15   13     -1.25      0.00
    1   15   13      4.02      0.00
    2   15   13     -3.95      0.00
    3   15   13     -0.27      0.00
    4   15   13     -0.95      0.00
    5   15   13     -0.67      0.00
    6   15   13      0.64      0.00
   -3   -5   14      2.94      0.00
   -2   -5   14     -1.26      0.00
   -1   -5   14     -3.16      0.00
    0   -5   14     -1.64      0.00
    1   -5   14      0.08      0.00
    2   -5   14      1.11      0.00
   -4   -4   14     -2.29      0.00
   -3   -4   14     -4.17      0.00
   -2   -4   14     -3.98      0.00
   -1   -4   14     -2.27      0.00
    0   -4   14      0.41      0.00
    1   -4   14     -1.42      0.00
    2   -4   14     -0.68      0.00
    3   -4   14      0.24      0.00
    4   -4   14     -1.45      0.00
   -6   -3   14     -2.34      0.00
   -5   -3   14     -2.09      0.00
   -4   -3   14     -3.87      0.00
   -3   -3   14     -1.24      0.00
   -2   -3   14      4.77      0.00
   -1   -3   14     -1.27      0.00
    0   -3   14      2.10      0.00
    1   -3   14     -1.59      0.00
    2   -3   14      0.68      0.00
    3   -3   14      2.40      0.00
    4   -3   14      2.58      0.00
    5   -3   14      3.45      0.00
    6   -3   14      0.45      0.00
   -6   -2   14     -2.53      0.00
   -5   -2   14      4.92      0.00
   -4   -2   14      4.81      0.00
   -3   -2   14      0.14      0.00
   -2   -2   14      2.24      0.00
   -1   -2   14     -3.95      0.00
    0   -2   14      2.08      0.00
    1   -2   14     -1.30      0.00
    2   -2   14      3.09      0.00
    3   -2   14      2.19      0.00
    4   -2   14     -0.61      0.00
    5   -2   14      1.38      0.00
    6   -2   14     -4.04      0.00
    7   -2   14     -1.08      0.00
   -7   -1   14      1.08      0.00
   -6   -1   14     -0.28      0.00
   -5   -1   14      6.09      0.00
   -4   -1   14     -3.41      0.00
   -3   -1   14     -4.82      0.00
   -2   -1   14      1.32      0.00
   -1   -1   14      0.66      0.00
    0   -1   14     -0.08      0.00
    1   -1   14     -3.12      0.00
    2   -1   14     -1.27      0.00
    3   -1   14     -3.52      0.00
    4   -1   14     -1.31      0.00
    5   -1   14      3.07      0.00
    6   -1   14     -4.33      0.00
    7   -1   14      4.30      0.00
    8   -1   14      0.71      0.00
   -7    0   14     -1.30      0.00
   -6    0   14     -5.66      0.00
   -5    0   14     -0.42      0.00
   -4    0   14     -3.37      0.00
   -3    0   14      2.72      0.00
   -2    0   14     -0.86      0.00
   -1    0   14     -0.68      0.00
    0    0   14     -4.98      0.00
    1    0   14     -2.11      0.00
    2    0   14      2.24      0.00
    3    0   14      0.15      0.00
    4    0   14      1.62      0.00
    5    0   14      1.22      0.00
    6    0   14     -3.23      0.00
    7    0   14      3.19      0.00
    8    0   14     -2.52      0.00
   -8    1   14     -3.21      0.00
   -7    1   14      0.54      0.00
   -6    1   14     -0.58      0.00
   -5    1   14      4.10      0.00
   -4    1   14      3.81      0.00
   -3    1   14      3.12      0.00
   -2    1   14     -2.31      0.00
   -1    1   14      5.30      0.00
    0    1   14      2.06      0.00
    1    1   14      0.95      0.00
    2    1   14      1.73      0.00
    3    1   14     -5.02      0.00
    4    1   14      0.47      0.00
    5    1   14      1.03      0.00
    6    1   14     -0.52      0.00
    7    1   14      0.78      0.00
    8    1   14     -0.14      0.00
    9    1   14      0.63      0.00
   -8    2   14      1.65      0.00
   -7    2   14     -2.67      0.00
   -6    2   14      3.95      0.00
   -5    2   14     -2.11      0.00
   -4    2   14      0.48      0.00
   -3    2   14      1.53      0.00
   -2    2   14     -0.68      0.00
   -1    2   14      0.13      0.00
    0    2   14     -6.48      0.00
    1    2   14     -7.82      0.00
    2    2   14     -0.76      0.00
    3    2   14     -0.17      0.00
    4    2   14      5.30      0.00
    5    2   14      1.32      0.00
    6    2   14      1.36      0.00
    7    2   14      0.25      0.00
    8    2   14      0.00      0.00
    9    2   14     -0.04      0.00
   -8    3   14      2.31      0.00
   -7    3   14     -2.73      0.00
   -6    3   14      1.02      0.00
   -5    3   14     -4.75      0.00
   -4    3   14      2.11      0.00
   -3    3   14      0.83      0.00
   -2    3   14     -4.95      0.00
   -1    3   14     -3.53      0.00
    0    3   14     -0.62      0.00
    1    3   14      0.84      0.00
    2    3   14      4.01      0.00
    3    3   14      1.34      0.00
    4    3   14     -1.21      0.00
    5    3   14     -0.92      0.00
    6    3   14      1.84      0.00
    7    3   14     -2.85      0.00
    8    3   14     -0.16      0.00
    9    3   14      1.52      0.00
   10    3   14     -1.59      0.00
   -8    4   14     -1.70      0.00
   -7    4   14     -1.90      0.00
   -6    4   14      0.44      0.00
   -5    4   14      4.25      0.00
   -4    4   14      1.31      0.00
   -3    4   14     -1.60      0.00
   -2    4   14      0.80      0.00
   -1    4   14      3.31      0.00
    0    4   14      2.67      0.00
    1    4   14     -2.27      0.00
    2    4   14      0.40      0.00
    3    4   14     -0.54      0.00
    4    4   14      0.19      0.00
    5    4   14     -0.13      0.00
    6    4   14      2.06      0.00
    7    4   14     -3.51      0.00
    8    4   14      1.52      0.00
    9    4   14      0.16      0.00
   10    4   14     -1.93      0.00
   -8    5   14      2.92      0.00
   -7    5   14      1.59      0.00
   -6    5   14     -2.03      0.00
   -5    5   14     -4.54      0.00
   -4    5   14     -5.16      0.00
   -3    5   14      0.06      0.00
   -2    5   14      3.62      0.00
   -1    5   14     -2.90      0.00
    0    5   14     -1.10      0.00
    1    5   14     -1.42      0.00
    2    5   14      1.52      0.00
    3    5   14     -0.97      0.00
    4    5   14      0.41      0.00
    5    5   14     -1.52      0.00
    6    5   14      3.70      0.00
    7    5   14     -3.83      0.00
    8    5   14      0.86      0.00
    9    5   14      0.69      0.00
   10    5   14      0.59      0.00
   -7    6   14     -3.80      0.00
   -6    6   14     -3.22      0.00
   -5    6   14     -0.76      0.00
   -4    6   14      5.35      0.00
   -3    6   14     -0.04      0.00
   -2    6   14     -5.13      0.00
   -1    6   14     -2.05      0.00
    0    6   14      2.76      0.00
    1    6   14      1.07      0.00
    2    6   14     -1.57      0.00
    3    6   14      0.04      0.00
    4    6   14      0.88      0.00
    5    6   14      0.03      0.00
    6    6   14     -0.59      0.00
    7    6   14     -2.27      0.00
    8    6   14      2.15      0.00
    9    6   14      2.30      0.00
   10    6   14     -0.48      0.00
   -7    7   14      3.23      0.00
   -6    7   14      1.45      0.00
   -5    7   14     -0.76      0.00
   -4    7   14     -1.52      0.00
   -3    7   14     -2.82      0.00
   -2    7   14      0.54      0.00
   -1    7   14      7.13      0.00
    0    7   14      0.76      0.00
    1    7   14     -0.08      0.00
    2    7   14     -2.06      0.00
    3    7   14      2.20      0.00
    4    7   14      0.35      0.00
    5    7   14     -0.20      0.00
    6    7   14      0.91      0.00
    7    7   14      3.07      0.00
    8    7   14     -0.20      0.00
    9    7   14     -0.70      0.00
   10    7   14      0.94      0.00
   -7    8   14      0.54      0.00
   -6    8   14     -4.89      0.00
   -5    8   14     -0.61      0.00
   -4    8   14      2.88      0.00
   -3    8   14      5.21      0.00
   -2    8   14     -1.00      0.00
   -1    8   14     -3.23      0.00
    0    8   14     -3.20      0.00
    1    8   14     -0.40      0.00
    2    8   14      1.06      0.00
    3    8   14      0.67      0.00
    4    8   14     -0.44      0.00
    5    8   14      1.03      0.00
    6    8   14      1.11      0.00
    7    8   14     -3.30      0.00
    8    8   14     -0.72      0.00
    9    8   14      0.85      0.00
   10    8   14      4.84      0.00
   -6    9   14      1.19      0.00
   -5    9   14      5.87      0.00
   -3    9   14     -3.30      0.00
   -2    9   14     -4.07      0.00
   -1    9   14     -0.85      0.00
    0    9   14      3.30      0.00
    1    9   14      1.05      0.00
    2    9   14      0.82      0.00
    3    9   14     -5.83      0.00
    4    9   14     -0.31      0.00
    5    9   14      0.71      0.00
    6    9   14     -3.06      0.00
    7    9   14      0.04      0.00
    8    9   14      2.91      0.00
    9    9   14      0.01      0.00
   10    9   14      1.34      0.00
   -6   10   14      1.23      0.00
   -5   10   14     -3.38      0.00
   -4   10   14     -6.28      0.00
   -3   10   14     -0.33      0.00
   -2   10   14      3.90      0.00
   -1   10   14     -3.15      0.00
    0   10   14      0.43      0.00
    1   10   14     -1.82      0.00
    2   10   14     -0.67      0.00
    3   10   14     -1.24      0.00
    4   10   14      6.81      0.00
    5   10   14      0.33      0.00
    6   10   14      1.07      0.00
    7   10   14      3.05      0.00
    8   10   14     -2.75      0.00
    9   10   14      0.65      0.00
   -5   11   14     -1.30      0.00
   -4   11   14      3.45      0.00
   -3   11   14      4.83      0.00
   -2   11   14      1.67      0.00
   -1   11   14     -2.82      0.00
    0   11   14      5.87      0.00
    1   11   14      2.07      0.00
    2   11   14      3.58      0.00
    3   11   14     -0.31      0.00
    4   11   14      1.31      0.00
    5   11   14     -5.72      0.00
    6   11   14      2.53      0.00
    7   11   14     -2.53      0.00
    8   11   14     -0.44      0.00
    9   11   14      3.15      0.00
   -4   12   14     -0.06      0.00
   -3   12   14     -0.97      0.00
   -2   12   14      0.63      0.00
   -1   12   14      0.07      0.00
    0   12   14      1.19      0.00
    1   12   14     -1.29      0.00
    2   12   14     -2.25      0.00
    3   12   14     -4.16      0.00
    4   12   14      1.15      0.00
    5   12   14     -4.13      0.00
    6   12   14      3.73      0.00
    7   12   14     -1.21      0.00
    8   12   14      1.69      0.00
   -3   13   14      2.20      0.00
   -2   13   14      0.17      0.00
   -1   13   14     -4.23      0.00
    0   13   14     -0.63      0.00
    1   13   14      1.44      0.00
    2   13   14     -0.09      0.00
    3   13   14      1.26      0.00
    4   13   14      2.53      0.00
    5   13   14     -0.19      0.00
    6   13   14      5.04      0.00
    7   13   14      2.14      0.00
   -1   14   14      0.95      0.00
    0   14   14      3.07      0.00
    1   14   14      3.53      0.00
    2   14   14     -0.93      0.00
    3   14   14     -2.75      0.00
    4   14   14     -0.06      0.00
    5   14   14     -0.57      0.00
    6   14   14     -3.48      0.00
    2   15   14     -2.93      0.00
    3   15   14     -0.56      0.00
   -3   -3   15      0.91      0.00
   -2   -3   15      0.81      0.00
   -1   -3   15     -2.72      0.00
    0   -3   15     -2.12      0.00
    1   -3   15     -0.03      0.00
    2   -3   15      0.39      0.00
    3   -3   15     -0.93      0.00
   -4   -2   15      0.67      0.00
   -3   -2   15     -4.91      0.00
   -2   -2   15     -0.77      0.00
   -1   -2   15      0.53      0.00
    0   -2   15      3.06      0.00
    1   -2   15     -0.44      0.00
    2   -2   15      0.98      0.00
    3   -2   15     -2.31      0.00
    4   -2   15     -1.66      0.00
    5   -2   15     -1.68      0.00
   -5   -1   15     -3.91      0.00
   -4   -1   15     -1.34      0.00
   -3   -1   15      1.39      0.00
   -2   -1   15      2.10      0.00
   -1   -1   15      0.75      0.00
    0   -1   15      0.69      0.00
    1   -1   15      0.55      0.00
    2   -1   15      3.13      0.00
    3   -1   15      0.79      0.00
    4   -1   15      2.92      0.00
    5   -1   15      0.39      0.00
    6   -1   15      2.59      0.00
   -6    0   15      2.27      0.00
   -5    0   15      0.35      0.00
   -4    0   15      2.19      0.00
   -3    0   15      4.82      0.00
   -2    0   15     -2.31      0.00
   -1    0   15      1.62      0.00
    0    0   15      4.15      0.00
    1    0   15      2.20      0.00
    2    0   15      0.22      0.00
    3    0   15     -0.51      0.00
    4    0   15     -1.23      0.00
    5    0   15     -3.46      0.00
    6    0   15      2.60      0.00
    7    0   15     -2.97      0.00
   -6    1   15      2.33      0.00
   -5    1   15     -2.81      0.00
   -4    1   15     -1.97      0.00
   -3    1   15     -2.39      0.00
   -2    1   15     -2.66      0.00
   -1    1   15      0.50      0.00
    0    1   15     -0.02      0.00
    1    1   15     -3.28      0.00
    2    1   15     -1.56      0.00
    3    1   15      1.56      0.00
    4    1   15      0.82      0.00
    5    1   15      0.33      0.00
    6    1   15      3.04      0.00
    7    1   15     -1.85      0.00
   -6    2   15      4.13      0.00
   -5    2   15     -4.41      0.00
   -4    2   15      2.57      0.00
   -3    2   15     -0.12      0.00
   -2    2   15      4.32      0.00
   -1    2   15     -0.31      0.00
    0    2   15      5.51      0.00
    1    2   15      2.16      0.00
    2    2   15      2.53      0.00
    3    2   15      1.29      0.00
    4    2   15     -1.37      0.00
    5    2   15     -2.51      0.00
    6    2   15     -1.26      0.00
    7    2   15     -2.17      0.00
    8    2   15     -1.17      0.00
   -7    3   15     -2.07      0.00
   -6    3   15      4.87      0.00
   -5    3   15     -0.70      0.00
   -4    3   15      4.50      0.00
   -3    3   15     -2.01      0.00
   -2    3   15      2.14      0.00
   -1    3   15     -1.54      0.00
    0    3   15      4.82      0.00
    1    3   15     -3.00      0.00
    2    3   15     -1.12      0.00
    3    3   15      0.15      0.00
    4    3   15     -0.87      0.00
    5    3   15     -0.18      0.00
    6    3   15     -0.78      0.00
    7    3   15      0.36      0.00
    8    3   15      1.07      0.00
   -7    4   15      3.71      0.00
   -6    4   15      0.82      0.00
   -5    4   15     -2.30      0.00
   -4    4   15     -3.52      0.00
   -3    4   15     -0.45      0.00
   -2    4   15      0.92      0.00
   -1    4   15     -1.21      0.00
    0    4   15     -0.06      0.00
    1    4   15     -2.16      0.00
    2    4   15      0.01      0.00
    3    4   15      0.69      0.00
    4    4   15     -1.66      0.00
    5    4   15      2.04      0.00
    6    4   15     -0.83      0.00
    7    4   15      2.23      0.00
    8    4   15      0.70      0.00
    9    4   15     -0.45      0.00
   -6    5   15     -2.61      0.00
   -4    5   15      3.73      0.00
   -3    5   15      3.83      0.00
   -2    5   15     -2.91      0.00
   -1    5   15     -1.37      0.00
    0    5   15      1.91      0.00
    1    5   15      2.23      0.00
    2    5   15     -0.80      0.00
    3    5   15      2.92      0.00
    4    5   15      0.02      0.00
    5    5   15      0.99      0.00
    6    5   15     -2.44      0.00
    7    5   15      0.89      0.00
    8    5   15     -0.45      0.00
    9    5   15     -0.73      0.00
   -6    6   15      3.90      0.00
   -5    6   15      2.75      0.00
   -4    6   15      0.37      0.00
   -3    6   15     -3.75      0.00
   -2    6   15     -0.19      0.00
   -1    6   15      2.87      0.00
    0    6   15      0.01      0.00
    1    6   15     -1.99      0.00
    2    6   15     -2.63      0.00
    3    6   15      2.29      0.00
    4    6   15     -4.48      0.00
    5    6   15     -1.51      0.00
    6    6   15      0.85      0.00
    7    6   15      1.38      0.00
    8    6   15     -0.33      0.00
    9    6   15     -1.18      0.00
   -6    7   15     -2.57      0.00
   -5    7   15     -2.38      0.00
   -4    7   15     -1.60      0.00
   -3    7   15      0.06      0.00
   -2    7   15      3.31      0.00
   -1    7   15     -2.19      0.00
    0    7   15     -2.73      0.00
    1    7   15      2.75      0.00
    2    7   15      0.19      0.00
    3    7   15      1.14      0.00
    4    7   15     -2.66      0.00
    5    7   15      1.39      0.00
    6    7   15      0.57      0.00
    7    7   15     -2.56      0.00
    8    7   15     -1.74      0.00
    9    7   15     -0.18      0.00
   -6    8   15      1.09      0.00
   -5    8   15      6.62      0.00
   -4    8   15     -0.34      0.00
   -3    8   15     -1.51      0.00
   -2    8   15     -0.93      0.00
   -1    8   15     -2.51      0.00
    0    8   15      2.61      0.00
    1    8   15      1.42      0.00
    2    8   15     -4.40      0.00
    3    8   15      1.42      0.00
    4    8   15     -1.67      0.00
    5    8   15     -1.13      0.00
    6    8   15      0.54      0.00
    7    8   15     -0.53      0.00
    8    8   15      3.04      0.00
    9    8   15      1.20      0.00
   -5    9   15     -0.23      0.00
   -4    9   15     -6.36      0.00
   -3    9   15     -1.88      0.00
   -2    9   15      3.52      0.00
   -1    9   15      2.05      0.00
    0    9   15      1.74      0.00
    1    9   15     -1.38      0.00
    2    9   15     -1.25      0.00
    3    9   15      3.90      0.00
    4    9   15     -2.72      0.00
    5    9   15      0.75      0.00
    6    9   15      2.38      0.00
    7    9   15     -1.26      0.00
    8    9   15      0.44      0.00
    9    9   15     -2.76      0.00
   -4   10   15      3.39      0.00
   -3   10   15      2.26      0.00
   -2   10   15      2.57      0.00
   -1   10   15     -1.60      0.00
    0   10   15     -1.35      0.00
    1   10   15      0.54      0.00
    2   10   15     -1.51      0.00
    3   10   15      2.30      0.00
    4   10   15     -2.07      0.00
    5   10   15     -0.79      0.00
    6   10   15      0.07      0.00
    7   10   15     -3.27      0.00
    8   10   15     -0.30      0.00
   -4   11   15      1.73      0.00
   -3   11   15     -5.42      0.00
   -2   11   15     -1.18      0.00
   -1   11   15      0.43      0.00
    0   11   15     -0.08      0.00
    1   11   15      0.12      0.00
    2   11   15     -2.26      0.00
    3   11   15      2.01      0.00
    4   11   15     -2.27      0.00
    5   11   15     -0.61      0.00
    6   11   15      3.06      0.00
    7   11   15     -2.36      0.00
    8   11   15      1.59      0.00
   -3   12   15     -3.01      0.00
   -2   12   15      2.78      0.00
   -1   12   15      1.33      0.00
    0   12   15     -3.87      0.00
    1   12   15      0.41      0.00
    2   12   15      0.23      0.00
    3   12   15      1.54      0.00
    4   12   15      0.44      0.00
    5   12   15      2.44      0.00
    6   12   15      1.29      0.00
    7   12   15     -2.59      0.00
   -1   13   15      0.04      0.00
    0   13   15      0.33      0.00
    1   13   15      3.33      0.00
    2   13   15      1.15      0.00
    3   13   15      0.22      0.00
    4   13   15     -0.24      0.00
    5   13   15     -0.70      0.00
    6   13   15     -2.38      0.00
    1   14   15     -2.38      0.00
    2   14   15      0.43      0.00
    3   14   15     -1.78      0.00
    4   14   15     -0.65      0.00
    0   -2   16     -0.34      0.00
   -3   -1   16      1.82      0.00
   -2   -1   16     -0.62      0.00
   -1   -1   16     -1.99      0.00
    0   -1   16     -2.00      0.00
    1   -1   16     -3.57      0.00
    2   -1   16     -0.50      0.00
    3   -1   16     -3.59      0.00
   -4    0   16     -2.92      0.00
   -3    0   16     -2.15      0.00
   -2    0   16     -2.36      0.00
   -1    0   16     -1.80      0.00
    0    0   16      0.24      0.00
    1    0   16     -1.92      0.00
    2    0   16      0.41      0.00
    3    0   16     -0.81      0.00
    4    0   16      1.76      0.00
    5    0   16     -0.42      0.00
   -4    1   16     -0.04      0.00
   -3    1   16      2.70      0.00
   -2    1   16      0.61      0.00
   -1    1   16     -0.05      0.00
    0    1   16     -0.02      0.00
    1    1   16     -1.15      0.00
    2    1   16      0.71      0.00
    3    1   16      0.45      0.00
    4    1   16     -1.08      0.00
    5    1   16      0.24      0.00
    6    1   16     -0.88      0.00
   -5    2   16     -1.63      0.00
   -4    2   16      0.91      0.00
   -3    2   16     -0.41      0.00
   -2    2   16     -4.03      0.00
   -1    2   16     -2.35      0.00
    0    2   16     -1.44      0.00
    1    2   16     -0.32      0.00
    2    2   16     -0.03      0.00
    3    2   16     -0.01      0.00
    4    2   16     -1.06      0.00
    5    2   16      1.05      0.00
    6    2   16      0.98      0.00
   -5    3   16     -3.37      0.00
   -4    3   16     -1.56      0.00
   -3    3   16     -0.05      0.00
   -2    3   16     -2.05      0.00
   -1    3   16      0.52      0.00
    0    3   16      1.17      0.00
    1    3   16     -0.66      0.00
    2    3   16      0.23      0.00
    3    3   16     -0.25      0.00
    4    3   16     -1.15      0.00
    5    3   16      0.17      0.00
    6    3   16      2.82      0.00
    7    3   16      0.74      0.00
   -5    4   16     -0.37      0.00
   -4    4   16      1.85      0.00
   -3    4   16      1.93      0.00
   -2    4   16     -1.97      0.00
   -1    4   16      0.66      0.00
    0    4   16      1.63      0.00
    1    4   16     -0.25      0.00
    2    4   16      0.92      0.00
    3    4   16     -0.11      0.00
    4    4   16     -0.48      0.00
    5    4   16      0.30      0.00
    6    4   16      0.57      0.00
    7    4   16     -1.97      0.00
   -5    5   16      4.39      0.00
   -4    5   16     -0.88      0.00
   -3    5   16     -1.42      0.00
   -2    5   16      1.17      0.00
   -1    5   16      1.41      0.00
    0    5   16      1.13      0.00
    1    5   16     -0.47      0.00
    2    5   16     -0.76      0.00
    3    5   16      1.10      0.00
    4    5   16     -0.13      0.00
    5    5   16     -1.08      0.00
    6    5   16      1.25      0.00
    7    5   16      0.04      0.00
    8    5   16     -0.12      0.00
   -5    6   16     -1.96      0.00
   -4    6   16     -4.60      0.00
   -3    6   16     -0.41      0.00
   -2    6   16      1.86      0.00
   -1    6   16     -3.07      0.00
    0    6   16      0.21      0.00
    1    6   16      0.13      0.00
    2    6   16      0.31      0.00
    3    6   16      1.14      0.00
    4    6   16     -0.11      0.00
    5    6   16      0.62      0.00
    6    6   16      3.16      0.00
    7    6   16     -2.54      0.00
    8    6   16      0.10      0.00
   -5    7   16      2.73      0.00
   -4    7   16      5.04      0.00
   -3    7   16      2.25      0.00
   -2    7   16      0.39      0.00
   -1    7   16     -0.74      0.00
    0    7   16      1.74      0.00
    1    7   16     -0.32      0.00
    2    7   16      1.40      0.00
    3    7   16      1.35      0.00
    4    7   16      2.86      0.00
    5    7   16      1.23      0.00
    6    7   16      0.13      0.00
    7    7   16     -1.12      0.00
    8    7   16      2.25      0.00
   -4    8   16     -3.07      0.00
   -3    8   16     -3.21      0.00
   -2    8   16      0.34      0.00
   -1    8   16      0.38      0.00
    0    8   16     -0.29      0.00
    1    8   16     -0.88      0.00
    2    8   16      2.98      0.00
    3    8   16      0.50      0.00
    4    8   16     -1.01      0.00
    5    8   16     -2.51      0.00
    6    8   16      0.36      0.00
    7    8   16     -0.36      0.00
    8    8   16     -1.63      0.00
   -4    9   16      3.00      0.00
   -3    9   16      3.31      0.00
   -2    9   16      1.63      0.00
   -1    9   16     -1.88      0.00
    0    9   16     -1.55      0.00
    1    9   16     -0.62      0.00
    2    9   16      3.90      0.00
    3    9   16      0.15      0.00
    4    9   16     -0.79      0.00
    5    9   16      3.76      0.00
    6    9   16      1.55      0.00
    7    9   16     -1.23      0.00
   -3   10   16     -2.84      0.00
   -2   10   16     -0.47      0.00
   -1   10   16     -1.55      0.00
    0   10   16     -0.05      0.00
    1   10   16      2.01      0.00
    2   10   16      2.57      0.00
    3   10   16     -2.05      0.00
    4   10   16     -1.51      0.00
    5   10   16      1.14      0.00
    6   10   16     -4.14      0.00
    7   10   16      2.47      0.00
   -2   11   16      2.29      0.00
   -1   11   16     -3.22      0.00
    0   11   16     -0.19      0.00
    1   11   16      0.33      0.00
    2   11   16      0.21      0.00
    3   11   16     -0.19      0.00
    4   11   16      0.65      0.00
    5   11   16      1.58      0.00
    6   11   16     -0.42      0.00
   -1   12   16     -1.81      0.00
    0   12   16      1.86      0.00
    1   12   16      0.42      0.00
    2   12   16      1.86      0.00
    3   12   16     -1.18      0.00
    4   12   16     -1.28      0.00
    5   12   16     -0.58      0.00
   -1    1   17      0.68      0.00
    0    1   17      0.37      0.00
    1    1   17      0.06      0.00
    2    1   17      0.73      0.00
   -2    2   17     -0.07      0.00
   -1    2   17      3.32      0.00
    0    2   17     -1.11      0.00
    1    2   17      1.16      0.00
    2    2   17     -0.92      0.00
    3    2   17     -0.73      0.00
    4    2   17      0.90      0.00
   -3    3   17      1.65      0.00
   -2    3   17      0.52      0.00
   -1    3   17      0.63      0.00
    0    3   17     -0.98      0.00
    1    3   17     -0.20      0.00
    2    3   17     -1.23      0.00
    3    3   17      0.68      0.00
    4    3   17      1.87      0.00
    5    3   17     -1.27      0.00
   -3    4   17     -0.91      0.00
   -2    4   17      0.85      0.00
   -1    4   17     -1.34      0.00
    0    4   17     -1.57      0.00
    1    4   17     -1.92      0.00
    2    4   17      0.77      0.00
    3    4   17      1.07      0.00
    4    4   17      1.15      0.00
    5    4   17     -0.63      0.00
   -3    5   17     -1.46      0.00
   -2    5   17      0.69      0.00
   -1    5   17     -2.51      0.00
    0    5   17     -1.90      0.00
    1    5   17      0.30      0.00
    2    5   17     -1.24      0.00
    3    5   17     -0.77      0.00
    4    5   17     -1.80      0.00
    5    5   17     -0.25      0.00
   -3    6   17      2.85      0.00
   -2    6   17     -0.44      0.00
   -1    6   17      0.64      0.00
    0    6   17      0.08      0.00
    1    6   17      0.66      0.00
    2    6   17     -1.24      0.00
    3    6   17      1.93      0.00
    4    6   17     -0.21      0.00
    5    6   17      0.54      0.00
    6    6   17     -1.01      0.00
   -3    7   17     -4.91      0.00
   -2    7   17     -1.23      0.00
   -1    7   17      1.27      0.00
    0    7   17     -2.26      0.00
    1    7   17     -1.74      0.00
    2    7   17     -1.42      0.00
    3    7   17     -1.99      0.00
    4    7   17     -3.11      0.00
    5    7   17     -2.38      0.00
    6    7   17     -0.57      0.00
   -2    8   17      4.21      0.00
   -1    8   17     -0.33      0.00
    0    8   17      0.34      0.00
    1    8   17      0.32      0.00
    2    8   17     -0.94      0.00
    3    8   17     -1.43      0.00
    4    8   17      1.66      0.00
    5    8   17      1.31      0.00
    6    8   17      2.18      0.00
   -2    9   17     -1.02      0.00
   -1    9   17     -1.38      0.00
    0    9   17      0.64      0.00
    1    9   17     -2.76      0.00
    2    9   17     -3.70      0.00
    3    9   17     -0.93      0.00
    4    9   17      0.26      0.00
    5    9   17     -1.63      0.00
   -1   10   17      1.58      0.00
    0   10   17     -0.23      0.00
    1   10   17     -0.26      0.00
    2   10   17     -1.18      0.00
    3   10   17      1.30      0.00
    4   10   17      0.94      0.00
    5   10   17      0.79      0.00
    1   11   17     -0.85      0.00
    2   11   17     -2.81      0.00
    3   11   17      0.46      0.00
   -1    1    0    -94.51      0.00
    0    1    0    141.39      0.00
   15    2    0      0.03      0.00
   15    3    0     -2.32      0.00
   15    4    0     -2.28      0.00
  -13    6    0     -0.32      0.00
   11   13    0     -4.03      0.00
   -4   15    0     -0.42      0.00
   -1   16    0      4.69      0.00
   -4  -16    1     -4.15      0.00
   -3  -16    1      2.09      0.00
   -1  -16    1      5.01      0.00
    8  -12    1     -2.30      0.00
    0   -1    1     43.23      0.00
   -1    0    1    -68.85      0.00
    0    0    1   -115.44      0.00
   15    1    1      1.34      0.00
   15    2    1      0.71      0.00
   15    4    1      1.39      0.00
  -13    6    1     -2.55      0.00
   -2   16    1      1.74      0.00
    2  -15    2     -0.94      0.00
  -11  -12    2      0.80      0.00
   14   -3    2      2.13      0.00
   15    2    2     -2.08      0.00
   15    4    2     -2.47      0.00
   15    5    2     -2.42      0.00
  -13    6    2     -3.90      0.00
  -12    8    2      1.60      0.00
   14    9    2      3.37      0.00
   13   11    2     -1.75      0.00
   -5   15    2     -1.30      0.00
    1   17    2      2.29      0.00
    2   17    2     -2.36      0.00
    3   17    2      1.06      0.00
    4   17    2     -1.73      0.00
   -4  -15    3      0.17      0.00
    0  -15    3      1.45      0.00
   -9  -13    3     -2.38      0.00
    7  -12    3     -0.07      0.00
  -12  -10    3      0.38      0.00
   13   -5    3      0.78      0.00
   15    2    3      3.13      0.00
  -14    3    3     -1.70      0.00
   15    3    3      5.42      0.00
   15    4    3      4.23      0.00
   15    5    3      4.74      0.00
  -13    6    3     -1.05      0.00
  -12    6    3      3.49      0.00
  -12    8    3      3.45      0.00
   -9   12    3      1.02      0.00
    8   16    3      0.31      0.00
    0   17    3     -1.38      0.00
    5   17    3      2.04      0.00
   -6  -14    4      2.00      0.00
  -14   -4    4      0.87      0.00
   14   -2    4      0.21      0.00
  -14    2    4      1.62      0.00
   15    3    4     -2.80      0.00
   15    4    4      0.82      0.00
   -9   12    4      1.62      0.00
   -8   13    4      0.74      0.00
   12   13    4     -4.63      0.00
   11   14    4     -5.31      0.00
    6   17    4     -2.45      0.00
   -3  -14    5     -5.08      0.00
    0  -14    5      1.07      0.00
   -7  -13    5     -0.59      0.00
    7  -11    5      0.80      0.00
   11   -7    5      0.47      0.00
  -14   -2    5      0.71      0.00
  -14   -1    5      4.09      0.00
   14   -1    5     -1.35      0.00
  -14    0    5      2.86      0.00
  -13    5    5      3.30      0.00
   -9   12    5      1.58      0.00
   -8   13    5     -1.87      0.00
   12   13    5     -1.40      0.00
   10   15    5     -1.30      0.00
   -1   17    5     -0.90      0.00
    6   17    5      0.45      0.00
   -5  -13    6      3.16      0.00
    2  -13    6      4.04      0.00
   -9  -11    6     -2.76      0.00
  -10  -10    6     -0.08      0.00
  -13   -5    6      1.56      0.00
   12   -5    6     -2.42      0.00
   13   -3    6     -0.04      0.00
   14    0    6      0.66      0.00
  -12    7    6      2.34      0.00
   -4    7    6     -1.51      0.00
  -11    9    6     -2.36      0.00
   14    9    6     -4.46      0.00
   -8   10    6      8.27      0.00
   12   13    6      0.52      0.00
   10   15    6      1.30      0.00
   -1   17    6      0.57      0.00
    3  -12    7      2.44      0.00
    5  -11    7      1.12      0.00
   -9  -10    7      1.95      0.00
  -10   -9    7      1.52      0.00
    8   -9    7     -0.50      0.00
    9   -8    7      1.62      0.00
   10   -7    7     -0.46      0.00
  -12   -6    7     -1.55      0.00
   12   -4    7     -0.80      0.00
  -13   -3    7      0.19      0.00
   13   -2    7     -1.71      0.00
   14    1    7      1.45      0.00
  -13    3    7      8.17      0.00
   14    8    7      2.53      0.00
   -5    9    7     -5.72      0.00
   13   11    7     -0.88      0.00
   -4   12    7     -5.18      0.00
   -4   13    7     -6.67      0.00
   11   14    7      2.98      0.00
   10   15    7     -2.26      0.00
   -1   17    7      2.12      0.00
   -2  -12    8      3.16      0.00
   -1  -12    8     -4.88      0.00
    0  -12    8     -1.27      0.00
   -6  -11    8      2.12      0.00
   -9   -9    8     -0.39      0.00
    7   -9    8      1.04      0.00
  -10   -8    8     -3.82      0.00
   13   -1    8      2.60      0.00
   14    3    8     -2.05      0.00
   14    7    8     -2.11      0.00
  -11    8    8     -0.13      0.00
   -6    8    8      0.60      0.00
   -5    8    8      0.33      0.00
   -9    9    8      4.28      0.00
   -6    9    8     -3.05      0.00
   -5   10    8      4.67      0.00
   -6   11    8     -2.25      0.00
   -4   12    8     -3.60      0.00
   -6   13    8      2.61      0.00
   -5   13    8      2.07      0.00
   -4   13    8     -2.57      0.00
   -6   14    8      3.41      0.00
   -5   15    8     -2.47      0.00
    6   17    8      3.23      0.00
   -3  -11    9     -0.53      0.00
    1  -11    9     -1.51      0.00
    4  -10    9     -0.42      0.00
    6   -9    9     -0.67      0.00
   -9   -8    9      2.98      0.00
  -11   -5    9      1.60      0.00
  -12   -2    9      2.47      0.00
   12   -2    9     -2.26      0.00
  -12    4    9     -0.11      0.00
  -11    7    9     -2.12      0.00
   -7    8    9     -1.99      0.00
   -6    8    9     -7.96      0.00
   -9   10    9      1.24      0.00
   13   10    9     -3.62      0.00
   -8   12    9      0.23      0.00
   -5   12    9     -3.79      0.00
   -4   12    9      4.20      0.00
   12   12    9     -4.35      0.00
   -7   13    9     -0.15      0.00
   -6   14    9      1.34      0.00
    8   16    9     -0.18      0.00
    0   17    9     -1.32      0.00
    6   -8   10     -0.72      0.00
  -11   -3   10     -0.42      0.00
  -11    6   10      7.15      0.00
   -9    7   10      4.09      0.00
   -8    7   10     -1.31      0.00
   -8    8   10     -1.59      0.00
    0    9   10     -0.64      0.00
   -9   10   10      0.57      0.00
   -5   11   10     -2.04      0.00
   -6   12   10      0.73      0.00
   -5   12   10     -2.64      0.00
   11   13   10      0.99      0.00
   -4   15   10     -1.54      0.00
    9   15   10     -2.11      0.00
    1   17   10      3.80      0.00
    2   17   10     -1.93      0.00
    4   17   10      0.86      0.00
   -6   -8   11      8.36      0.00
    6   -7   11     -1.64      0.00
   -9   -5   11     -4.03      0.00
   10   -3   11     -1.23      0.00
  -11    1   11      1.07      0.00
   12    1   11     -0.47      0.00
  -11    2   11      1.72      0.00
  -11    3   11     -1.49      0.00
   -5    6   11      3.23      0.00
  -10    7   11      3.28      0.00
   -7   11   11      2.13      0.00
   -6   11   11     -2.58      0.00
   -7   12   11     -0.45      0.00
   -6   13   11      0.68      0.00
   -5   14   11      1.32      0.00
   -3   15   11      0.99      0.00
   -3   -8   12     -0.05      0.00
    1   -8   12      5.73      0.00
    6   -6   12     -0.79      0.00
   -9   -3   12     -0.56      0.00
    9   -3   12      0.54      0.00
  -10    0   12     -1.55      0.00
   12    4   12     -0.59      0.00
  -10    5   12      1.99      0.00
   -9    7   12     -6.87      0.00
   11    7   12     -0.64      0.00
   -9    8   12     -4.71      0.00
   12    8   12      1.34      0.00
   -6   10   12     -1.80      0.00
   -7   11   12      0.49      0.00
   10   13   12     -6.11      0.00
    9   14   12     -1.13      0.00
    0   16   12      0.34      0.00
   -1   -7   13      0.53      0.00
    0   -7   13     -3.42      0.00
    4   -6   13      1.23      0.00
   -6   -5   13     -2.81      0.00
   -7   -4   13     -1.07      0.00
   -9    0   13      1.97      0.00
   10    0   13      0.65      0.00
   11    3   13      3.26      0.00
    9   13   13     -2.18      0.00
    8   14   13      4.06      0.00
    3   -5   14      4.53      0.00
   -5   -4   14      1.89      0.00
    5   -4   14      1.90      0.00
   -7   -2   14     -2.47      0.00
   -8    6   14     -0.38      0.00
   -4    9   14     -0.28      0.00
   10   10   14      0.67      0.00
    9   12   14     -1.34      0.00
    8   13   14     -2.09      0.00
   -2   14   14     -2.68      0.00
    1   15   14      1.54      0.00
    4   15   14      3.83      0.00
   -1   -4   15      5.56      0.00
    0   -4   15      0.38      0.00
    1   -4   15      0.70      0.00
   -4   -3   15      5.10      0.00
    4   -3   15      1.99      0.00
   -5   -2   15     -1.74      0.00
    8    1   15      1.42      0.00
   -7    2   15     -1.81      0.00
    9    3   15      1.68      0.00
   -7    5   15      1.60      0.00
   -5    5   15      2.11      0.00
   -5   10   15      1.74      0.00
    9   10   15     -0.29      0.00
   -2   13   15      1.72      0.00
   -1   -2   16      0.97      0.00
    1   -2   16     -1.50      0.00
    2   -2   16      0.47      0.00
    4   -1   16      2.17      0.00
   -5    1   16     -1.78      0.00
    7    2   16      1.18      0.00
    8    4   16     -2.30      0.00
    8    9   16      0.50      0.00
    7   11   16      3.86      0.00
    6   12   16     -2.53      0.00
    1   13   16     -0.68      0.00
    2   13   16     -1.09      0.00
    3   13   16     -1.90      0.00
    4   13   16      0.50      0.00
   -2    1   17     -1.17      0.00
    3    1   17      0.06      0.00
   -3    2   17      1.08      0.00
    6    4   17     -0.57      0.00
    6    5   17     -0.50      0.00
   -3    8   17     -0.08      0.00
    6    9   17     -1.53      0.00
    0   11   17      0.86      0.00
    4   11   17     -0.05      0.00
    0    0    0      0.00      0.00
# SQUEEZE RESULTS (Version = 230916)
# Note: Data are Listed for all Voids in the P1 Unit Cell
# i.e. Centre of Gravity, Solvent Accessible Volume,
# Recovered number of Electrons in the Void and
# Details about the Squeezed Material
loop_
  _platon_squeeze_void_nr
  _platon_squeeze_void_average_x
  _platon_squeeze_void_average_y
  _platon_squeeze_void_average_z
  _platon_squeeze_void_volume
  _platon_squeeze_void_count_electrons
  _platon_squeeze_void_content
   1 -0.110 -0.021  0.433       886       382 ' '
# Missing Reflections Below sin(th)/lambda = 0.25
loop_
  _platon_missing_refln_index_h
  _platon_missing_refln_index_k
  _platon_missing_refln_index_l
  _platon_missing_refln_theta
   -1    1    0     2.509
    0    1    0     1.573
    0   -1    1     2.525
   -1    0    1     2.336
    0    0    1     1.511
_platon_squeeze_void_probe_radius                  1.20
_platon_squeeze_details
)
TITL T         P -1         R = 0.22
CELL   12.0140   13.9900   14.4030     69.48     84.34     79.64
SPGR P-1
# Solvent Accessible Volume =       885
# Electrons Found in S.A.V. =       382
# Note: Atoms in Void as Cxxx and Qxxx all others
C101 0.220 0.378 0.333 !      11.99 eA-3
C102 1.000 0.485 0.277 !       7.19 eA-3
C103 0.058 0.326 0.483 !       6.82 eA-3
Q104 0.158 0.369 0.256 !       6.10 eA-3
C105 0.500 0.097 0.190 !       4.21 eA-3
Q106 0.093 0.176 0.111 !       4.20 eA-3
C107 0.077 0.360 0.365 !       4.15 eA-3
C108 0.511 0.031 0.058 !       3.88 eA-3
C109 0.549 0.796 0.048 !       3.85 eA-3
C110 0.420 0.088 0.016 !       3.75 eA-3
C111 0.537 0.028 0.162 !       3.48 eA-3
Q112 1.000 1.000 0.000 !       3.39 eA-3
C113 0.377 0.917 0.466 !       3.23 eA-3
C114 0.920 0.854 0.489 !       3.20 eA-3
Q115 0.126 0.196 0.155 !       2.97 eA-3
C116 0.436 0.026 0.003 !       2.84 eA-3
C117 0.787 0.951 0.490 !       2.75 eA-3
C118 0.530 0.174 0.230 !       2.65 eA-3
Q119 0.687 0.609 0.086 !       2.61 eA-3
Q120 0.472 0.761 0.168 !       2.37 eA-3
C121 0.859 1.000 0.378 !       2.10 eA-3
Q122 0.905 0.297 0.121 !       2.09 eA-3
C123 0.730 0.016 0.407 !       2.08 eA-3
C124 0.474 0.171 0.316 !       2.07 eA-3
C125 0.248 0.066 0.433 !       2.05 eA-3
C126 0.295 1.004 0.419 !       1.99 eA-3
C127 0.139 0.455 0.332 !       1.98 eA-3
C128 0.539 0.975 0.300 !       1.97 eA-3
Q129 0.019 0.169 0.116 !       1.95 eA-3
C130 0.423 0.952 0.403 !       1.90 eA-3
C131 0.866 0.943 0.455 !       1.86 eA-3
Q132 0.309 0.276 0.154 !       1.80 eA-3
C133 0.547 0.128 0.302 !       1.78 eA-3
C134 0.406 0.117 0.377 !       1.77 eA-3
C135 0.640 0.036 0.392 !       1.76 eA-3
C136 0.717 0.046 0.337 !       1.76 eA-3
C137 0.969 0.937 0.473 !       1.74 eA-3
C138 0.873 0.979 0.463 !       1.72 eA-3
Q139 0.372 0.731 0.314 !       1.70 eA-3
Q140 0.406 0.557 0.053 !       1.69 eA-3
Q141 0.079 0.017 0.011 !       1.64 eA-3
C142 0.607 0.080 0.285 !       1.64 eA-3
Q143 0.221 0.652 0.130 !       1.62 eA-3
C144 0.266 0.211 0.407 !       1.60 eA-3
C145 0.607 0.074 0.415 !       1.59 eA-3
Q146 0.107 0.212 0.015 !       1.57 eA-3
C147 0.158 0.067 0.439 !       1.56 eA-3
Q148 0.975 0.244 0.137 !       1.56 eA-3
C149 0.498 0.123 0.384 !       1.56 eA-3
C150 0.251 0.257 0.393 !       1.56 eA-3
Q151 0.701 0.766 0.358 !       1.54 eA-3
Q152 0.764 0.282 0.369 !       1.54 eA-3
Q153 0.908 0.074-0.002 !       1.53 eA-3
C154 0.066 0.433 0.275 !       1.53 eA-3
C155 0.121 0.258 0.431 !       1.52 eA-3
Q156 0.404 0.232 0.280 !       1.52 eA-3
C157 0.983 1.001 0.460 !       1.50 eA-3
Q158 0.329 0.582 0.411 !       1.46 eA-3
C159 0.436 0.025 0.378 !       1.45 eA-3
C160 0.330 0.092 0.403 !       1.44 eA-3
C161 0.405 0.061 0.363 !       1.43 eA-3
Q162 0.082 0.533 0.213 !       1.43 eA-3
C163 0.471 0.037 0.284 !       1.42 eA-3
C164 0.470 0.972 0.334 !       1.40 eA-3
Q165 0.983 0.824 0.028 !       1.39 eA-3
Q166 0.194 0.160 0.092 !       1.38 eA-3
C167 0.122 0.455 0.271 !       1.38 eA-3
Q168 0.484 0.421 0.375 !       1.38 eA-3
C169 0.175 0.995 0.480 !       1.37 eA-3
Q170 0.752 0.594 0.293 !       1.37 eA-3
C171 0.387 0.036 0.418 !       1.36 eA-3
C172 0.513 0.970 0.407 !       1.36 eA-3
Q173 0.189 0.972 0.205 !       1.35 eA-3
C174 0.478 0.904 0.489 !       1.35 eA-3
Q175 0.312 0.529 0.484 !       1.35 eA-3
C176 0.279 0.072 0.379 !       1.34 eA-3
Q177 0.823 0.103 0.009 !       1.33 eA-3
C178 0.999 0.977 0.406 !       1.33 eA-3
Q179 0.144 0.706 0.348 !       1.31 eA-3
C180 0.528 0.932 0.405 !       1.30 eA-3
Q181 0.204 0.894 0.229 !       1.29 eA-3
Q182 0.331 0.688 0.343 !       1.29 eA-3
C183 0.952 0.947 0.415 !       1.29 eA-3
Q184 0.377 0.326 0.238 !       1.29 eA-3
Q185 0.610 0.874 0.129 !       1.27 eA-3
Q186 0.125 0.198 0.279 !       1.26 eA-3
C187 0.532 0.073 0.339 !       1.26 eA-3
C188 0.652 0.949 0.479 !       1.25 eA-3
Q189 0.283 0.543 0.172 !       1.25 eA-3
C190 0.406 0.949 0.017 !       1.24 eA-3
C191 0.424 0.984 0.066 !       1.24 eA-3
Q192 0.268 0.237 0.319 !       1.24 eA-3
Q193 0.862 0.497 0.384 !       1.23 eA-3
C194 0.253 0.145 0.402 !       1.23 eA-3
C195 0.343 0.090 0.466 !       1.23 eA-3
Q196 0.247 0.294 0.114 !       1.22 eA-3
Q197 0.638 0.167 0.093 !       1.22 eA-3
C198 0.219 1.013 0.424 !       1.22 eA-3
Q199 0.201 0.052 0.200 !       1.21 eA-3
)
;
_shelx_fab_checksum              98310
loop_
_space_group_symop_operation_xyz
'x, y, z'
'-x, -y, -z'
loop_
_atom_site_label
_atom_site_type_symbol
_atom_site_fract_x
_atom_site_fract_y
_atom_site_fract_z
_atom_site_U_iso_or_equiv
_atom_site_adp_type
_atom_site_occupancy
_atom_site_site_symmetry_order
_atom_site_calc_flag
_atom_site_refinement_flags_posn
_atom_site_refinement_flags_adp
_atom_site_refinement_flags_occupancy
Cd1 Cd 0.07966(7) 1.19036(5) 0.12266(6) 0.0510(3) Uani 0.75 1 d . . P
Co1 Co 0.07966(7) 1.19036(5) 0.12266(6) 0.0510(3) Uani 0.25 1 d . . P
Cd2 Cd 0.000000 1.000000 0.000000 0.0557(4) Uani 0.75 2 d S . P
Co2 Co 0.000000 1.000000 0.000000 0.0557(4) Uani 0.25 2 d S . P
S1 S 0.3927(2) 1.5718(2) 0.0514(2) 0.0616(7) Uani 1 1 d . . .
O1 O 0.2048(8) 1.0545(6) 0.1902(6) 0.078(2) Uani 1 1 d . . .
O2 O 0.0526(7) 1.0075(5) 0.1533(5) 0.068(2) Uani 1 1 d . . .
O3 O 0.9791(7) 0.2030(7) 0.2670(6) 0.096(3) Uani 1 1 d . . .
O4 O 0.9124(6) 0.2899(5) 0.1237(5) 0.0596(18) Uani 1 1 d . . .
O5 O 0.1285(7) 0.0894(5) 0.9188(6) 0.073(2) Uani 1 1 d . . .
O6 O 0.1122(6) 0.2290(5) 0.9628(5) 0.0577(18) Uani 1 1 d . . .
N1 N 0.1882(7) 1.3117(6) 0.1103(6) 0.055(2) Uani 1 1 d . . .
N2 N 0.1340(8) 1.8597(6) 0.0166(6) 0.059(2) Uani 1 1 d . . .
C1 C 0.1501(10) 0.9883(9) 0.1940(8) 0.064(3) Uani 1 1 d . . .
C2 C 0.1962(10) 0.8777(8) 0.2465(8) 0.064(3) Uani 1 1 d . . .
C3 C 0.3151(10) 0.8490(8) 0.2445(8) 0.063(3) Uani 1 1 d . . .
H3 H 0.361867 0.899467 0.210089 0.075 Uiso 1 1 calc R U .
C4 C 0.3645(11) 0.7466(8) 0.2928(7) 0.068(3) Uani 1 1 d . . .
H4 H 0.444445 0.727175 0.291809 0.082 Uiso 1 1 calc R U .
C5 C 0.2928(10) 0.6728(7) 0.3432(7) 0.059(3) Uani 1 1 d . . .
C6 C 0.1791(10) 0.7046(7) 0.3457(7) 0.063(3) Uani 1 1 d . . .
H6 H 0.132043 0.655326 0.382772 0.075 Uiso 1 1 calc R U .
C7 C 0.1294(11) 0.8026(8) 0.2984(8) 0.069(3) Uani 1 1 d . . .
H7 H 0.049235 0.820147 0.300519 0.083 Uiso 1 1 calc R U .
C8 C 0.9019(9) 0.2624(7) 0.2159(7) 0.051(2) Uani 1 1 d . . .
C9 C 0.7960(8) 0.3013(7) 0.2630(6) 0.045(2) Uani 1 1 d . . .
C10 C 0.7800(9) 0.2681(8) 0.3663(8) 0.066(3) Uani 1 1 d . . .
H10 H 0.837651 0.221268 0.407183 0.079 Uiso 1 1 calc R U .
C11 C 0.6800(9) 0.3037(7) 0.4091(7) 0.059(3) Uani 1 1 d . . .
H11 H 0.668629 0.277971 0.479171 0.071 Uiso 1 1 calc R U .
C12 C 0.5967(8) 0.3755(7) 0.3524(6) 0.045(2) Uani 1 1 d . . .
C13 C 0.6148(9) 0.4057(7) 0.2500(7) 0.051(2) Uani 1 1 d . . .
H13 H 0.557488 0.452350 0.208591 0.062 Uiso 1 1 calc R U .
C14 C 0.7126(9) 0.3701(7) 0.2073(7) 0.051(2) Uani 1 1 d . . .
H14 H 0.722443 0.394045 0.137021 0.061 Uiso 1 1 calc R U .
C15 C 0.1435(8) 0.1813(7) 0.9047(7) 0.054(3) Uani 1 1 d . . .
C16 C 0.2003(8) 0.2343(7) 0.8089(7) 0.047(2) Uani 1 1 d . . .
C17 C 0.2181(9) 0.3367(7) 0.7900(7) 0.056(3) Uani 1 1 d . . .
H17 H 0.197220 0.368496 0.838883 0.067 Uiso 1 1 calc R U .
C18 C 0.2669(9) 0.3909(8) 0.6981(7) 0.061(3) Uani 1 1 d . . .
H18 H 0.276218 0.460577 0.684266 0.073 Uiso 1 1 calc R U .
C19 C 0.3009(8) 0.3451(7) 0.6287(7) 0.053(2) Uani 1 1 d . . .
C20 C 0.2884(10) 0.2408(7) 0.6499(8) 0.064(3) Uani 1 1 d . . .
H20 H 0.315589 0.206596 0.603693 0.077 Uiso 1 1 calc R U .
C21 C 0.2361(9) 0.1897(8) 0.7388(8) 0.067(3) Uani 1 1 d . . .
H21 H 0.224612 0.120730 0.751474 0.080 Uiso 1 1 calc R U .
C22 C 0.3482(9) 0.5632(8) 0.3942(7) 0.057(3) Uani 1 1 d . . .
C23 C 0.4407(9) 0.5191(7) 0.3511(7) 0.055(3) Uani 1 1 d . . .
H23 H 0.469304 0.557593 0.287666 0.066 Uiso 1 1 calc R U .
C24 C 0.4927(8) 0.4190(7) 0.3990(6) 0.046(2) Uani 1 1 d . . .
C25 C 0.4462(9) 0.3626(7) 0.4873(6) 0.050(2) Uani 1 1 d . . .
H25 H 0.479457 0.292871 0.518863 0.060 Uiso 1 1 calc R U .
C26 C 0.3518(8) 0.4041(7) 0.5323(7) 0.051(2) Uani 1 1 d . . .
C27 C 0.3012(9) 0.5051(7) 0.4832(7) 0.054(2) Uani 1 1 d . . .
H27 H 0.234370 0.534196 0.510840 0.064 Uiso 1 1 calc R U .
C28 C 0.1417(10) 1.4119(7) 0.0693(7) 0.059(3) Uani 1 1 d . . .
H28 H 0.064327 1.425398 0.053003 0.071 Uiso 1 1 calc R U .
C29 C 0.1945(9) 1.4937(7) 0.0495(7) 0.054(3) Uani 1 1 d . . .
H29 H 0.156474 1.561978 0.019227 0.065 Uiso 1 1 calc R U .
C30 C 0.3079(9) 1.4750(7) 0.0749(7) 0.055(3) Uani 1 1 d . . .
C31 C 0.3582(9) 1.3721(8) 0.1176(8) 0.063(3) Uani 1 1 d . . .
H31 H 0.435115 1.355603 0.135452 0.075 Uiso 1 1 calc R U .
C32 C 0.2933(10) 1.2943(8) 0.1333(8) 0.063(3) Uani 1 1 d . . .
H32 H 0.328113 1.224600 0.162515 0.076 Uiso 1 1 calc R U .
C33 C 0.2884(9) 1.6838(8) 0.0387(8) 0.058(3) Uani 1 1 d . . .
C34 C 0.2047(9) 1.6852(8) 0.1094(7) 0.055(3) Uani 1 1 d . . .
H34 H 0.200275 1.626778 0.167767 0.066 Uiso 1 1 calc R U .
C35 C 0.1286(9) 1.7717(7) 0.0942(7) 0.054(3) Uani 1 1 d . . .
H35 H 0.067021 1.770848 0.141079 0.065 Uiso 1 1 calc R U .
C36 C 0.2148(10) 1.8583(8) -0.0490(8) 0.066(3) Uani 1 1 d . . .
H36 H 0.218116 1.918553 -0.105754 0.080 Uiso 1 1 calc R U .
C37 C 0.2980(9) 1.7717(8) -0.0403(8) 0.059(3) Uani 1 1 d . . .
H37 H 0.359087 1.774091 -0.087863 0.071 Uiso 1 1 calc R U .
loop_
_atom_site_aniso_label
_atom_site_aniso_U_11
_atom_site_aniso_U_22
_atom_site_aniso_U_33
_atom_site_aniso_U_23
_atom_site_aniso_U_13
_atom_site_aniso_U_12
Cd1 0.0595(6) 0.0340(5) 0.0450(5) -0.0043(3) 0.0172(4) -0.0001(4)
Co1 0.0595(6) 0.0340(5) 0.0450(5) -0.0043(3) 0.0172(4) -0.0001(4)
Cd2 0.0723(9) 0.0335(6) 0.0479(7) -0.0065(5) 0.0240(6) -0.0038(5)
Co2 0.0723(9) 0.0335(6) 0.0479(7) -0.0065(5) 0.0240(6) -0.0038(5)
S1 0.0577(17) 0.0527(15) 0.0670(18) -0.0163(13) 0.0030(13) -0.0011(13)
O1 0.097(6) 0.042(4) 0.092(6) -0.020(4) 0.002(5) -0.014(4)
O2 0.081(6) 0.054(4) 0.050(4) -0.005(3) 0.013(4) 0.005(4)
O3 0.090(6) 0.102(7) 0.053(5) 0.001(5) 0.013(4) 0.031(5)
O4 0.063(5) 0.063(4) 0.042(4) -0.012(3) 0.014(3) -0.002(4)
O5 0.085(6) 0.039(4) 0.077(5) -0.008(4) 0.026(4) -0.009(4)
O6 0.067(5) 0.044(4) 0.051(4) -0.008(3) 0.020(3) -0.012(3)
N1 0.062(6) 0.045(5) 0.043(5) -0.003(4) 0.005(4) -0.002(4)
N2 0.068(6) 0.039(4) 0.062(6) -0.014(4) 0.008(4) 0.001(4)
C1 0.062(7) 0.058(7) 0.042(6) 0.009(5) 0.010(5) 0.002(6)
C2 0.071(8) 0.051(6) 0.052(6) -0.011(5) 0.020(5) 0.006(5)
C3 0.069(7) 0.049(6) 0.058(7) 0.002(5) 0.008(5) -0.025(5)
C4 0.088(8) 0.052(6) 0.045(6) 0.003(5) 0.018(5) -0.011(6)
C5 0.076(8) 0.044(5) 0.047(6) -0.009(5) 0.009(5) -0.008(5)
C6 0.075(8) 0.044(5) 0.047(6) -0.006(5) 0.023(5) 0.013(5)
C7 0.079(8) 0.058(6) 0.053(6) -0.011(5) 0.016(6) 0.004(6)
C8 0.054(6) 0.040(5) 0.045(6) -0.004(4) 0.006(5) 0.001(5)
C9 0.051(6) 0.040(5) 0.037(5) -0.008(4) 0.007(4) -0.002(4)
C10 0.065(7) 0.062(7) 0.050(6) -0.008(5) 0.005(5) 0.015(5)
C11 0.081(8) 0.042(5) 0.041(5) -0.010(4) 0.016(5) 0.008(5)
C12 0.049(6) 0.047(5) 0.035(5) -0.011(4) 0.010(4) -0.008(4)
C13 0.062(6) 0.045(5) 0.037(5) -0.007(4) 0.008(4) 0.000(5)
C14 0.065(7) 0.052(6) 0.033(5) -0.013(4) 0.005(4) -0.009(5)
C15 0.056(6) 0.046(6) 0.045(6) -0.008(5) 0.021(5) 0.005(5)
C16 0.047(6) 0.046(5) 0.042(5) -0.005(4) 0.007(4) -0.014(4)
C17 0.079(7) 0.046(5) 0.036(5) -0.011(4) 0.016(5) -0.013(5)
C18 0.086(8) 0.050(6) 0.043(6) -0.013(5) 0.033(5) -0.029(6)
C19 0.055(6) 0.051(6) 0.045(6) -0.010(5) 0.008(4) -0.004(5)
C20 0.092(8) 0.036(5) 0.054(6) -0.008(5) 0.021(6) -0.012(5)
C21 0.080(8) 0.040(5) 0.064(7) -0.007(5) 0.024(6) -0.005(5)
C22 0.056(6) 0.051(6) 0.047(6) -0.007(5) 0.012(5) 0.005(5)
C23 0.078(7) 0.039(5) 0.031(5) -0.001(4) 0.009(5) 0.003(5)
C24 0.055(6) 0.040(5) 0.036(5) -0.011(4) 0.012(4) -0.003(4)
C25 0.070(7) 0.039(5) 0.033(5) -0.007(4) 0.011(4) -0.003(5)
C26 0.060(6) 0.049(5) 0.037(5) -0.011(4) 0.010(4) -0.003(5)
C27 0.060(6) 0.049(6) 0.044(5) -0.014(5) 0.008(5) 0.000(5)
C28 0.073(7) 0.037(5) 0.052(6) -0.006(5) 0.006(5) 0.004(5)
C29 0.059(7) 0.028(5) 0.062(6) -0.001(4) 0.002(5) -0.003(4)
C30 0.067(7) 0.049(6) 0.044(6) -0.011(5) 0.009(5) -0.008(5)
C31 0.057(7) 0.047(6) 0.074(7) -0.015(5) 0.000(5) 0.008(5)
C32 0.069(8) 0.044(6) 0.070(7) -0.014(5) 0.008(6) -0.010(5)
C33 0.064(7) 0.047(6) 0.063(7) -0.019(5) 0.006(5) -0.018(5)
C34 0.063(7) 0.053(6) 0.044(6) -0.014(5) 0.003(5) -0.007(5)
C35 0.074(7) 0.038(5) 0.043(5) -0.002(4) 0.005(5) -0.018(5)
C36 0.090(9) 0.051(6) 0.044(6) -0.009(5) 0.023(6) -0.007(6)
C37 0.057(7) 0.057(6) 0.055(6) -0.014(5) 0.018(5) -0.012(5)
loop_
_atom_type_symbol
_atom_type_description
_atom_type_scat_dispersion_real
_atom_type_scat_dispersion_imag
_atom_type_scat_source
C C 0.0033 0.0016 'International Tables Vol C Tables 4.2.6.8 and 6.1.1.4'
H H 0.0000 0.0000 'International Tables Vol C Tables 4.2.6.8 and 6.1.1.4'
Cd Cd -0.8075 1.2024 'International Tables Vol C Tables 4.2.6.8 and 6.1.1.4'
Co Co 0.3494 0.9721 'International Tables Vol C Tables 4.2.6.8 and 6.1.1.4'
N N 0.0061 0.0033 'International Tables Vol C Tables 4.2.6.8 and 6.1.1.4'
O O 0.0106 0.0060 'International Tables Vol C Tables 4.2.6.8 and 6.1.1.4'
S S 0.1246 0.1234 'International Tables Vol C Tables 4.2.6.8 and 6.1.1.4'
loop_
_geom_angle_atom_site_label_1
_geom_angle_atom_site_label_2
_geom_angle_atom_site_label_3
_geom_angle
_geom_angle_site_symmetry_1
_geom_angle_site_symmetry_3
O6 Cd1 O1 105.2(3) 1_564 .
O6 Cd1 O4 99.8(2) 1_564 1_465
O1 Cd1 O4 152.2(3) . 1_465
O6 Cd1 N1 85.6(3) 1_564 .
O1 Cd1 N1 97.3(3) . .
O4 Cd1 N1 96.7(3) 1_465 .
O6 Cd1 O3 155.5(3) 1_564 1_465
O1 Cd1 O3 99.0(3) . 1_465
O4 Cd1 O3 55.8(3) 1_465 1_465
N1 Cd1 O3 94.9(3) . 1_465
O6 Cd1 O2 95.2(2) 1_564 .
O1 Cd1 O2 55.8(3) . .
O4 Cd1 O2 110.3(3) 1_465 .
N1 Cd1 O2 152.4(3) . .
O3 Cd1 O2 95.4(3) 1_465 .
O6 Cd1 C8 127.8(3) 1_564 1_465
O1 Cd1 C8 125.7(3) . 1_465
O4 Cd1 C8 28.0(3) 1_465 1_465
N1 Cd1 C8 97.5(3) . 1_465
O3 Cd1 C8 27.8(3) 1_465 1_465
O2 Cd1 C8 103.5(3) . 1_465
O6 Cd1 C1 103.6(3) 1_564 .
O1 Cd1 C1 26.9(3) . .
O4 Cd1 C1 133.9(3) 1_465 .
N1 Cd1 C1 124.1(4) . .
O3 Cd1 C1 96.4(3) 1_465 .
O2 Cd1 C1 29.1(3) . .
C8 Cd1 C1 116.3(3) 1_465 .
O5 Cd2 O5 180.0(3) 2_566 1_564
O5 Cd2 N2 86.2(3) 2_566 2_585
O5 Cd2 N2 93.8(3) 1_564 2_585
O5 Cd2 N2 93.8(3) 2_566 1_545
O5 Cd2 N2 86.2(3) 1_564 1_545
N2 Cd2 N2 180.0 2_585 1_545
O5 Cd2 O2 88.7(3) 2_566 .
O5 Cd2 O2 91.3(3) 1_564 .
N2 Cd2 O2 90.0(3) 2_585 .
N2 Cd2 O2 90.0(3) 1_545 .
O5 Cd2 O2 91.3(3) 2_566 2_575
O5 Cd2 O2 88.7(3) 1_564 2_575
N2 Cd2 O2 90.0(3) 2_585 2_575
N2 Cd2 O2 90.0(3) 1_545 2_575
O2 Cd2 O2 180.00(9) . 2_575
C30 S1 C33 101.7(5) . .
C1 O1 Cd1 98.5(7) . .
C1 O2 Cd2 132.4(7) . .
C1 O2 Cd1 81.3(7) . .
Cd2 O2 Cd1 107.4(3) . .
C8 O3 Cd1 89.7(6) . 1_645
C8 O4 Cd1 94.7(6) . 1_645
C15 O5 Cd2 132.6(6) . 1_546
C15 O6 Cd1 136.7(6) . 1_546
C32 N1 C28 116.4(9) . .
C32 N1 Cd1 126.1(7) . .
C28 N1 Cd1 117.3(7) . .
C36 N2 C35 117.3(9) . .
C36 N2 Cd2 122.1(7) . 1_565
C35 N2 Cd2 120.6(7) . 1_565
O1 C1 O2 123.9(10) . .
O1 C1 C2 119.1(11) . .
O2 C1 C2 117.0(11) . .
O1 C1 Cd1 54.7(6) . .
O2 C1 Cd1 69.6(6) . .
C2 C1 Cd1 171.5(9) . .
C7 C2 C3 118.7(10) . .
C7 C2 C1 124.0(10) . .
C3 C2 C1 117.3(10) . .
C4 C3 C2 120.5(9) . .
C4 C3 H3 119.8 . .
C2 C3 H3 119.8 . .
C3 C4 C5 118.6(11) . .
C3 C4 H4 120.7 . .
C5 C4 H4 120.7 . .
C6 C5 C4 118.8(10) . .
C6 C5 C22 123.6(9) . .
C4 C5 C22 117.5(10) . .
C7 C6 C5 123.6(11) . .
C7 C6 H6 118.2 . .
C5 C6 H6 118.2 . .
C6 C7 C2 119.7(11) . .
C6 C7 H7 120.1 . .
C2 C7 H7 120.1 . .
O3 C8 O4 119.7(9) . .
O3 C8 C9 120.8(9) . .
O4 C8 C9 119.5(8) . .
O3 C8 Cd1 62.5(5) . 1_645
O4 C8 Cd1 57.3(5) . 1_645
C9 C8 Cd1 175.4(7) . 1_645
C14 C9 C10 118.1(9) . .
C14 C9 C8 121.2(8) . .
C10 C9 C8 120.7(8) . .
C11 C10 C9 120.0(9) . .
C11 C10 H10 120.0 . .
C9 C10 H10 120.0 . .
C12 C11 C10 121.6(9) . .
C12 C11 H11 119.2 . .
C10 C11 H11 119.2 . .
C11 C12 C13 116.7(8) . .
C11 C12 C24 121.5(8) . .
C13 C12 C24 121.8(8) . .
C14 C13 C12 121.9(9) . .
C14 C13 H13 119.0 . .
C12 C13 H13 119.0 . .
C9 C14 C13 121.5(9) . .
C9 C14 H14 119.3 . .
C13 C14 H14 119.3 . .
O6 C15 O5 125.2(9) . .
O6 C15 C16 118.8(9) . .
O5 C15 C16 115.9(9) . .
C21 C16 C17 118.6(8) . .
C21 C16 C15 123.7(9) . .
C17 C16 C15 117.7(9) . .
C18 C17 C16 119.3(9) . .
C18 C17 H17 120.4 . .
C16 C17 H17 120.4 . .
C19 C18 C17 121.1(9) . .
C19 C18 H18 119.5 . .
C17 C18 H18 119.5 . .
C18 C19 C20 119.5(9) . .
C18 C19 C26 120.0(9) . .
C20 C19 C26 120.5(9) . .
C21 C20 C19 118.9(10) . .
C21 C20 H20 120.6 . .
C19 C20 H20 120.6 . .
C16 C21 C20 122.5(10) . .
C16 C21 H21 118.7 . .
C20 C21 H21 118.7 . .
C23 C22 C27 119.9(9) . .
C23 C22 C5 120.9(8) . .
C27 C22 C5 119.1(9) . .
C22 C23 C24 120.8(8) . .
C22 C23 H23 119.6 . .
C24 C23 H23 119.6 . .
C25 C24 C23 118.7(9) . .
C25 C24 C12 121.9(8) . .
C23 C24 C12 119.3(8) . .
C24 C25 C26 122.0(9) . .
C24 C25 H25 119.0 . .
C26 C25 H25 119.0 . .
C25 C26 C27 118.3(8) . .
C25 C26 C19 123.0(8) . .
C27 C26 C19 118.7(8) . .
C22 C27 C26 120.1(9) . .
C22 C27 H27 119.9 . .
C26 C27 H27 119.9 . .
C29 C28 N1 126.0(11) . .
C29 C28 H28 117.0 . .
N1 C28 H28 117.0 . .
C28 C29 C30 117.7(9) . .
C28 C29 H29 121.2 . .
C30 C29 H29 121.2 . .
C29 C30 C31 117.6(9) . .
C29 C30 S1 124.4(7) . .
C31 C30 S1 118.0(9) . .
C32 C31 C30 118.8(10) . .
C32 C31 H31 120.6 . .
C30 C31 H31 120.6 . .
N1 C32 C31 123.6(10) . .
N1 C32 H32 118.2 . .
C31 C32 H32 118.2 . .
C34 C33 C37 119.6(10) . .
C34 C33 S1 121.4(8) . .
C37 C33 S1 118.9(8) . .
C35 C34 C33 118.0(10) . .
C35 C34 H34 121.0 . .
C33 C34 H34 121.0 . .
C34 C35 N2 124.2(10) . .
C34 C35 H35 117.9 . .
N2 C35 H35 117.9 . .
N2 C36 C37 122.8(10) . .
N2 C36 H36 118.6 . .
C37 C36 H36 118.6 . .
C33 C37 C36 117.8(9) . .
C33 C37 H37 121.1 . .
C36 C37 H37 121.1 . .
loop_
_geom_bond_atom_site_label_1
_geom_bond_atom_site_label_2
_geom_bond_distance
_geom_bond_site_symmetry_2
Cd1 O6 2.184(7) 1_564
Cd1 O1 2.188(8) .
Cd1 O4 2.231(7) 1_465
Cd1 N1 2.270(9) .
Cd1 O3 2.345(8) 1_465
Cd1 O2 2.515(7) .
Cd1 C8 2.644(10) 1_465
Cd1 C1 2.653(11) .
Cd2 O5 2.152(7) 2_566
Cd2 O5 2.152(7) 1_564
Cd2 N2 2.261(8) 2_585
Cd2 N2 2.261(8) 1_545
Cd2 O2 2.397(8) .
Cd2 O2 2.397(8) 2_575
S1 C30 1.759(11) .
S1 C33 1.788(11) .
O1 C1 1.212(14) .
O2 C1 1.303(13) .
O3 C8 1.233(12) .
O4 C8 1.247(11) .
O5 C15 1.273(12) .
O6 C15 1.236(11) .
N1 C32 1.296(13) .
N1 C28 1.352(12) .
N2 C36 1.290(13) .
N2 C35 1.348(12) .
C1 C2 1.493(14) .
C2 C7 1.393(15) .
C2 C3 1.413(15) .
C3 C4 1.402(14) .
C3 H3 0.9500 .
C4 C5 1.416(14) .
C4 H4 0.9500 .
C5 C6 1.359(14) .
C5 C22 1.508(13) .
C6 C7 1.354(14) .
C6 H6 0.9500 .
C7 H7 0.9500 .
C8 C9 1.487(13) .
C9 C14 1.358(13) .
C9 C10 1.400(13) .
C10 C11 1.387(13) .
C10 H10 0.9500 .
C11 C12 1.379(13) .
C11 H11 0.9500 .
C12 C13 1.390(12) .
C12 C24 1.493(12) .
C13 C14 1.368(13) .
C13 H13 0.9500 .
C14 H14 0.9500 .
C15 C16 1.483(12) .
C16 C21 1.361(14) .
C16 C17 1.413(13) .
C17 C18 1.404(12) .
C17 H17 0.9500 .
C18 C19 1.360(13) .
C18 H18 0.9500 .
C19 C20 1.415(13) .
C19 C26 1.481(13) .
C20 C21 1.381(13) .
C20 H20 0.9500 .
C21 H21 0.9500 .
C22 C23 1.374(13) .
C22 C27 1.383(13) .
C23 C24 1.385(12) .
C23 H23 0.9500 .
C24 C25 1.367(12) .
C25 C26 1.387(13) .
C25 H25 0.9500 .
C26 C27 1.394(13) .
C27 H27 0.9500 .
C28 C29 1.339(14) .
C28 H28 0.9500 .
C29 C30 1.401(14) .
C29 H29 0.9500 .
C30 C31 1.398(13) .
C31 C32 1.393(15) .
C31 H31 0.9500 .
C32 H32 0.9500 .
C33 C34 1.361(14) .
C33 C37 1.366(14) .
C34 C35 1.343(14) .
C34 H34 0.9500 .
C35 H35 0.9500 .
C36 C37 1.402(14) .
C36 H36 0.9500 .
C37 H37 0.9500 .
loop_
_publcif_info_exptl_table_extra_item
sin_theta_over_lambda_max
