#------------------------------------------------------------------------------
#$Date: 2019-11-17 13:04:36 +0200 (Sun, 17 Nov 2019) $
#$Revision: 230036 $
#$URL: file:///home/coder/svn-repositories/cod/cif/7/04/75/7047515.cif $
#------------------------------------------------------------------------------
#
# This file is available in the Crystallography Open Database (COD),
# http://www.crystallography.net/
#
# All data on this site have been placed in the public domain by the
# contributors.
#
data_7047515
loop_
_publ_author_name
'Chao, Meng-Yao'
'Chen, Jing'
'Young, David J.'
'Zhang, Wen-Hua'
'Lang, Jian-Ping'
_publ_section_title
;
 Smoothing the single-crystal to single-crystal conversions of a
 two-dimensional metal-organic framework via the hetero-metal doping of
 the linear trimetallic secondary building unit.
;
_journal_issue                   38
_journal_name_full
'Dalton transactions (Cambridge, England : 2003)'
_journal_page_first              13722
_journal_page_last               13729
_journal_paper_doi               10.1039/c8dt02813c
_journal_volume                  47
_journal_year                    2018
_chemical_formula_moiety
'C27 H15 Cd1.13 Co0.38 O6, 2(C5 H11 N O) [+ solvent]'
_chemical_formula_sum            'C37 H37 Cd1.12 Co0.38 N2 O8'
_chemical_formula_weight         786.23
_space_group_crystal_system      triclinic
_space_group_IT_number           2
_space_group_name_Hall           '-P 1'
_space_group_name_H-M_alt        'P -1'
_symmetry_space_group_name_Hall  '-P 1'
_symmetry_space_group_name_H-M   'P -1'
_atom_sites_solution_hydrogens   geom
_audit_creation_method           SHELXL-2016/6
_audit_update_record
;
2018-07-09 deposited with the CCDC.
2018-09-10 downloaded from the CCDC.
;
_cell_angle_alpha                68.842(3)
_cell_angle_beta                 81.757(4)
_cell_angle_gamma                87.126(4)
_cell_formula_units_Z            2
_cell_length_a                   10.4753(7)
_cell_length_b                   14.5642(5)
_cell_length_c                   14.8464(5)
_cell_measurement_reflns_used    5224
_cell_measurement_temperature    213(2)
_cell_measurement_theta_max      25.6900
_cell_measurement_theta_min      3.1880
_cell_volume                     2090.52(18)
_computing_cell_refinement
;
CrysAlisPro, Agilent Technologies,
Version 1.171.36.32 (release 02-08-2013 CrysAlis171 .NET)
(compiled Aug  2 2013,16:46:58)
;
_computing_data_collection
;
CrysAlisPro, Agilent Technologies,
Version 1.171.36.32 (release 02-08-2013 CrysAlis171 .NET)
(compiled Aug  2 2013,16:46:58)
;
_computing_data_reduction
;
CrysAlisPro, Agilent Technologies,
Version 1.171.36.32 (release 02-08-2013 CrysAlis171 .NET)
(compiled Aug  2 2013,16:46:58)
;
_computing_molecular_graphics    'SHELXL-2013 (Sheldrick, 2013)'
_computing_publication_material  'publCIF (Westrip, 2010)'
_computing_structure_refinement  'SHELXL-2013 (Sheldrick, 2013)'
_computing_structure_solution    'SHELXL-2013 (Sheldrick, 2013)'
_diffrn_ambient_temperature      213(2)
_diffrn_measured_fraction_theta_full 0.999
_diffrn_measured_fraction_theta_max 0.879
_diffrn_measurement_device_type  'Xcalibur, Atlas, Gemini'
_diffrn_measurement_method       'phi and omega scans'
_diffrn_radiation_type           MoK\a
_diffrn_radiation_wavelength     0.71073
_diffrn_reflns_av_R_equivalents  0.0460
_diffrn_reflns_av_unetI/netI     0.0886
_diffrn_reflns_Laue_measured_fraction_full 0.999
_diffrn_reflns_Laue_measured_fraction_max 0.879
_diffrn_reflns_limit_h_max       13
_diffrn_reflns_limit_h_min       -14
_diffrn_reflns_limit_k_max       20
_diffrn_reflns_limit_k_min       -19
_diffrn_reflns_limit_l_max       21
_diffrn_reflns_limit_l_min       -21
_diffrn_reflns_number            25516
_diffrn_reflns_point_group_measured_fraction_full 0.999
_diffrn_reflns_point_group_measured_fraction_max 0.879
_diffrn_reflns_theta_full        25.242
_diffrn_reflns_theta_max         30.904
_diffrn_reflns_theta_min         2.807
_diffrn_standards_decay_%        0
_diffrn_standards_interval_count 0
_diffrn_standards_interval_time  0
_diffrn_standards_number         0
_exptl_absorpt_coefficient_mu    0.773
_exptl_absorpt_correction_T_max  0.927
_exptl_absorpt_correction_T_min  0.833
_exptl_absorpt_correction_type   multi-scan
_exptl_absorpt_process_details
;
CrysAlisPro, Agilent Technologies,
Version 1.171.36.32 (release 02-08-2013 CrysAlis171 .NET)
(compiled Aug  2 2013,16:46:58)
Empirical absorption correction using spherical harmonics,
 implemented in SCALE3 ABSPACK scaling algorithm.
;
_exptl_crystal_colour            purple
_exptl_crystal_density_diffrn    1.249
_exptl_crystal_description       block
_exptl_crystal_F_000             802
_exptl_crystal_size_max          0.300
_exptl_crystal_size_mid          0.200
_exptl_crystal_size_min          0.100
_refine_diff_density_max         1.021
_refine_diff_density_min         -1.092
_refine_diff_density_rms         0.080
_refine_ls_extinction_method     none
_refine_ls_goodness_of_fit_ref   1.015
_refine_ls_hydrogen_treatment    constr
_refine_ls_matrix_type           full
_refine_ls_number_parameters     561
_refine_ls_number_reflns         11603
_refine_ls_number_restraints     446
_refine_ls_restrained_S_all      1.014
_refine_ls_R_factor_all          0.1221
_refine_ls_R_factor_gt           0.0608
_refine_ls_shift/su_max          0.001
_refine_ls_shift/su_mean         0.000
_refine_ls_structure_factor_coef Fsqd
_refine_ls_weighting_details
'w=1/[\s^2^(Fo^2^)+(0.0761P)^2^+0.1701P] where P=(Fo^2^+2Fc^2^)/3'
_refine_ls_weighting_scheme      calc
_refine_ls_wR_factor_gt          0.1449
_refine_ls_wR_factor_ref         0.1813
_reflns_Friedel_coverage         0.000
_reflns_number_gt                6225
_reflns_number_total             11603
_reflns_threshold_expression     'I > 2\s(I)'
_cod_data_source_file            c8dt02813c2.cif
_cod_data_source_block           1a
_cod_depositor_comments
'Adding full bibliography for 7047515--7047518.cif.'
_cod_database_code               7047515
_shelx_shelxl_version_number     2016/6
_shelx_space_group_comment
;
The symmetry employed for this shelxl refinement is uniquely defined
by the following loop, which should always be used as a source of
symmetry information in preference to the above space-group names.
They are only intended as comments.
;
_shelx_estimated_absorpt_t_min   0.801
_shelx_estimated_absorpt_t_max   0.927
_shelx_res_file
;
TITL CD2CO IN P-1
    cd2co.res
    created by SHELXL-2016/6 at 13:19:19 on 09-Jul-2018
CELL  0.71073   10.4753   14.5642   14.8464    68.842    81.757    87.126
ZERR        2    0.0007    0.0005    0.0005     0.003     0.004     0.004
LATT   1
SFAC  C Cd Co  N  O H
UNIT  74 2.25 0.75 4 16 74
TEMP   -60
SIZE 0.30 0.20 0.10

L.S. 100
FMAP 2
PLAN 4
ACTA
FREE C34A C36
BOND $H
EXYZ CD1 CO1
EADP CD1 CO1
EXYZ CD2 CO2
EADP CD2 CO2
DFIX 1.50 0.02 C33 C34 C35 C36 C28 C29 C28A C29A C30 C31 C30A C31A =
     C33A C34A C35A C36A
DFIX 1.45 0.02 C29 N1 C29A N1A C31 N1 C31A N1A C36 N2 C34 N2 C34A =
     N2 C36A N2
EADP C33 C33A
DFIX 1.42 0.02 N2 C37 N1 C32 N1A C32A
DFIX 1.25 0.02 C37 O8 C32 O7 C32A O7A O8A C37A
DFIX 2.50 0.04 C29 C31 C29A C31A C34 C36 C34A C36A N2 C35
SIMU O7 > C32A
DELU O7 > C32A
ABIN
WGHT    0.076100    0.170100
FVAR       0.41400   0.65882   0.55945
CD1   2    0.583371    0.109415    1.185564    10.75000    0.06986    0.04544 =
         0.03685   -0.00841    0.00696    0.01912
CO1   3    0.583371    0.109415    1.185564    10.25000    0.06986    0.04544 =
         0.03685   -0.00841    0.00696    0.01912
CD2   2    0.500000    0.000000    1.000000    10.37500    0.05246    0.04504 =
         0.03861   -0.00458   -0.00725    0.00918
CO2   3    0.500000    0.000000    1.000000    10.12500    0.05246    0.04504 =
         0.03861   -0.00458   -0.00725    0.00918
O1    5    0.736952    0.182823    1.056282    11.00000    0.06199    0.08953 =
         0.04457   -0.01448   -0.01076   -0.00401
O2    5    0.559324    0.136798    1.021099    11.00000    0.05215    0.05121 =
         0.04180   -0.00578    0.00709   -0.00165
O3    5    0.611121    0.953881    0.241889    11.00000    0.12555    0.05925 =
         0.05705   -0.01094   -0.00999    0.03736
O4    5    0.612164    0.907997    0.113356    11.00000    0.07209    0.05757 =
         0.05143   -0.00463   -0.01884    0.01345
O5    5    1.463516    0.248850    0.186976    11.00000    0.10403    0.08048 =
         0.07253   -0.01806    0.02091    0.03334
O6    5    1.402632    0.106017    0.293825    11.00000    0.10559    0.05536 =
         0.11701   -0.03164    0.03456    0.01323
C1    1    0.668776    0.180427    0.995150    11.00000    0.04805    0.04673 =
         0.04423   -0.01109   -0.00034    0.00955
C2    1    0.713223    0.232792    0.888374    11.00000    0.05697    0.04243 =
         0.03940   -0.00814   -0.00419   -0.00199
C3    1    0.621902    0.263327    0.822289    11.00000    0.04061    0.06077 =
         0.04452   -0.00484   -0.00185   -0.00034
AFIX  43
H3    6    0.533807    0.249917    0.844712    11.00000   -1.20000
AFIX   0
C4    1    0.661962    0.312582    0.725335    11.00000    0.04511    0.06170 =
         0.04111   -0.00142   -0.00857    0.00479
AFIX  43
H4    6    0.600185    0.334510    0.682078    11.00000   -1.20000
AFIX   0
C5    1    0.791886    0.330949    0.689313    11.00000    0.04664    0.03681 =
         0.03797   -0.00487   -0.00249    0.00187
C6    1    0.880043    0.300732    0.755273    11.00000    0.04156    0.06245 =
         0.05158   -0.00554    0.00062    0.00003
AFIX  43
H6    6    0.968328    0.312470    0.732427    11.00000   -1.20000
AFIX   0
C7    1    0.841637    0.253700    0.853963    11.00000    0.04406    0.06427 =
         0.04083   -0.00186   -0.00726   -0.00333
AFIX  43
H7    6    0.903202    0.236008    0.897545    11.00000   -1.20000
AFIX   0
C8    1    0.630643    0.892651    0.198752    11.00000    0.05557    0.05085 =
         0.04952   -0.00798   -0.00586    0.01065
C9    1    0.677917    0.793792    0.257831    11.00000    0.03986    0.04807 =
         0.04107   -0.00869   -0.00383    0.00722
C10   1    0.712443    0.722847    0.216112    11.00000    0.05292    0.04969 =
         0.03927   -0.00850   -0.00822    0.00891
AFIX  43
H10   6    0.705663    0.737335    0.149939    11.00000   -1.20000
AFIX   0
C11   1    0.756661    0.631181    0.270989    11.00000    0.05343    0.04688 =
         0.04714   -0.01484   -0.00781    0.00856
AFIX  43
H11   6    0.780850    0.584703    0.241261    11.00000   -1.20000
AFIX   0
C12   1    0.765775    0.606902    0.370049    11.00000    0.04303    0.04186 =
         0.03822   -0.00465   -0.00961    0.00551
C13   1    0.729967    0.677179    0.411519    11.00000    0.06136    0.04890 =
         0.03638   -0.00721   -0.00810    0.01075
AFIX  43
H13   6    0.734159    0.662235    0.478137    11.00000   -1.20000
AFIX   0
C14   1    0.687744    0.769902    0.355514    11.00000    0.06008    0.05030 =
         0.04802   -0.01400   -0.00936    0.01429
AFIX  43
H14   6    0.665561    0.817018    0.384761    11.00000   -1.20000
AFIX   0
C15   1    1.390576    0.197561    0.258483    11.00000    0.06876    0.06426 =
         0.07017   -0.03108    0.00143    0.01472
C16   1    1.285292    0.245333    0.304606    11.00000    0.06687    0.04997 =
         0.05748   -0.02032    0.00044    0.01107
C17   1    1.202553    0.189368    0.385080    11.00000    0.07998    0.04366 =
         0.07480   -0.01547    0.00767    0.01202
AFIX  43
H17   6    1.214703    0.120917    0.411727    11.00000   -1.20000
AFIX   0
C18   1    1.101336    0.232853    0.427366    11.00000    0.07394    0.04267 =
         0.06824   -0.01388    0.00808    0.00483
AFIX  43
H18   6    1.043638    0.193053    0.479927    11.00000   -1.20000
AFIX   0
C19   1    1.084884    0.334980    0.392356    11.00000    0.05606    0.04335 =
         0.04098   -0.01347   -0.00618    0.00819
C20   1    1.172184    0.390716    0.312840    11.00000    0.07346    0.04288 =
         0.04811   -0.00937   -0.00003    0.01533
AFIX  43
H20   6    1.163717    0.459584    0.287578    11.00000   -1.20000
AFIX   0
C21   1    1.269822    0.346560    0.271186    11.00000    0.06953    0.05421 =
         0.05104   -0.01016    0.00936    0.00980
AFIX  43
H21   6    1.327732    0.386055    0.218586    11.00000   -1.20000
AFIX   0
C22   1    0.835860    0.379092    0.583526    11.00000    0.04704    0.03872 =
         0.03610   -0.00296   -0.00232   -0.00294
C23   1    0.777114    0.464747    0.526587    11.00000    0.04901    0.03895 =
         0.04224   -0.00930   -0.00427    0.00403
AFIX  43
H23   6    0.706602    0.491452    0.555623    11.00000   -1.20000
AFIX   0
C24   1    0.821090    0.511402    0.427472    11.00000    0.04092    0.04236 =
         0.04125   -0.00955   -0.00428    0.00335
C25   1    0.921222    0.467736    0.384856    11.00000    0.04771    0.04156 =
         0.03586   -0.00427   -0.00209    0.00267
AFIX  43
H25   6    0.950152    0.497198    0.317869    11.00000   -1.20000
AFIX   0
C26   1    0.979266    0.381601    0.439186    11.00000    0.04578    0.03631 =
         0.04151   -0.01116   -0.00285    0.00314
C27   1    0.938514    0.339556    0.539114    11.00000    0.04932    0.03832 =
         0.04763   -0.00862   -0.00856    0.00841
AFIX  43
H27   6    0.981144    0.283639    0.576968    11.00000   -1.20000
AFIX   0
PART   1
O7    5    0.708414    0.141750    1.289007    21.00000    0.12008    0.08238 =
         0.08486   -0.04242   -0.01484   -0.00876
N1    4    0.672890    0.162644    1.433044    21.00000    0.09922    0.09080 =
         0.07194   -0.02578    0.00309   -0.04054
C28   1    0.725100    0.108870    1.602487    21.00000    0.21086    0.14056 =
         0.07438   -0.00307   -0.02602   -0.08306
AFIX  33
H28A  6    0.687688    0.080787    1.670331    21.00000   -1.50000
H28B  6    0.792433    0.065785    1.588617    21.00000   -1.50000
H28C  6    0.761578    0.172940    1.589872    21.00000   -1.50000
AFIX   0
C29   1    0.622178    0.119871    1.538379    21.00000    0.10803    0.12100 =
         0.07279   -0.02227    0.01436   -0.02163
AFIX  23
H29A  6    0.584413    0.055152    1.552405    21.00000   -1.20000
H29B  6    0.553554    0.162322    1.553660    21.00000   -1.20000
AFIX   0
C30   1    0.595529    0.331047    1.381155    21.00000    0.16126    0.10205 =
         0.22067   -0.06564   -0.03824   -0.00327
AFIX  33
H30A  6    0.623371    0.399240    1.352507    21.00000   -1.50000
H30B  6    0.541126    0.317450    1.339776    21.00000   -1.50000
H30C  6    0.547226    0.319156    1.445152    21.00000   -1.50000
AFIX   0
C31   1    0.711926    0.264649    1.390529    21.00000    0.13942    0.07069 =
         0.08952   -0.01732   -0.01751   -0.02851
AFIX  23
H31A  6    0.761471    0.277248    1.326021    21.00000   -1.20000
H31B  6    0.767582    0.278956    1.431575    21.00000   -1.20000
AFIX   0
C32   1    0.671101    0.108979    1.376479    21.00000    0.10587    0.08970 =
         0.08041   -0.03054   -0.01443   -0.01647
AFIX  43
H32   6    0.640102    0.043955    1.405059    21.00000   -1.20000
AFIX   0
PART   2
O7A   5    0.694208    0.110819    1.296022   -21.00000    0.15324    0.10113 =
         0.06539   -0.04028   -0.01731   -0.01359
N1A   4    0.671258    0.225214    1.375712   -21.00000    0.08557    0.05670 =
         0.04545   -0.02099    0.00332   -0.03593
C28A  1    0.697631    0.121535    1.537873   -21.00000    0.23012    0.15529 =
         0.13623    0.07918   -0.06368   -0.03770
AFIX  33
H28D  6    0.658033    0.068044    1.594196   -21.00000   -1.50000
H28E  6    0.782071    0.101274    1.515419   -21.00000   -1.50000
H28F  6    0.706588    0.178520    1.555686   -21.00000   -1.50000
AFIX   0
C29A  1    0.614550    0.147431    1.458061   -21.00000    0.13914    0.09859 =
         0.09042   -0.00857    0.01324   -0.04238
AFIX  23
H29C  6    0.604461    0.089769    1.440434   -21.00000   -1.20000
H29D  6    0.528817    0.167181    1.480787   -21.00000   -1.20000
AFIX   0
C30A  1    0.558402    0.378049    1.384117   -21.00000    0.12125    0.12598 =
         0.25149   -0.10729   -0.00744   -0.00322
AFIX  33
H30D  6    0.577646    0.443551    1.381336   -21.00000   -1.50000
H30E  6    0.509564    0.383040    1.331753   -21.00000   -1.50000
H30F  6    0.508086    0.342481    1.446292   -21.00000   -1.50000
AFIX   0
C31A  1    0.682025    0.324018    1.373241   -21.00000    0.10049    0.08926 =
         0.13330   -0.05212    0.00425   -0.03024
AFIX  23
H31C  6    0.732646    0.362434    1.311195   -21.00000   -1.20000
H31D  6    0.731173    0.322017    1.425332   -21.00000   -1.20000
AFIX   0
C32A  1    0.702986    0.197484    1.297978   -21.00000    0.11325    0.09057 =
         0.07100   -0.03412   -0.00970    0.00103
AFIX  43
H32A  6    0.734931    0.246995    1.238967   -21.00000   -1.20000
AFIX   0
PART   0
SIMU O8 > C37A
DELU O8 > C37A
PART   1

O8    5    0.666374   -0.004089    0.899964    31.00000    0.05124    0.05013 =
         0.05322   -0.00505    0.02227    0.00377
N2    4    0.863617   -0.076180    0.868619    31.00000    0.05760    0.13236 =
         0.14830   -0.07903   -0.00855    0.02776
C33   1    1.024107    0.048241    0.756229    31.00000    0.13362    0.16105 =
         0.35235   -0.01940    0.00334    0.00947
AFIX  33
H33A  6    1.029338    0.106355    0.697315    31.00000   -1.50000
H33B  6    1.048760    0.065215    0.808816    31.00000   -1.50000
H33C  6    1.081936   -0.001869    0.745100    31.00000   -1.50000
AFIX   0
C34   1    0.892259    0.010694    0.782467    31.00000    0.14308    0.16773 =
         0.23431   -0.01960    0.02674   -0.00389
AFIX  23
H34A  6    0.868667   -0.003158    0.727100    31.00000   -1.20000
H34B  6    0.835645    0.063614    0.790519    31.00000   -1.20000
AFIX   0
C35   1    0.982237   -0.206528    0.816658    31.00000    0.13769    0.18610 =
         0.21763   -0.11871   -0.02651    0.06299
AFIX  33
H35A  6    1.035386   -0.264385    0.840861    31.00000   -1.50000
H35B  6    0.905209   -0.224684    0.797669    31.00000   -1.50000
H35C  6    1.030435   -0.157702    0.760642    31.00000   -1.50000
AFIX   0
C36   1    0.943942   -0.163718    0.896648    31.00000    0.11001    0.15165 =
         0.16494   -0.06007    0.01408    0.04525
AFIX  23
H36A  6    0.897542   -0.214344    0.953436    31.00000   -1.20000
H36B  6    1.022573   -0.147465    0.916466    31.00000   -1.20000
AFIX   0
C37   1    0.741546   -0.070932    0.916187    31.00000    0.09354    0.14766 =
         0.09685   -0.03236   -0.00522    0.05386
AFIX  43
H37   6    0.713410   -0.128203    0.968995    31.00000   -1.20000
AFIX   0

PART   2
O8A   5    0.692037    0.008488    0.892656   -31.00000    0.08954    0.06893 =
         0.13132   -0.00821   -0.02436   -0.00016

N2A   4    0.869115   -0.053717    0.864758   -31.00000    0.12947    0.18642 =
         0.15970   -0.05030    0.07060    0.01458
C33A  1    1.029291    0.013832    0.906078   -31.00000    0.13362    0.16105 =
         0.35235   -0.01940    0.00334    0.00947
AFIX  33
H33D  6    1.084353    0.071434    0.875595   -31.00000   -1.50000
H33E  6    0.979736    0.017038    0.965294   -31.00000   -1.50000
H33F  6    1.082081   -0.045061    0.921846   -31.00000   -1.50000
AFIX   0
C34A  1    0.940849    0.010926    0.838563   -31.00000    0.12554    0.15452 =
         0.23440   -0.06071    0.08292    0.01491
AFIX  23
H34C  6    0.891125    0.072223    0.821727   -31.00000   -1.20000
H34D  6    0.993060    0.010372    0.778453   -31.00000   -1.20000
AFIX   0
C35A  1    0.906618   -0.233709    0.891044   -31.00000    0.29434    0.19546 =
         0.33526   -0.06778    0.00108    0.03101
AFIX  33
H35D  6    0.931062   -0.284835    0.864402   -31.00000   -1.50000
H35E  6    0.965243   -0.234347    0.936256   -31.00000   -1.50000
H35F  6    0.819323   -0.245552    0.924994   -31.00000   -1.50000
AFIX   0
C36A  1    0.913056   -0.136822    0.811046   -31.00000    0.16949    0.21699 =
         0.21011   -0.09893   -0.00604    0.02844
AFIX  23
H36C  6    0.854045   -0.134736    0.764747   -31.00000   -1.20000
H36D  6    1.000799   -0.123468    0.776074   -31.00000   -1.20000
AFIX   0
C37A  1    0.738729   -0.070387    0.892858   -31.00000    0.13255    0.11260 =
         0.11533   -0.05619   -0.01315   -0.01197
AFIX  43
H37A  6    0.694623   -0.130008    0.908894   -31.00000   -1.20000

PART   0
AFIX   0
HKLF 4




REM  CD2CO IN P-1
REM R1 =  0.0608 for    6225 Fo > 4sig(Fo)  and  0.1221 for all   11603 data
REM    561 parameters refined using    446 restraints

END

WGHT      0.0752      0.1542

REM Highest difference peak  1.021,  deepest hole -1.092,  1-sigma level  0.080
Q1    1   0.5110  0.0894  1.1705  11.00000  0.05    1.02
Q2    1   0.9954 -0.0011  0.6851  11.00000  0.05    0.48
Q3    1   0.7547  0.0251  0.8276  11.00000  0.05    0.44
Q4    1   0.9793 -0.0526  0.9007  11.00000  0.05    0.44
;
_shelx_res_checksum              75497
_shelx_fab_file
;
    2    0    0      5.18      0.00
    3    0    0      1.89      0.00
    4    0    0      0.27      0.00
    5    0    0     -0.01      0.00
    6    0    0     -0.68      0.00
    7    0    0      0.57      0.00
    8    0    0     -0.50      0.00
    9    0    0     -0.51      0.00
   10    0    0      0.95      0.00
   11    0    0     -0.23      0.00
   12    0    0      1.80      0.00
   13    0    0     -0.52      0.00
   14    0    0     -0.52      0.00
  -13    1    0     -0.47      0.00
  -12    1    0     -1.01      0.00
  -11    1    0      0.11      0.00
  -10    1    0     -1.29      0.00
   -9    1    0      0.72      0.00
   -8    1    0      1.03      0.00
   -7    1    0     -0.63      0.00
   -6    1    0      0.18      0.00
   -5    1    0     -0.39      0.00
   -4    1    0     -0.07      0.00
   -3    1    0      0.72      0.00
   -2    1    0     -8.38      0.00
    2    1    0      1.59      0.00
    3    1    0     -1.02      0.00
    4    1    0     -1.06      0.00
    5    1    0     -0.70      0.00
    6    1    0      0.53      0.00
    7    1    0     -0.19      0.00
    8    1    0      0.57      0.00
    9    1    0      0.65      0.00
   10    1    0      0.38      0.00
   11    1    0      0.87      0.00
   12    1    0     -1.81      0.00
   13    1    0      1.05      0.00
   14    1    0      1.31      0.00
  -13    2    0      0.86      0.00
  -12    2    0     -0.04      0.00
  -11    2    0     -0.28      0.00
  -10    2    0      0.81      0.00
   -9    2    0     -0.25      0.00
   -8    2    0     -0.93      0.00
   -7    2    0      1.06      0.00
   -6    2    0     -0.05      0.00
   -5    2    0      0.08      0.00
   -4    2    0     -0.41      0.00
   -3    2    0     -3.00      0.00
   -2    2    0     11.95      0.00
   -1    2    0      5.60      0.00
    0    2    0     49.08      0.00
    1    2    0      0.45      0.00
    2    2    0      0.99      0.00
    3    2    0      1.06      0.00
    4    2    0      0.80      0.00
    5    2    0      0.33      0.00
    6    2    0      0.05      0.00
    7    2    0      0.29      0.00
    8    2    0      0.07      0.00
    9    2    0      0.28      0.00
   10    2    0     -0.93      0.00
   11    2    0     -0.93      0.00
   12    2    0      0.80      0.00
   13    2    0     -0.85      0.00
   14    2    0     -1.09      0.00
  -13    3    0     -1.45      0.00
  -12    3    0      0.10      0.00
  -11    3    0     -0.14      0.00
  -10    3    0     -0.23      0.00
   -9    3    0     -0.38      0.00
   -8    3    0      0.56      0.00
   -7    3    0     -1.02      0.00
   -6    3    0     -0.05      0.00
   -5    3    0     -0.32      0.00
   -4    3    0     -0.53      0.00
   -3    3    0      3.51      0.00
   -2    3    0    -10.08      0.00
   -1    3    0     -6.47      0.00
    0    3    0    -14.48      0.00
    1    3    0      8.51      0.00
    2    3    0     -0.94      0.00
    3    3    0     -0.42      0.00
    4    3    0     -0.14      0.00
    5    3    0     -0.23      0.00
    6    3    0     -0.81      0.00
    7    3    0      0.04      0.00
    8    3    0      0.67      0.00
    9    3    0     -0.37      0.00
   10    3    0      1.00      0.00
   11    3    0      0.19      0.00
   12    3    0      0.42      0.00
   13    3    0      0.08      0.00
   14    3    0      0.18      0.00
  -13    4    0      1.49      0.00
  -12    4    0      0.15      0.00
  -11    4    0      0.50      0.00
  -10    4    0      0.24      0.00
   -9    4    0      0.46      0.00
   -8    4    0      0.08      0.00
   -7    4    0      0.58      0.00
   -6    4    0     -0.03      0.00
   -5    4    0     -0.32      0.00
   -4    4    0      0.32      0.00
   -3    4    0     -3.42      0.00
   -2    4    0      7.40      0.00
   -1    4    0      7.86      0.00
    0    4    0      2.47      0.00
    1    4    0     -9.14      0.00
    2    4    0      2.27      0.00
    3    4    0      1.57      0.00
    4    4    0     -0.58      0.00
    5    4    0     -0.46      0.00
    6    4    0      0.60      0.00
    7    4    0      0.57      0.00
    8    4    0     -0.13      0.00
    9    4    0      1.11      0.00
   10    4    0      0.42      0.00
   11    4    0      1.07      0.00
   12    4    0     -1.42      0.00
   13    4    0      0.17      0.00
   14    4    0      0.45      0.00
  -13    5    0     -1.57      0.00
  -12    5    0     -1.10      0.00
  -11    5    0     -0.65      0.00
  -10    5    0     -0.79      0.00
   -9    5    0     -0.08      0.00
   -8    5    0     -0.39      0.00
   -7    5    0     -0.14      0.00
   -6    5    0      0.24      0.00
   -5    5    0      0.69      0.00
   -4    5    0     -0.32      0.00
   -3    5    0      2.05      0.00
   -2    5    0     -4.24      0.00
   -1    5    0     -6.17      0.00
    0    5    0     -0.05      0.00
    1    5    0      7.27      0.00
    2    5    0     -0.53      0.00
    3    5    0     -1.39      0.00
    4    5    0      0.00      0.00
    5    5    0     -0.39      0.00
    6    5    0     -0.02      0.00
    7    5    0     -0.37      0.00
    8    5    0      0.28      0.00
    9    5    0      0.14      0.00
   10    5    0     -0.42      0.00
   11    5    0     -1.20      0.00
   12    5    0      1.58      0.00
   13    5    0     -0.23      0.00
   14    5    0     -0.29      0.00
  -13    6    0      0.12      0.00
  -12    6    0      0.84      0.00
  -11    6    0      0.16      0.00
  -10    6    0      0.64      0.00
   -9    6    0     -0.42      0.00
   -8    6    0     -0.12      0.00
   -7    6    0     -0.17      0.00
   -6    6    0     -0.42      0.00
   -5    6    0     -0.69      0.00
   -4    6    0     -0.31      0.00
   -3    6    0     -1.18      0.00
   -2    6    0      0.45      0.00
   -1    6    0      3.73      0.00
    0    6    0      0.39      0.00
    1    6    0     -3.43      0.00
    2    6    0      0.20      0.00
    3    6    0      0.04      0.00
    4    6    0     -0.51      0.00
    5    6    0      0.40      0.00
    6    6    0     -0.54      0.00
    7    6    0      0.15      0.00
    8    6    0      0.39      0.00
    9    6    0     -0.41      0.00
   10    6    0     -0.13      0.00
   11    6    0      0.32      0.00
   12    6    0     -1.01      0.00
   13    6    0      0.01      0.00
   14    6    0     -0.56      0.00
  -13    7    0      1.37      0.00
  -12    7    0     -0.42      0.00
  -11    7    0     -0.41      0.00
  -10    7    0      0.04      0.00
   -9    7    0      0.82      0.00
   -8    7    0      0.60      0.00
   -7    7    0      0.51      0.00
   -6    7    0      0.54      0.00
   -5    7    0      0.55      0.00
   -4    7    0      0.65      0.00
   -3    7    0      0.12      0.00
   -2    7    0      1.10      0.00
   -1    7    0     -1.31      0.00
    0    7    0      0.49      0.00
    1    7    0      1.57      0.00
    2    7    0     -0.78      0.00
    3    7    0     -0.03      0.00
    4    7    0      0.46      0.00
    5    7    0     -0.36      0.00
    6    7    0      0.37      0.00
    7    7    0      0.31      0.00
    8    7    0      0.09      0.00
    9    7    0      0.36      0.00
   10    7    0      1.47      0.00
   11    7    0      1.28      0.00
   12    7    0     -0.40      0.00
   13    7    0     -0.91      0.00
  -13    8    0     -2.85      0.00
  -12    8    0     -0.41      0.00
  -11    8    0      0.42      0.00
  -10    8    0     -0.50      0.00
   -9    8    0     -1.12      0.00
   -8    8    0     -0.40      0.00
   -7    8    0     -0.88      0.00
   -6    8    0     -0.40      0.00
   -5    8    0     -0.24      0.00
   -4    8    0     -0.16      0.00
   -3    8    0      0.50      0.00
   -2    8    0     -0.08      0.00
   -1    8    0     -0.53      0.00
    0    8    0     -1.25      0.00
    1    8    0     -0.60      0.00
    2    8    0      0.43      0.00
    3    8    0      0.25      0.00
    4    8    0     -0.73      0.00
    5    8    0     -0.25      0.00
    6    8    0     -0.16      0.00
    7    8    0     -0.19      0.00
    8    8    0     -0.42      0.00
    9    8    0      0.73      0.00
   10    8    0     -1.37      0.00
   11    8    0     -1.60      0.00
   12    8    0      1.83      0.00
   13    8    0      2.39      0.00
  -13    9    0      3.06      0.00
  -12    9    0     -0.22      0.00
  -11    9    0     -0.36      0.00
  -10    9    0      0.34      0.00
   -9    9    0      1.03      0.00
   -8    9    0     -0.26      0.00
   -7    9    0      0.74      0.00
   -6    9    0      0.07      0.00
   -5    9    0      0.13      0.00
   -4    9    0     -0.34      0.00
   -3    9    0     -0.37      0.00
   -2    9    0     -1.43      0.00
   -1    9    0      1.12      0.00
    0    9    0      1.34      0.00
    1    9    0     -0.32      0.00
    2    9    0      0.47      0.00
    3    9    0     -0.36      0.00
    4    9    0      0.44      0.00
    5    9    0     -0.04      0.00
    6    9    0      0.24      0.00
    7    9    0      0.10      0.00
    8    9    0      0.17      0.00
    9    9    0     -1.62      0.00
   10    9    0      0.41      0.00
   11    9    0      0.61      0.00
   12    9    0     -1.92      0.00
   13    9    0     -3.22      0.00
  -12   10    0      0.84      0.00
  -11   10    0     -0.51      0.00
  -10   10    0     -0.74      0.00
   -9   10    0     -0.34      0.00
   -8   10    0      0.91      0.00
   -7   10    0     -0.13      0.00
   -6   10    0      0.29      0.00
   -5   10    0      0.09      0.00
   -4   10    0      0.60      0.00
   -3   10    0      0.02      0.00
   -2   10    0      1.51      0.00
   -1   10    0     -0.68      0.00
    0   10    0     -0.78      0.00
    1   10    0      0.84      0.00
    2   10    0     -0.93      0.00
    3   10    0     -0.09      0.00
    4   10    0     -0.37      0.00
    5   10    0      1.09      0.00
    6   10    0     -0.14      0.00
    7   10    0     -0.40      0.00
    8   10    0     -0.25      0.00
    9   10    0      0.87      0.00
   10   10    0     -0.40      0.00
   11   10    0      0.60      0.00
   12   10    0      1.09      0.00
  -12   11    0     -0.98      0.00
  -11   11    0      0.95      0.00
  -10   11    0      1.52      0.00
   -9   11    0     -0.10      0.00
   -8   11    0     -0.99      0.00
   -7   11    0     -0.14      0.00
   -6   11    0     -0.17      0.00
   -5   11    0     -0.03      0.00
   -4   11    0     -0.39      0.00
   -3   11    0      0.58      0.00
   -2   11    0     -0.30      0.00
   -1   11    0      0.30      0.00
    0   11    0      0.26      0.00
    1   11    0     -0.60      0.00
    2   11    0      0.65      0.00
    3   11    0      0.15      0.00
    4   11    0      0.65      0.00
    5   11    0     -1.17      0.00
    6   11    0      0.39      0.00
    7   11    0      0.47      0.00
    8   11    0      0.09      0.00
    9   11    0     -1.09      0.00
   10   11    0     -0.14      0.00
   11   11    0     -1.35      0.00
   12   11    0     -0.14      0.00
  -10   12    0     -2.25      0.00
   -9   12    0     -0.44      0.00
   -8   12    0      0.55      0.00
   -7   12    0      0.31      0.00
   -6   12    0      0.26      0.00
   -5   12    0      0.44      0.00
   -4   12    0      0.94      0.00
   -3   12    0     -0.38      0.00
   -2   12    0     -0.25      0.00
   -1   12    0      0.00      0.00
    0   12    0      0.09      0.00
    1   12    0      0.07      0.00
    2   12    0     -0.49      0.00
    3   12    0      0.00      0.00
    4   12    0     -0.62      0.00
    5   12    0      0.80      0.00
    6   12    0     -0.27      0.00
    7   12    0      0.51      0.00
    8   12    0     -0.88      0.00
    9   12    0      0.85      0.00
   10   12    0     -0.40      0.00
   11   12    0     -0.03      0.00
   -9   13    0      0.95      0.00
   -8   13    0     -0.13      0.00
   -7   13    0     -0.39      0.00
   -6   13    0     -0.29      0.00
   -5   13    0     -0.32      0.00
   -4   13    0     -0.63      0.00
   -3   13    0      0.33      0.00
   -2   13    0      0.37      0.00
   -1   13    0     -0.08      0.00
    0   13    0     -0.30      0.00
    1   13    0     -0.09      0.00
    2   13    0     -0.12      0.00
    3   13    0     -0.76      0.00
    4   13    0     -0.17      0.00
    5   13    0     -0.33      0.00
    6   13    0      0.78      0.00
    7   13    0     -1.59      0.00
    8   13    0      1.15      0.00
    9   13    0     -2.12      0.00
   10   13    0     -0.97      0.00
   11   13    0      0.41      0.00
   -8   14    0     -0.18      0.00
   -7   14    0     -0.01      0.00
   -6   14    0      0.79      0.00
   -5   14    0      0.91      0.00
   -4   14    0      0.48      0.00
   -3   14    0      0.63      0.00
   -2   14    0      0.22      0.00
   -1   14    0      0.39      0.00
    0   14    0      0.10      0.00
    1   14    0     -0.15      0.00
    2   14    0      0.05      0.00
    3   14    0      0.32      0.00
    4   14    0      0.23      0.00
    5   14    0      0.10      0.00
    6   14    0     -0.64      0.00
    7   14    0      2.67      0.00
    8   14    0     -0.50      0.00
    9   14    0      2.46      0.00
   10   14    0      1.29      0.00
   -8   15    0     -0.93      0.00
   -7   15    0      0.20      0.00
   -6   15    0     -1.36      0.00
   -5   15    0     -1.34      0.00
   -4   15    0      0.61      0.00
   -3   15    0     -0.54      0.00
   -2   15    0      0.39      0.00
   -1   15    0     -0.23      0.00
    0   15    0      0.72      0.00
    1   15    0      0.35      0.00
    2   15    0     -0.47      0.00
    3   15    0     -0.21      0.00
    4   15    0     -0.53      0.00
    5   15    0      0.25      0.00
    6   15    0      0.58      0.00
    7   15    0     -1.83      0.00
    8   15    0      0.04      0.00
   -7   16    0     -1.25      0.00
   -6   16    0      0.75      0.00
   -5   16    0      1.44      0.00
   -4   16    0     -0.75      0.00
   -3   16    0      0.95      0.00
   -2   16    0     -0.51      0.00
   -1   16    0      0.58      0.00
    0   16    0     -1.20      0.00
    1   16    0     -0.65      0.00
    2   16    0      0.35      0.00
    3   16    0     -0.56      0.00
    4   16    0      0.18      0.00
    5   16    0     -1.19      0.00
    6   16    0      0.02      0.00
   -6   17    0     -0.75      0.00
   -5   17    0     -1.49      0.00
   -4   17    0      0.05      0.00
   -3   17    0     -0.91      0.00
   -2   17    0      0.51      0.00
   -1   17    0     -0.39      0.00
    0   17    0      1.38      0.00
    1   17    0      0.87      0.00
    2   17    0      0.06      0.00
    3   17    0      0.49      0.00
    4   17    0     -0.66      0.00
   -5   18    0      0.33      0.00
   -4   18    0      0.51      0.00
   -3   18    0      0.67      0.00
   -2   18    0      0.24      0.00
   -1   18    0      0.35      0.00
    0   18    0     -1.04      0.00
    1   18    0     -0.46      0.00
    2   18    0     -0.64      0.00
   -3   19    0     -0.52      0.00
   -2   19    0     -0.62      0.00
   -1   19    0     -0.47      0.00
    0   19    0      0.88      0.00
   -1  -18    1     -0.39      0.00
    0  -18    1     -0.65      0.00
    1  -18    1     -0.45      0.00
    2  -18    1      0.44      0.00
    3  -18    1      0.93      0.00
    4  -18    1      0.97      0.00
   -3  -17    1      0.37      0.00
   -2  -17    1     -0.35      0.00
   -1  -17    1      0.39      0.00
    0  -17    1      0.83      0.00
    1  -17    1      0.34      0.00
    2  -17    1      0.27      0.00
    3  -17    1     -0.54      0.00
    4  -17    1      0.14      0.00
    5  -17    1     -0.58      0.00
    6  -17    1      0.04      0.00
   -5  -16    1     -0.62      0.00
   -4  -16    1     -0.40      0.00
   -3  -16    1     -0.10      0.00
   -2  -16    1      0.89      0.00
   -1  -16    1     -0.36      0.00
    0  -16    1     -1.08      0.00
    1  -16    1     -0.36      0.00
    2  -16    1     -0.45      0.00
    3  -16    1      0.14      0.00
    4  -16    1     -0.66      0.00
    5  -16    1      0.90      0.00
    6  -16    1      0.97      0.00
   -7  -15    1     -3.14      0.00
   -6  -15    1      1.17      0.00
   -5  -15    1     -0.09      0.00
   -4  -15    1      0.47      0.00
   -3  -15    1     -0.48      0.00
   -2  -15    1     -1.08      0.00
   -1  -15    1      0.05      0.00
    0  -15    1      0.55      0.00
    1  -15    1      0.14      0.00
    2  -15    1     -0.22      0.00
    3  -15    1     -0.07      0.00
    4  -15    1      0.59      0.00
    5  -15    1     -0.33      0.00
    6  -15    1     -0.85      0.00
    7  -15    1      0.61      0.00
   -8  -14    1     -0.87      0.00
   -7  -14    1      2.92      0.00
   -6  -14    1     -1.55      0.00
   -5  -14    1      0.61      0.00
   -4  -14    1      0.06      0.00
   -3  -14    1      1.14      0.00
   -2  -14    1      0.89      0.00
   -1  -14    1     -0.01      0.00
    0  -14    1     -0.27      0.00
    1  -14    1     -0.30      0.00
    2  -14    1      0.15      0.00
    3  -14    1     -0.30      0.00
    4  -14    1      0.14      0.00
    5  -14    1      0.32      0.00
    6  -14    1      1.01      0.00
    7  -14    1      0.41      0.00
    8  -14    1      1.15      0.00
  -10  -13    1      1.35      0.00
   -9  -13    1     -0.41      0.00
   -8  -13    1      0.98      0.00
   -7  -13    1     -2.53      0.00
   -6  -13    1      0.81      0.00
   -5  -13    1     -0.72      0.00
   -4  -13    1      0.23      0.00
   -3  -13    1     -0.75      0.00
   -2  -13    1     -0.25      0.00
   -1  -13    1     -0.04      0.00
    0  -13    1     -0.06      0.00
    1  -13    1     -0.08      0.00
    2  -13    1     -0.08      0.00
    3  -13    1      0.32      0.00
    4  -13    1     -1.06      0.00
    5  -13    1     -0.57      0.00
    6  -13    1     -0.33      0.00
    7  -13    1     -0.36      0.00
    8  -13    1     -0.42      0.00
    9  -13    1      1.03      0.00
  -11  -12    1      0.42      0.00
  -10  -12    1     -1.67      0.00
   -9  -12    1     -0.01      0.00
   -8  -12    1     -1.10      0.00
   -7  -12    1      0.43      0.00
   -6  -12    1     -0.62      0.00
   -5  -12    1      0.96      0.00
   -4  -12    1     -0.37      0.00
   -3  -12    1      0.65      0.00
   -2  -12    1      0.18      0.00
   -1  -12    1      0.38      0.00
    0  -12    1      0.19      0.00
    1  -12    1      0.16      0.00
    2  -12    1     -0.49      0.00
    3  -12    1     -1.04      0.00
    4  -12    1      0.56      0.00
    5  -12    1      0.40      0.00
    6  -12    1     -0.22      0.00
    7  -12    1      0.24      0.00
    8  -12    1      0.56      0.00
    9  -12    1     -0.51      0.00
   10  -12    1     -1.73      0.00
  -11  -11    1     -0.38      0.00
  -10  -11    1      1.93      0.00
   -9  -11    1      0.30      0.00
   -8  -11    1      0.22      0.00
   -7  -11    1      0.40      0.00
   -6  -11    1     -0.12      0.00
   -5  -11    1     -1.53      0.00
   -4  -11    1      0.77      0.00
   -3  -11    1      0.14      0.00
   -2  -11    1      0.61      0.00
   -1  -11    1     -0.39      0.00
    0  -11    1      0.05      0.00
    1  -11    1     -0.22      0.00
    2  -11    1     -0.12      0.00
    3  -11    1      0.66      0.00
    4  -11    1     -0.51      0.00
    5  -11    1     -0.47      0.00
    6  -11    1      0.13      0.00
    7  -11    1     -0.01      0.00
    8  -11    1     -0.56      0.00
    9  -11    1     -0.02      0.00
   10  -11    1      0.75      0.00
   11  -11    1     -0.08      0.00
   12  -11    1     -1.60      0.00
  -12  -10    1      0.71      0.00
  -11  -10    1      0.39      0.00
  -10  -10    1     -0.33      0.00
   -9  -10    1      1.12      0.00
   -8  -10    1      0.67      0.00
   -7  -10    1     -0.76      0.00
   -6  -10    1      0.07      0.00
   -5  -10    1      1.15      0.00
   -4  -10    1     -0.62      0.00
   -3  -10    1     -0.09      0.00
   -2  -10    1     -1.01      0.00
   -1  -10    1      0.53      0.00
    0  -10    1     -0.53      0.00
    1  -10    1     -0.21      0.00
    2  -10    1      1.01      0.00
    3  -10    1     -0.24      0.00
    4  -10    1      0.33      0.00
    5  -10    1     -0.04      0.00
    6  -10    1     -0.17      0.00
    7  -10    1     -0.40      0.00
    8  -10    1      0.25      0.00
    9  -10    1      0.05      0.00
   10  -10    1      0.32      0.00
   11  -10    1      0.64      0.00
   12  -10    1      1.92      0.00
  -12   -9    1     -1.67      0.00
  -11   -9    1      1.30      0.00
  -10   -9    1      0.73      0.00
   -9   -9    1     -1.34      0.00
   -8   -9    1     -0.33      0.00
   -7   -9    1      0.54      0.00
   -6   -9    1     -0.47      0.00
   -5   -9    1     -0.33      0.00
   -4   -9    1      0.30      0.00
   -3   -9    1     -0.10      0.00
   -2   -9    1      0.95      0.00
   -1   -9    1      0.03      0.00
    0   -9    1      1.26      0.00
    1   -9    1      1.01      0.00
    2   -9    1     -0.96      0.00
    3   -9    1     -0.32      0.00
    4   -9    1     -0.54      0.00
    5   -9    1      0.00      0.00
    6   -9    1      0.04      0.00
    7   -9    1      0.47      0.00
    8   -9    1      0.02      0.00
    9   -9    1      0.05      0.00
   10   -9    1     -0.60      0.00
   11   -9    1     -1.02      0.00
   12   -9    1     -1.06      0.00
   13   -9    1      2.41      0.00
  -13   -8    1      2.40      0.00
  -12   -8    1      2.01      0.00
  -11   -8    1     -1.77      0.00
  -10   -8    1     -1.02      0.00
   -9   -8    1      1.49      0.00
   -8   -8    1      0.13      0.00
   -7   -8    1     -0.59      0.00
   -6   -8    1      0.41      0.00
   -5   -8    1     -0.53      0.00
   -4   -8    1     -0.04      0.00
   -3   -8    1      0.11      0.00
   -2   -8    1      0.22      0.00
   -1   -8    1     -0.79      0.00
    0   -8    1     -1.37      0.00
    1   -8    1     -0.74      0.00
    2   -8    1     -0.36      0.00
    3   -8    1      0.45      0.00
    4   -8    1      0.30      0.00
    5   -8    1     -0.02      0.00
    6   -8    1     -0.24      0.00
    7   -8    1     -0.39      0.00
    8   -8    1     -0.35      0.00
    9   -8    1     -0.08      0.00
   10   -8    1      0.55      0.00
   11   -8    1      1.16      0.00
   12   -8    1      0.37      0.00
   13   -8    1     -2.27      0.00
  -13   -7    1     -1.57      0.00
  -12   -7    1     -1.20      0.00
  -11   -7    1      1.12      0.00
  -10   -7    1      1.31      0.00
   -9   -7    1     -0.26      0.00
   -8   -7    1      0.00      0.00
   -7   -7    1      0.59      0.00
   -6   -7    1     -0.18      0.00
   -5   -7    1      0.50      0.00
   -4   -7    1     -0.14      0.00
   -3   -7    1      0.42      0.00
   -2   -7    1     -1.45      0.00
   -1   -7    1      1.02      0.00
    0   -7    1      0.09      0.00
    1   -7    1     -1.14      0.00
    2   -7    1      0.86      0.00
    3   -7    1     -0.16      0.00
    4   -7    1     -0.32      0.00
    5   -7    1      0.04      0.00
    6   -7    1      0.38      0.00
    7   -7    1      0.03      0.00
    8   -7    1      0.17      0.00
    9   -7    1      0.06      0.00
   10   -7    1     -0.69      0.00
   11   -7    1     -0.29      0.00
   12   -7    1      0.26      0.00
   13   -7    1      1.31      0.00
  -13   -6    1      0.99      0.00
  -12   -6    1     -0.01      0.00
  -11   -6    1      0.13      0.00
  -10   -6    1     -0.31      0.00
   -9   -6    1     -0.69      0.00
   -8   -6    1     -0.10      0.00
   -7   -6    1     -0.42      0.00
   -6   -6    1     -0.17      0.00
   -5   -6    1      0.04      0.00
   -4   -6    1      0.66      0.00
   -3   -6    1     -0.02      0.00
   -2   -6    1      2.06      0.00
   -1   -6    1     -1.83      0.00
    0   -6    1      1.52      0.00
    1   -6    1      3.23      0.00
    2   -6    1      1.28      0.00
    3   -6    1     -0.51      0.00
    4   -6    1      0.57      0.00
    5   -6    1     -0.28      0.00
    6   -6    1     -0.37      0.00
    7   -6    1      0.29      0.00
    8   -6    1      0.30      0.00
    9   -6    1     -0.25      0.00
   10   -6    1      1.17      0.00
   11   -6    1      0.13      0.00
   12   -6    1      0.28      0.00
   13   -6    1      0.70      0.00
  -13   -5    1     -0.22      0.00
  -12   -5    1      1.20      0.00
  -11   -5    1     -0.75      0.00
  -10   -5    1     -1.06      0.00
   -9   -5    1      0.11      0.00
   -8   -5    1     -0.16      0.00
   -7   -5    1     -0.18      0.00
   -6   -5    1      0.09      0.00
   -5   -5    1      0.38      0.00
   -4   -5    1      0.07      0.00
   -3   -5    1     -0.50      0.00
   -2   -5    1     -2.50      0.00
   -1   -5    1      4.52      0.00
    0   -5    1     -1.53      0.00
    1   -5    1     -3.94      0.00
    2   -5    1     -4.67      0.00
    3   -5    1      1.19      0.00
    4   -5    1     -0.98      0.00
    5   -5    1     -0.07      0.00
    6   -5    1      0.08      0.00
    7   -5    1     -0.56      0.00
    8   -5    1     -0.39      0.00
    9   -5    1      0.30      0.00
   10   -5    1     -0.87      0.00
   11   -5    1      0.06      0.00
   12   -5    1     -0.01      0.00
   13   -5    1     -1.19      0.00
  -14   -4    1      0.55      0.00
  -13   -4    1     -0.04      0.00
  -12   -4    1     -1.37      0.00
  -11   -4    1      0.39      0.00
  -10   -4    1      0.72      0.00
   -9   -4    1      0.07      0.00
   -8   -4    1     -0.45      0.00
   -7   -4    1     -0.19      0.00
   -6   -4    1      0.61      0.00
   -5   -4    1     -0.03      0.00
   -4   -4    1      0.12      0.00
   -3   -4    1      1.21      0.00
   -2   -4    1      3.39      0.00
   -1   -4    1     -8.19      0.00
    0   -4    1      0.97      0.00
    1   -4    1      3.82      0.00
    2   -4    1      8.08      0.00
    3   -4    1     -1.46      0.00
    4   -4    1      0.82      0.00
    5   -4    1      0.41      0.00
    6   -4    1     -0.10      0.00
    7   -4    1      1.01      0.00
    8   -4    1     -0.05      0.00
    9   -4    1      0.09      0.00
   10   -4    1      0.53      0.00
   11   -4    1      0.12      0.00
   12   -4    1      0.33      0.00
   13   -4    1      1.03      0.00
  -14   -3    1      0.68      0.00
  -13   -3    1      1.07      0.00
  -12   -3    1      1.31      0.00
  -11   -3    1      0.35      0.00
  -10   -3    1     -0.04      0.00
   -9   -3    1     -0.82      0.00
   -8   -3    1     -0.46      0.00
   -7   -3    1      0.09      0.00
   -6   -3    1     -0.75      0.00
   -5   -3    1      0.10      0.00
   -4   -3    1      0.02      0.00
   -3   -3    1     -0.76      0.00
   -2   -3    1     -4.13      0.00
   -1   -3    1      7.70      0.00
    0   -3    1    -10.12      0.00
    1   -3    1     -3.82      0.00
    2   -3    1    -10.41      0.00
    3   -3    1      2.12      0.00
    4   -3    1     -0.18      0.00
    5   -3    1     -0.87      0.00
    6   -3    1     -0.06      0.00
    7   -3    1     -1.52      0.00
    8   -3    1      0.69      0.00
    9   -3    1     -0.13      0.00
   10   -3    1     -0.65      0.00
   11   -3    1      0.45      0.00
   12   -3    1      0.02      0.00
   13   -3    1      0.19      0.00
  -14   -2    1     -1.89      0.00
  -13   -2    1     -1.45      0.00
  -12   -2    1      0.08      0.00
  -11   -2    1     -0.40      0.00
  -10   -2    1     -0.75      0.00
   -9   -2    1      0.00      0.00
   -8   -2    1      0.29      0.00
   -7   -2    1     -0.40      0.00
   -6   -2    1      0.25      0.00
   -5   -2    1      0.78      0.00
   -4   -2    1      0.95      0.00
   -3   -2    1     -0.16      0.00
   -2   -2    1      0.77      0.00
   -1   -2    1     -8.32      0.00
    0   -2    1     32.89      0.00
    1   -2    1      2.98      0.00
    2   -2    1     11.61      0.00
    3   -2    1     -0.79      0.00
    4   -2    1      0.28      0.00
    5   -2    1      0.97      0.00
    6   -2    1     -0.16      0.00
    7   -2    1      1.29      0.00
    8   -2    1     -0.87      0.00
    9   -2    1     -0.07      0.00
   10   -2    1      1.61      0.00
   11   -2    1     -0.58      0.00
   12   -2    1      0.13      0.00
   13   -2    1     -0.42      0.00
  -13   -1    1      1.62      0.00
  -12   -1    1     -1.35      0.00
  -11   -1    1     -0.38      0.00
  -10   -1    1      0.09      0.00
   -9   -1    1     -0.07      0.00
   -8   -1    1     -0.85      0.00
   -7   -1    1     -0.10      0.00
   -6   -1    1      0.60      0.00
   -5   -1    1     -0.24      0.00
   -4   -1    1     -0.84      0.00
   -3   -1    1     -0.63      0.00
   -2   -1    1     -1.46      0.00
   -1   -1    1      5.36      0.00
    1   -1    1     -7.65      0.00
    2   -1    1     -9.98      0.00
    3   -1    1     -1.52      0.00
    4   -1    1      0.05      0.00
    5   -1    1     -0.51      0.00
    6   -1    1      0.26      0.00
    7   -1    1     -1.00      0.00
    8   -1    1      0.60      0.00
    9   -1    1      0.42      0.00
   10   -1    1     -1.98      0.00
   11   -1    1      0.69      0.00
   12   -1    1     -0.20      0.00
   13   -1    1      0.68      0.00
   14   -1    1     -1.27      0.00
  -13    0    1     -0.63      0.00
  -12    0    1      2.07      0.00
  -11    0    1      1.09      0.00
  -10    0    1      0.24      0.00
   -9    0    1     -0.86      0.00
   -8    0    1      0.02      0.00
   -7    0    1     -0.17      0.00
   -6    0    1     -0.49      0.00
   -5    0    1      0.33      0.00
   -4    0    1      0.30      0.00
   -3    0    1     -0.89      0.00
   -2    0    1      0.52      0.00
    2    0    1      1.68      0.00
    3    0    1      3.12      0.00
    4    0    1      0.82      0.00
    5    0    1      0.72      0.00
    6    0    1     -0.50      0.00
    7    0    1      0.47      0.00
    8    0    1     -0.58      0.00
    9    0    1     -0.76      0.00
   10    0    1      1.22      0.00
   11    0    1     -1.10      0.00
   12    0    1      0.61      0.00
   13    0    1     -0.84      0.00
   14    0    1      0.71      0.00
  -13    1    1     -0.38      0.00
  -12    1    1     -1.32      0.00
  -11    1    1     -0.97      0.00
  -10    1    1     -0.31      0.00
   -9    1    1      1.01      0.00
   -8    1    1      0.13      0.00
   -7    1    1      0.04      0.00
   -6    1    1      0.31      0.00
   -5    1    1      0.35      0.00
   -4    1    1      0.82      0.00
   -3    1    1      2.27      0.00
   -2    1    1     -5.78      0.00
    2    1    1      1.86      0.00
    3    1    1     -3.16      0.00
    4    1    1     -1.08      0.00
    5    1    1     -0.49      0.00
    6    1    1      0.52      0.00
    7    1    1     -0.57      0.00
    8    1    1      0.12      0.00
    9    1    1      0.67      0.00
   10    1    1      0.14      0.00
   11    1    1      1.79      0.00
   12    1    1     -0.84      0.00
   13    1    1      0.72      0.00
   14    1    1     -0.39      0.00
  -13    2    1      1.56      0.00
  -12    2    1      0.33      0.00
  -11    2    1      0.42      0.00
  -10    2    1     -0.37      0.00
   -9    2    1     -0.83      0.00
   -8    2    1     -0.40      0.00
   -7    2    1      0.15      0.00
   -6    2    1      0.33      0.00
   -5    2    1      0.30      0.00
   -4    2    1     -0.29      0.00
   -3    2    1     -4.61      0.00
   -2    2    1      5.47      0.00
   -1    2    1     -2.13      0.00
    0    2    1     41.03      0.00
    1    2    1      5.62      0.00
    2    2    1     -4.67      0.00
    3    2    1      0.44      0.00
    4    2    1      0.82      0.00
    5    2    1      0.64      0.00
    6    2    1     -0.08      0.00
    7    2    1      0.07      0.00
    8    2    1     -0.62      0.00
    9    2    1     -0.74      0.00
   10    2    1     -1.51      0.00
   11    2    1     -1.90      0.00
   12    2    1      0.59      0.00
   13    2    1     -0.02      0.00
   14    2    1      0.48      0.00
  -13    3    1     -1.75      0.00
  -12    3    1      0.42      0.00
  -11    3    1     -0.10      0.00
  -10    3    1      0.73      0.00
   -9    3    1     -0.13      0.00
   -8    3    1     -0.06      0.00
   -7    3    1     -0.17      0.00
   -6    3    1     -0.25      0.00
   -5    3    1      0.44      0.00
   -4    3    1      0.39      0.00
   -3    3    1      5.48      0.00
   -2    3    1     -5.83      0.00
   -1    3    1     -7.31      0.00
    0    3    1    -16.24      0.00
    1    3    1      0.39      0.00
    2    3    1     -0.23      0.00
    3    3    1     -1.07      0.00
    4    3    1      0.19      0.00
    5    3    1      0.26      0.00
    6    3    1     -0.32      0.00
    7    3    1     -0.30      0.00
    8    3    1      0.39      0.00
    9    3    1     -0.53      0.00
   10    3    1      1.11      0.00
   11    3    1      0.49      0.00
   12    3    1     -0.23      0.00
   13    3    1     -0.86      0.00
   14    3    1     -0.97      0.00
  -13    4    1      2.01      0.00
  -12    4    1      0.44      0.00
  -11    4    1      0.35      0.00
  -10    4    1     -0.15      0.00
   -9    4    1      0.87      0.00
   -8    4    1      0.83      0.00
   -7    4    1     -0.02      0.00
   -6    4    1      0.51      0.00
   -5    4    1     -0.40      0.00
   -4    4    1      0.63      0.00
   -3    4    1     -4.33      0.00
   -2    4    1      4.06      0.00
   -1    4    1      8.72      0.00
    0    4    1      1.49      0.00
    1    4    1     -8.32      0.00
    2    4    1     -0.45      0.00
    3    4    1      1.54      0.00
    4    4    1     -0.56      0.00
    5    4    1     -0.25      0.00
    6    4    1      0.41      0.00
    7    4    1      0.26      0.00
    8    4    1     -0.79      0.00
    9    4    1      0.51      0.00
   10    4    1     -0.46      0.00
   11    4    1      0.89      0.00
   12    4    1     -0.34      0.00
   13    4    1      0.74      0.00
   14    4    1      0.56      0.00
  -13    5    1     -1.03      0.00
  -12    5    1     -1.28      0.00
  -11    5    1     -0.14      0.00
  -10    5    1     -0.56      0.00
   -9    5    1     -0.79      0.00
   -8    5    1     -0.88      0.00
   -7    5    1      0.43      0.00
   -6    5    1     -0.25      0.00
   -5    5    1      0.89      0.00
   -4    5    1      0.13      0.00
   -3    5    1      3.51      0.00
   -2    5    1     -1.59      0.00
   -1    5    1     -7.32      0.00
    0    5    1     -0.33      0.00
    1    5    1      6.79      0.00
    2    5    1      1.08      0.00
    3    5    1     -1.71      0.00
    4    5    1      0.84      0.00
    5    5    1      0.21      0.00
    6    5    1      0.27      0.00
    7    5    1     -0.50      0.00
    8    5    1     -0.39      0.00
    9    5    1     -0.53      0.00
   10    5    1     -0.64      0.00
   11    5    1     -1.51      0.00
   12    5    1      0.90      0.00
   13    5    1      0.57      0.00
   14    5    1      0.78      0.00
  -13    6    1     -0.10      0.00
  -12    6    1      1.66      0.00
  -11    6    1      0.08      0.00
  -10    6    1      0.43      0.00
   -9    6    1      0.29      0.00
   -8    6    1      0.26      0.00
   -7    6    1     -0.54      0.00
   -6    6    1      0.03      0.00
   -5    6    1     -0.69      0.00
   -4    6    1     -0.71      0.00
   -3    6    1     -1.68      0.00
   -2    6    1     -0.58      0.00
   -1    6    1      3.95      0.00
    0    6    1     -0.01      0.00
    1    6    1     -4.30      0.00
    2    6    1     -1.88      0.00
    3    6    1      0.72      0.00
    4    6    1     -0.55      0.00
    5    6    1      0.88      0.00
    6    6    1     -0.45      0.00
    7    6    1      0.11      0.00
    8    6    1      0.77      0.00
    9    6    1     -0.80      0.00
   10    6    1     -0.23      0.00
   11    6    1      0.23      0.00
   12    6    1     -1.01      0.00
   13    6    1     -1.53      0.00
   14    6    1     -2.22      0.00
  -13    7    1      1.68      0.00
  -12    7    1     -0.10      0.00
  -11    7    1     -0.07      0.00
  -10    7    1      0.44      0.00
   -9    7    1      0.51      0.00
   -8    7    1      0.44      0.00
   -7    7    1      0.99      0.00
   -6    7    1      0.33      0.00
   -5    7    1      0.45      0.00
   -4    7    1      1.25      0.00
   -3    7    1      0.60      0.00
   -2    7    1      1.65      0.00
   -1    7    1     -0.88      0.00
    0    7    1      0.70      0.00
    1    7    1      2.20      0.00
    2    7    1      0.88      0.00
    3    7    1      0.06      0.00
    4    7    1      1.35      0.00
    5    7    1     -0.46      0.00
    6    7    1      0.53      0.00
    7    7    1     -0.08      0.00
    8    7    1     -0.90      0.00
    9    7    1      0.65      0.00
   10    7    1      0.74      0.00
   11    7    1      0.98      0.00
   12    7    1      0.19      0.00
   13    7    1      1.19      0.00
   14    7    1      2.82      0.00
  -13    8    1     -2.55      0.00
  -12    8    1     -1.25      0.00
  -11    8    1      0.35      0.00
  -10    8    1     -0.93      0.00
   -9    8    1     -1.54      0.00
   -8    8    1     -0.28      0.00
   -7    8    1     -1.16      0.00
   -6    8    1     -0.30      0.00
   -5    8    1     -0.13      0.00
   -4    8    1     -0.88      0.00
   -3    8    1      0.07      0.00
   -2    8    1     -0.16      0.00
   -1    8    1     -0.66      0.00
    0    8    1     -1.06      0.00
    1    8    1     -0.71      0.00
    2    8    1      0.28      0.00
    3    8    1      0.67      0.00
    4    8    1     -0.96      0.00
    5    8    1      0.00      0.00
    6    8    1     -0.30      0.00
    7    8    1      0.44      0.00
    8    8    1      0.14      0.00
    9    8    1     -0.15      0.00
   10    8    1     -1.12      0.00
   11    8    1     -1.70      0.00
   12    8    1      0.91      0.00
   13    8    1      0.85      0.00
  -13    9    1      2.92      0.00
  -12    9    1      1.84      0.00
  -11    9    1      0.15      0.00
  -10    9    1      0.97      0.00
   -9    9    1      1.90      0.00
   -8    9    1     -0.44      0.00
   -7    9    1      0.75      0.00
   -6    9    1      0.01      0.00
   -5    9    1     -0.22      0.00
   -4    9    1      0.01      0.00
   -3    9    1     -0.23      0.00
   -2    9    1     -1.59      0.00
   -1    9    1      0.95      0.00
    0    9    1      0.78      0.00
    1    9    1     -0.65      0.00
    2    9    1     -0.18      0.00
    3    9    1     -0.78      0.00
    4    9    1      0.24      0.00
    5    9    1     -0.05      0.00
    6    9    1      0.21      0.00
    7    9    1     -0.65      0.00
    8    9    1      0.43      0.00
    9    9    1     -0.28      0.00
   10    9    1      0.42      0.00
   11    9    1      0.63      0.00
   12    9    1     -1.80      0.00
  -12   10    1     -1.00      0.00
  -11   10    1     -0.51      0.00
  -10   10    1     -1.23      0.00
   -9   10    1     -1.35      0.00
   -8   10    1      0.89      0.00
   -7   10    1      0.04      0.00
   -6   10    1      0.42      0.00
   -5   10    1      0.31      0.00
   -4   10    1      0.36      0.00
   -3   10    1     -0.08      0.00
   -2   10    1      1.57      0.00
   -1   10    1     -0.76      0.00
    0   10    1     -0.49      0.00
    1   10    1      1.09      0.00
    2   10    1     -0.39      0.00
    3   10    1      0.17      0.00
    4   10    1      0.00      0.00
    5   10    1      0.50      0.00
    6   10    1     -0.39      0.00
    7   10    1      0.20      0.00
    8   10    1     -0.11      0.00
    9   10    1      0.45      0.00
   10   10    1      0.44      0.00
   11   10    1      0.56      0.00
   12   10    1      1.36      0.00
  -11   11    1      1.11      0.00
  -10   11    1      2.17      0.00
   -9   11    1      0.63      0.00
   -8   11    1     -0.93      0.00
   -7   11    1     -0.50      0.00
   -6   11    1     -0.62      0.00
   -5   11    1     -0.21      0.00
   -4   11    1     -0.58      0.00
   -3   11    1      0.28      0.00
   -2   11    1     -0.57      0.00
   -1   11    1      0.39      0.00
    0   11    1      0.08      0.00
    1   11    1     -0.67      0.00
    2   11    1      0.65      0.00
    3   11    1      0.18      0.00
    4   11    1      0.21      0.00
    5   11    1     -0.96      0.00
    6   11    1      0.15      0.00
    7   11    1      0.36      0.00
    8   11    1      0.34      0.00
    9   11    1      0.32      0.00
   10   11    1     -0.43      0.00
   11   11    1     -0.78      0.00
   12   11    1     -0.63      0.00
  -10   12    1     -2.20      0.00
   -9   12    1     -0.30      0.00
   -8   12    1      0.42      0.00
   -7   12    1      0.37      0.00
   -6   12    1      0.06      0.00
   -5   12    1     -0.41      0.00
   -4   12    1      0.44      0.00
   -3   12    1     -0.63      0.00
   -2   12    1     -0.31      0.00
   -1   12    1     -0.23      0.00
    0   12    1      0.17      0.00
    1   12    1      0.05      0.00
    2   12    1     -0.53      0.00
    3   12    1      0.20      0.00
    4   12    1     -0.44      0.00
    5   12    1      0.31      0.00
    6   12    1     -0.42      0.00
    7   12    1     -0.02      0.00
    8   12    1     -0.28      0.00
    9   12    1      0.92      0.00
   10   12    1      1.69      0.00
   11   12    1      0.53      0.00
   12   12    1      0.04      0.00
   -9   13    1      0.72      0.00
   -8   13    1      0.59      0.00
   -7   13    1     -0.29      0.00
   -6   13    1      0.13      0.00
   -5   13    1      0.09      0.00
   -4   13    1     -0.97      0.00
   -3   13    1     -0.02      0.00
   -2   13    1      0.00      0.00
   -1   13    1     -0.10      0.00
    0   13    1     -0.35      0.00
    1   13    1      0.43      0.00
    2   13    1      0.68      0.00
    3   13    1     -0.29      0.00
    4   13    1      0.25      0.00
    5   13    1      0.05      0.00
    6   13    1      0.41      0.00
    7   13    1     -1.16      0.00
    8   13    1      0.99      0.00
    9   13    1     -1.70      0.00
   10   13    1     -2.04      0.00
   11   13    1      0.79      0.00
   -9   14    1     -0.46      0.00
   -8   14    1     -0.77      0.00
   -7   14    1      0.24      0.00
   -6   14    1     -0.10      0.00
   -5   14    1      0.22      0.00
   -4   14    1      0.29      0.00
   -3   14    1      0.14      0.00
   -2   14    1     -0.08      0.00
   -1   14    1      0.03      0.00
    0   14    1      0.14      0.00
    1   14    1     -0.54      0.00
    2   14    1     -0.33      0.00
    3   14    1      0.59      0.00
    4   14    1      0.50      0.00
    5   14    1     -0.04      0.00
    6   14    1     -0.63      0.00
    7   14    1      1.60      0.00
    8   14    1     -1.06      0.00
    9   14    1      2.90      0.00
   10   14    1      3.23      0.00
   -8   15    1      0.74      0.00
   -7   15    1      0.68      0.00
   -6   15    1     -0.13      0.00
   -5   15    1     -1.30      0.00
   -4   15    1     -0.14      0.00
   -3   15    1     -1.04      0.00
   -2   15    1     -0.22      0.00
   -1   15    1     -0.42      0.00
    0   15    1      0.34      0.00
    1   15    1      1.00      0.00
    2   15    1      0.49      0.00
    3   15    1      0.31      0.00
    4   15    1     -0.20      0.00
    5   15    1      0.56      0.00
    6   15    1      0.35      0.00
    7   15    1     -1.40      0.00
    8   15    1      0.44      0.00
   -7   16    1     -0.94      0.00
   -6   16    1      0.37      0.00
   -5   16    1      1.87      0.00
   -4   16    1     -0.32      0.00
   -3   16    1      0.78      0.00
   -2   16    1     -0.34      0.00
   -1   16    1      0.41      0.00
    0   16    1     -0.91      0.00
    1   16    1     -1.40      0.00
    2   16    1     -0.16      0.00
    3   16    1     -0.38      0.00
    4   16    1      0.45      0.00
    5   16    1     -1.13      0.00
    6   16    1     -0.11      0.00
    7   16    1      0.44      0.00
   -6   17    1      0.29      0.00
   -5   17    1     -1.41      0.00
   -4   17    1     -0.05      0.00
   -3   17    1     -0.56      0.00
   -2   17    1      0.08      0.00
   -1   17    1     -0.56      0.00
    0   17    1      0.77      0.00
    1   17    1      1.43      0.00
    2   17    1      0.32      0.00
    3   17    1      0.33      0.00
    4   17    1     -0.43      0.00
    5   17    1      1.61      0.00
   -5   18    1      0.88      0.00
   -4   18    1      0.62      0.00
   -3   18    1     -0.21      0.00
   -2   18    1      0.08      0.00
   -1   18    1      0.28      0.00
    0   18    1     -0.62      0.00
    1   18    1     -0.91      0.00
    2   18    1     -0.70      0.00
    3   18    1      0.34      0.00
   -4   19    1     -0.43      0.00
   -3   19    1      0.65      0.00
   -2   19    1     -0.12      0.00
   -1   19    1     -0.35      0.00
    1  -18    2     -1.32      0.00
    2  -18    2      0.36      0.00
    3  -18    2      0.25      0.00
    4  -18    2      0.56      0.00
   -2  -17    2      0.19      0.00
   -1  -17    2      0.68      0.00
    0  -17    2      0.21      0.00
    1  -17    2      1.21      0.00
    2  -17    2     -0.05      0.00
    3  -17    2     -0.05      0.00
    4  -17    2     -0.34      0.00
    5  -17    2     -1.04      0.00
   -5  -16    2     -0.38      0.00
   -4  -16    2     -1.61      0.00
   -3  -16    2     -0.07      0.00
   -2  -16    2      0.70      0.00
   -1  -16    2     -0.18      0.00
    0  -16    2     -0.29      0.00
    1  -16    2     -0.92      0.00
    2  -16    2      0.24      0.00
    3  -16    2     -0.47      0.00
    4  -16    2     -0.45      0.00
    5  -16    2      0.08      0.00
   -6  -15    2      2.22      0.00
   -5  -15    2     -0.05      0.00
   -4  -15    2      1.59      0.00
   -3  -15    2     -0.49      0.00
   -2  -15    2     -0.84      0.00
   -1  -15    2      0.27      0.00
    0  -15    2      0.55      0.00
    1  -15    2      0.91      0.00
    2  -15    2     -0.72      0.00
    3  -15    2      0.45      0.00
    4  -15    2      0.19      0.00
    5  -15    2      0.25      0.00
    6  -15    2     -0.20      0.00
    7  -15    2     -0.05      0.00
   -7  -14    2      3.83      0.00
   -6  -14    2     -1.76      0.00
   -5  -14    2      0.49      0.00
   -4  -14    2     -1.07      0.00
   -3  -14    2      0.97      0.00
   -2  -14    2      0.83      0.00
   -1  -14    2     -0.08      0.00
    0  -14    2     -0.34      0.00
    1  -14    2     -0.58      0.00
    2  -14    2      0.92      0.00
    3  -14    2     -0.20      0.00
    4  -14    2      0.48      0.00
    5  -14    2     -0.65      0.00
    6  -14    2     -0.04      0.00
    7  -14    2      0.17      0.00
    8  -14    2      1.19      0.00
  -10  -13    2      1.95      0.00
   -9  -13    2      1.87      0.00
   -8  -13    2      1.32      0.00
   -7  -13    2     -1.98      0.00
   -6  -13    2      1.41      0.00
   -5  -13    2     -0.47      0.00
   -4  -13    2      0.39      0.00
   -3  -13    2     -1.14      0.00
   -2  -13    2     -0.59      0.00
   -1  -13    2     -0.01      0.00
    0  -13    2      0.32      0.00
    1  -13    2      0.46      0.00
    2  -13    2     -0.04      0.00
    3  -13    2      0.72      0.00
    4  -13    2     -0.70      0.00
    5  -13    2      0.32      0.00
    6  -13    2      0.19      0.00
    7  -13    2     -0.60      0.00
    8  -13    2     -0.83      0.00
    9  -13    2     -0.18      0.00
  -10  -12    2     -2.77      0.00
   -9  -12    2     -2.10      0.00
   -8  -12    2     -0.81      0.00
   -7  -12    2      0.82      0.00
   -6  -12    2     -0.12      0.00
   -5  -12    2      0.70      0.00
   -4  -12    2     -0.43      0.00
   -3  -12    2      0.50      0.00
   -2  -12    2      0.19      0.00
   -1  -12    2      0.11      0.00
    0  -12    2      0.13      0.00
    1  -12    2      0.20      0.00
    2  -12    2     -0.29      0.00
    3  -12    2     -0.76      0.00
    4  -12    2      0.60      0.00
    5  -12    2      0.30      0.00
    6  -12    2     -0.59      0.00
    7  -12    2      0.15      0.00
    8  -12    2      0.34      0.00
    9  -12    2     -0.30      0.00
   10  -12    2     -1.28      0.00
   11  -12    2      1.21      0.00
  -11  -11    2     -0.57      0.00
  -10  -11    2      1.86      0.00
   -9  -11    2      1.74      0.00
   -8  -11    2      0.21      0.00
   -7  -11    2      0.86      0.00
   -6  -11    2     -0.06      0.00
   -5  -11    2     -0.92      0.00
   -4  -11    2      0.46      0.00
   -3  -11    2     -0.26      0.00
   -2  -11    2     -0.11      0.00
   -1  -11    2     -0.34      0.00
    0  -11    2     -0.60      0.00
    1  -11    2     -0.80      0.00
    2  -11    2      0.11      0.00
    3  -11    2      0.79      0.00
    4  -11    2      0.20      0.00
    5  -11    2     -0.17      0.00
    6  -11    2      0.70      0.00
    7  -11    2      0.36      0.00
    8  -11    2      0.10      0.00
    9  -11    2      0.53      0.00
   10  -11    2      0.49      0.00
   11  -11    2     -1.46      0.00
   12  -11    2     -1.30      0.00
  -11  -10    2     -0.83      0.00
  -10  -10    2     -1.11      0.00
   -9  -10    2     -1.04      0.00
   -8  -10    2      0.86      0.00
   -7  -10    2     -0.68      0.00
   -6  -10    2      0.71      0.00
   -5  -10    2      1.12      0.00
   -4  -10    2     -0.59      0.00
   -3  -10    2     -0.19      0.00
   -2  -10    2     -0.78      0.00
   -1  -10    2     -0.07      0.00
    0  -10    2      0.17      0.00
    1  -10    2      0.47      0.00
    2  -10    2      0.57      0.00
    3  -10    2     -0.16      0.00
    4  -10    2      0.01      0.00
    5  -10    2      0.27      0.00
    6  -10    2     -0.08      0.00
    7  -10    2     -0.34      0.00
    8  -10    2     -0.41      0.00
    9  -10    2     -0.36      0.00
   10  -10    2      0.45      0.00
   11  -10    2      1.61      0.00
   12  -10    2      1.73      0.00
  -12   -9    2     -1.43      0.00
  -11   -9    2      1.55      0.00
  -10   -9    2     -0.18      0.00
   -9   -9    2     -0.67      0.00
   -8   -9    2     -1.34      0.00
   -7   -9    2      0.45      0.00
   -6   -9    2     -0.69      0.00
   -5   -9    2     -0.28      0.00
   -4   -9    2      0.32      0.00
   -3   -9    2     -0.07      0.00
   -2   -9    2      1.03      0.00
   -1   -9    2      0.53      0.00
    0   -9    2      0.48      0.00
    1   -9    2      0.49      0.00
    2   -9    2     -0.55      0.00
    3   -9    2     -0.19      0.00
    4   -9    2     -0.13      0.00
    5   -9    2     -0.15      0.00
    6   -9    2     -0.11      0.00
    7   -9    2      0.31      0.00
    8   -9    2      0.81      0.00
    9   -9    2      0.08      0.00
   10   -9    2     -0.78      0.00
   11   -9    2     -1.59      0.00
   12   -9    2     -1.29      0.00
  -12   -8    2      1.64      0.00
  -11   -8    2     -2.10      0.00
  -10   -8    2     -0.83      0.00
   -9   -8    2      0.60      0.00
   -8   -8    2      0.74      0.00
   -7   -8    2     -0.32      0.00
   -6   -8    2      0.99      0.00
   -5   -8    2     -0.48      0.00
   -4   -8    2      0.24      0.00
   -3   -8    2      0.12      0.00
   -2   -8    2     -0.27      0.00
   -1   -8    2     -1.08      0.00
    0   -8    2     -0.90      0.00
    1   -8    2     -1.00      0.00
    2   -8    2     -0.71      0.00
    3   -8    2      0.13      0.00
    4   -8    2      0.22      0.00
    5   -8    2      0.39      0.00
    6   -8    2      0.11      0.00
    7   -8    2      0.06      0.00
    8   -8    2     -0.50      0.00
    9   -8    2      0.65      0.00
   10   -8    2      0.94      0.00
   11   -8    2      0.97      0.00
   12   -8    2      0.19      0.00
   13   -8    2     -2.14      0.00
  -13   -7    2     -0.95      0.00
  -12   -7    2     -1.45      0.00
  -11   -7    2      0.66      0.00
  -10   -7    2      0.88      0.00
   -9   -7    2     -0.15      0.00
   -8   -7    2     -0.51      0.00
   -7   -7    2      0.56      0.00
   -6   -7    2     -0.65      0.00
   -5   -7    2      0.81      0.00
   -4   -7    2     -0.83      0.00
   -3   -7    2      0.19      0.00
   -2   -7    2     -1.15      0.00
   -1   -7    2      1.04      0.00
    0   -7    2     -0.07      0.00
    1   -7    2     -0.51      0.00
    2   -7    2      0.90      0.00
    3   -7    2      0.15      0.00
    4   -7    2     -0.50      0.00
    5   -7    2     -0.36      0.00
    6   -7    2      0.12      0.00
    7   -7    2     -0.19      0.00
    8   -7    2     -0.02      0.00
    9   -7    2     -0.83      0.00
   10   -7    2     -1.42      0.00
   11   -7    2     -0.39      0.00
   12   -7    2      0.05      0.00
   13   -7    2      1.10      0.00
  -13   -6    2      0.31      0.00
  -12   -6    2      0.60      0.00
  -11   -6    2      0.50      0.00
  -10   -6    2     -0.16      0.00
   -9   -6    2     -0.69      0.00
   -8   -6    2      0.48      0.00
   -7   -6    2     -0.43      0.00
   -6   -6    2      0.09      0.00
   -5   -6    2     -0.82      0.00
   -4   -6    2      0.72      0.00
   -3   -6    2     -0.64      0.00
   -2   -6    2      2.16      0.00
   -1   -6    2     -0.82      0.00
    0   -6    2      2.07      0.00
    1   -6    2      2.30      0.00
    2   -6    2      1.05      0.00
    3   -6    2     -0.54      0.00
    4   -6    2      1.26      0.00
    5   -6    2      0.40      0.00
    6   -6    2     -0.10      0.00
    7   -6    2      0.24      0.00
    8   -6    2      0.63      0.00
    9   -6    2      0.42      0.00
   10   -6    2      1.52      0.00
   11   -6    2     -0.60      0.00
   12   -6    2     -0.72      0.00
   13   -6    2      0.06      0.00
  -13   -5    2     -0.15      0.00
  -12   -5    2     -0.29      0.00
  -11   -5    2     -0.99      0.00
  -10   -5    2     -0.97      0.00
   -9   -5    2      0.85      0.00
   -8   -5    2      0.08      0.00
   -7   -5    2      0.57      0.00
   -6   -5    2      0.23      0.00
   -5   -5    2      0.49      0.00
   -4   -5    2     -0.60      0.00
   -3   -5    2      0.07      0.00
   -2   -5    2     -3.01      0.00
   -1   -5    2      1.86      0.00
    0   -5    2     -2.86      0.00
    1   -5    2     -2.67      0.00
    2   -5    2     -4.06      0.00
    3   -5    2      0.72      0.00
    4   -5    2     -1.32      0.00
    5   -5    2     -0.45      0.00
    6   -5    2     -0.05      0.00
    7   -5    2     -0.53      0.00
    8   -5    2     -0.77      0.00
    9   -5    2     -0.01      0.00
   10   -5    2     -1.18      0.00
   11   -5    2      0.50      0.00
   12   -5    2      0.15      0.00
   13   -5    2     -1.22      0.00
  -13   -4    2     -0.89      0.00
  -12   -4    2     -0.86      0.00
  -11   -4    2      0.05      0.00
  -10   -4    2      1.08      0.00
   -9   -4    2      0.15      0.00
   -8   -4    2      0.16      0.00
   -7   -4    2     -0.42      0.00
   -6   -4    2      0.07      0.00
   -5   -4    2     -0.74      0.00
   -4   -4    2     -0.46      0.00
   -3   -4    2     -0.03      0.00
   -2   -4    2      3.88      0.00
   -1   -4    2     -3.44      0.00
    0   -4    2      1.60      0.00
    1   -4    2      1.11      0.00
    2   -4    2      5.56      0.00
    3   -4    2     -0.90      0.00
    4   -4    2      0.79      0.00
    5   -4    2      1.23      0.00
    6   -4    2      0.47      0.00
    7   -4    2      1.09      0.00
    8   -4    2      0.19      0.00
    9   -4    2     -0.20      0.00
   10   -4    2      0.38      0.00
   11   -4    2     -0.85      0.00
   12   -4    2     -0.12      0.00
   13   -4    2      0.05      0.00
  -13   -3    2      0.92      0.00
  -12   -3    2      0.88      0.00
  -11   -3    2      0.40      0.00
  -10   -3    2     -0.14      0.00
   -9   -3    2     -0.21      0.00
   -8   -3    2      0.04      0.00
   -7   -3    2      0.89      0.00
   -6   -3    2     -0.52      0.00
   -5   -3    2     -0.15      0.00
   -4   -3    2     -0.19      0.00
   -3   -3    2     -0.10      0.00
   -2   -3    2     -3.68      0.00
   -1   -3    2      4.82      0.00
    0   -3    2     -3.16      0.00
    1   -3    2      0.30      0.00
    2   -3    2     -7.05      0.00
    3   -3    2      0.61      0.00
    4   -3    2      0.05      0.00
    5   -3    2     -1.36      0.00
    6   -3    2     -0.23      0.00
    7   -3    2     -1.30      0.00
    8   -3    2      0.22      0.00
    9   -3    2      0.08      0.00
   10   -3    2     -0.68      0.00
   11   -3    2      0.67      0.00
   12   -3    2     -0.55      0.00
   13   -3    2      0.86      0.00
  -13   -2    2     -1.74      0.00
  -12   -2    2     -0.97      0.00
  -11   -2    2     -0.48      0.00
  -10   -2    2     -0.24      0.00
   -9   -2    2      0.64      0.00
   -8   -2    2      1.20      0.00
   -7   -2    2     -0.23      0.00
   -6   -2    2      0.17      0.00
   -5   -2    2      0.09      0.00
   -4   -2    2      0.41      0.00
   -3   -2    2      0.08      0.00
   -2   -2    2      2.78      0.00
   -1   -2    2     -4.72      0.00
    0   -2    2     16.86      0.00
    1   -2    2      0.31      0.00
    2   -2    2      7.59      0.00
    3   -2    2     -0.20      0.00
    4   -2    2     -0.51      0.00
    5   -2    2      1.53      0.00
    6   -2    2      0.34      0.00
    7   -2    2      1.10      0.00
    8   -2    2     -0.25      0.00
    9   -2    2     -0.38      0.00
   10   -2    2      1.30      0.00
   11   -2    2     -0.53      0.00
   12   -2    2      0.21      0.00
   13   -2    2     -1.57      0.00
  -13   -1    2      1.47      0.00
  -12   -1    2     -0.55      0.00
  -11   -1    2     -0.61      0.00
  -10   -1    2      0.13      0.00
   -9   -1    2      0.16      0.00
   -8   -1    2     -1.10      0.00
   -7   -1    2      0.11      0.00
   -6   -1    2      0.25      0.00
   -5   -1    2     -0.51      0.00
   -4   -1    2     -1.05      0.00
   -3   -1    2      0.19      0.00
   -2   -1    2      0.59      0.00
   -1   -1    2     10.89      0.00
    0   -1    2    -35.45      0.00
    1   -1    2     -2.58      0.00
    2   -1    2     -4.87      0.00
    3   -1    2     -1.94      0.00
    4   -1    2      0.03      0.00
    5   -1    2     -1.30      0.00
    6   -1    2      0.14      0.00
    7   -1    2     -0.26      0.00
    8   -1    2     -0.06      0.00
    9   -1    2      0.46      0.00
   10   -1    2     -1.70      0.00
   11   -1    2      0.12      0.00
   12   -1    2      0.24      0.00
   13   -1    2      1.35      0.00
   14   -1    2     -0.65      0.00
  -13    0    2     -1.35      0.00
  -12    0    2      1.36      0.00
  -11    0    2      1.39      0.00
  -10    0    2      0.31      0.00
   -9    0    2     -0.49      0.00
   -8    0    2      1.37      0.00
   -7    0    2      0.09      0.00
   -6    0    2     -0.71      0.00
   -5    0    2     -0.33      0.00
   -4    0    2      0.12      0.00
   -3    0    2     -0.15      0.00
   -2    0    2      1.02      0.00
   -1    0    2    -13.32      0.00
    0    0    2     51.41      0.00
    1    0    2     10.92      0.00
    2    0    2     -0.87      0.00
    3    0    2      3.07      0.00
    4    0    2      0.17      0.00
    5    0    2      1.05      0.00
    6    0    2     -0.20      0.00
    7    0    2      0.16      0.00
    8    0    2      0.41      0.00
    9    0    2     -0.74      0.00
   10    0    2      0.88      0.00
   11    0    2     -0.60      0.00
   12    0    2     -0.70      0.00
   13    0    2     -1.11      0.00
   14    0    2      0.67      0.00
  -13    1    2      0.36      0.00
  -12    1    2     -1.53      0.00
  -11    1    2     -1.39      0.00
  -10    1    2      0.21      0.00
   -9    1    2      1.43      0.00
   -8    1    2     -0.53      0.00
   -7    1    2      0.23      0.00
   -6    1    2      0.29      0.00
   -5    1    2     -0.21      0.00
   -4    1    2      0.28      0.00
   -3    1    2      2.41      0.00
   -2    1    2      0.05      0.00
   -1    1    2     16.90      0.00
    0    1    2    -41.21      0.00
    1    1    2    -12.04      0.00
    2    1    2      8.29      0.00
    3    1    2     -1.56      0.00
    4    1    2     -0.75      0.00
    5    1    2     -1.15      0.00
    6    1    2      0.45      0.00
    7    1    2      0.11      0.00
    8    1    2     -0.29      0.00
    9    1    2      1.13      0.00
   10    1    2      0.40      0.00
   11    1    2      1.72      0.00
   12    1    2      0.92      0.00
   13    1    2      0.71      0.00
   14    1    2     -0.85      0.00
  -13    2    2      0.11      0.00
  -12    2    2      0.39      0.00
  -11    2    2      0.59      0.00
  -10    2    2     -0.95      0.00
   -9    2    2     -1.11      0.00
   -8    2    2      0.27      0.00
   -7    2    2     -0.22      0.00
   -6    2    2     -0.36      0.00
   -5    2    2     -0.38      0.00
   -4    2    2     -1.03      0.00
   -3    2    2     -4.26      0.00
   -2    2    2      1.87      0.00
   -1    2    2     -6.83      0.00
    0    2    2     25.06      0.00
    1    2    2     12.12      0.00
    2    2    2     -6.22      0.00
    3    2    2      0.32      0.00
    4    2    2      0.32      0.00
    5    2    2      0.69      0.00
    6    2    2     -0.34      0.00
    7    2    2      0.10      0.00
    8    2    2      0.33      0.00
    9    2    2     -0.93      0.00
   10    2    2     -1.18      0.00
   11    2    2     -2.12      0.00
   12    2    2     -0.61      0.00
   13    2    2      0.54      0.00
   14    2    2      1.46      0.00
  -13    3    2     -1.02      0.00
  -12    3    2      0.10      0.00
  -11    3    2      0.02      0.00
  -10    3    2      1.26      0.00
   -9    3    2      0.11      0.00
   -8    3    2     -0.48      0.00
   -7    3    2      0.06      0.00
   -6    3    2     -0.37      0.00
   -5    3    2     -0.08      0.00
   -4    3    2     -0.25      0.00
   -3    3    2      5.21      0.00
   -2    3    2     -0.24      0.00
   -1    3    2      0.01      0.00
    0    3    2     -5.06      0.00
    1    3    2     -0.78      0.00
    2    3    2      4.13      0.00
    3    3    2      0.24      0.00
    4    3    2      0.43      0.00
    5    3    2     -0.30      0.00
    6    3    2      0.08      0.00
    7    3    2      0.14      0.00
    8    3    2      0.49      0.00
    9    3    2      0.63      0.00
   10    3    2      1.25      0.00
   11    3    2      1.42      0.00
   12    3    2      0.22      0.00
   13    3    2     -1.48      0.00
   14    3    2     -1.23      0.00
  -13    4    2      0.74      0.00
  -12    4    2      0.05      0.00
  -11    4    2     -0.63      0.00
  -10    4    2     -0.63      0.00
   -9    4    2      0.85      0.00
   -8    4    2      1.03      0.00
   -7    4    2     -0.39      0.00
   -6    4    2      0.48      0.00
   -5    4    2     -0.74      0.00
   -4    4    2      0.24      0.00
   -3    4    2     -5.24      0.00
   -2    4    2     -0.09      0.00
   -1    4    2      6.45      0.00
    0    4    2      1.26      0.00
    1    4    2     -3.44      0.00
    2    4    2     -0.44      0.00
    3    4    2      2.07      0.00
    4    4    2     -0.92      0.00
    5    4    2     -0.66      0.00
    6    4    2     -0.18      0.00
    7    4    2      0.16      0.00
    8    4    2     -0.25      0.00
    9    4    2      0.39      0.00
   10    4    2     -0.04      0.00
   11    4    2      0.16      0.00
   12    4    2      0.23      0.00
   13    4    2      1.33      0.00
   14    4    2      0.08      0.00
  -13    5    2     -0.45      0.00
  -12    5    2     -1.42      0.00
  -11    5    2      0.82      0.00
  -10    5    2     -0.20      0.00
   -9    5    2     -1.33      0.00
   -8    5    2     -1.42      0.00
   -7    5    2      0.33      0.00
   -6    5    2     -0.98      0.00
   -5    5    2      0.24      0.00
   -4    5    2     -0.81      0.00
   -3    5    2      3.24      0.00
   -2    5    2      0.88      0.00
   -1    5    2     -5.55      0.00
    0    5    2     -0.16      0.00
    1    5    2      5.93      0.00
    2    5    2      2.56      0.00
    3    5    2     -2.19      0.00
    4    5    2      0.43      0.00
    5    5    2      0.16      0.00
    6    5    2      0.13      0.00
    7    5    2     -0.11      0.00
    8    5    2     -0.18      0.00
    9    5    2      0.07      0.00
   10    5    2     -0.31      0.00
   11    5    2     -0.63      0.00
   12    5    2      0.02      0.00
   13    5    2      0.49      0.00
   14    5    2      2.52      0.00
  -13    6    2     -0.73      0.00
  -12    6    2      1.29      0.00
  -11    6    2     -0.76      0.00
  -10    6    2      0.06      0.00
   -9    6    2      1.14      0.00
   -8    6    2      0.76      0.00
   -7    6    2     -0.64      0.00
   -6    6    2      0.56      0.00
   -5    6    2     -0.22      0.00
   -4    6    2     -0.42      0.00
   -3    6    2     -2.08      0.00
   -2    6    2     -2.26      0.00
   -1    6    2      2.81      0.00
    0    6    2      0.59      0.00
    1    6    2     -3.65      0.00
    2    6    2     -3.14      0.00
    3    6    2      0.89      0.00
    4    6    2     -0.81      0.00
    5    6    2     -0.02      0.00
    6    6    2     -0.47      0.00
    7    6    2     -0.11      0.00
    8    6    2      1.36      0.00
    9    6    2     -0.25      0.00
   10    6    2      0.51      0.00
   11    6    2      0.36      0.00
   12    6    2     -0.54      0.00
   13    6    2     -2.57      0.00
   14    6    2     -4.98      0.00
  -13    7    2      1.25      0.00
  -12    7    2      0.21      0.00
  -11    7    2      0.00      0.00
  -10    7    2      0.70      0.00
   -9    7    2     -0.40      0.00
   -8    7    2     -0.34      0.00
   -7    7    2      0.74      0.00
   -6    7    2     -0.26      0.00
   -5    7    2     -0.09      0.00
   -4    7    2      1.03      0.00
   -3    7    2      0.66      0.00
   -2    7    2      1.81      0.00
   -1    7    2     -0.55      0.00
    0    7    2      0.36      0.00
    1    7    2      2.09      0.00
    2    7    2      1.90      0.00
    3    7    2     -0.34      0.00
    4    7    2      0.87      0.00
    5    7    2     -0.43      0.00
    6    7    2      0.03      0.00
    7    7    2     -0.06      0.00
    8    7    2     -1.42      0.00
    9    7    2      0.81      0.00
   10    7    2      0.43      0.00
   11    7    2      0.84      0.00
   12    7    2      0.73      0.00
   13    7    2      2.59      0.00
   14    7    2      5.49      0.00
  -13    8    2     -1.57      0.00
  -12    8    2     -2.61      0.00
  -11    8    2      0.40      0.00
  -10    8    2     -0.83      0.00
   -9    8    2     -0.75      0.00
   -8    8    2      0.36      0.00
   -7    8    2     -1.03      0.00
   -6    8    2     -0.25      0.00
   -5    8    2      0.17      0.00
   -4    8    2     -1.04      0.00
   -3    8    2     -0.40      0.00
   -2    8    2     -0.36      0.00
   -1    8    2     -0.84      0.00
    0    8    2     -0.95      0.00
    1    8    2     -0.77      0.00
    2    8    2     -0.13      0.00
    3    8    2      0.66      0.00
    4    8    2     -0.93      0.00
    5    8    2     -0.18      0.00
    6    8    2      0.09      0.00
    7    8    2      0.68      0.00
    8    8    2      0.76      0.00
    9    8    2     -0.41      0.00
   10    8    2     -0.28      0.00
   11    8    2     -0.93      0.00
   12    8    2     -0.18      0.00
   13    8    2     -0.86      0.00
  -13    9    2      1.64      0.00
  -12    9    2      3.42      0.00
  -11    9    2     -0.39      0.00
  -10    9    2      0.51      0.00
   -9    9    2      1.72      0.00
   -8    9    2     -0.59      0.00
   -7    9    2      0.42      0.00
   -6    9    2      0.10      0.00
   -5    9    2     -0.58      0.00
   -4    9    2      0.29      0.00
   -3    9    2      0.36      0.00
   -2    9    2     -1.22      0.00
   -1    9    2      0.91      0.00
    0    9    2      0.60      0.00
    1    9    2     -0.69      0.00
    2    9    2     -0.64      0.00
    3    9    2     -1.00      0.00
    4    9    2      0.07      0.00
    5    9    2      0.31      0.00
    6    9    2     -0.06      0.00
    7    9    2     -1.13      0.00
    8    9    2     -0.06      0.00
    9    9    2      0.39      0.00
   10    9    2      0.15      0.00
   11    9    2      0.84      0.00
   12    9    2     -0.29      0.00
  -12   10    2     -3.03      0.00
  -11   10    2     -0.07      0.00
  -10   10    2     -0.75      0.00
   -9   10    2     -1.61      0.00
   -8   10    2      0.62      0.00
   -7   10    2      0.35      0.00
   -6   10    2      0.18      0.00
   -5   10    2      0.70      0.00
   -4   10    2      0.34      0.00
   -3   10    2     -0.34      0.00
   -2   10    2      1.35      0.00
   -1   10    2     -0.50      0.00
    0   10    2     -0.02      0.00
    1   10    2      1.42      0.00
    2   10    2      0.35      0.00
    3   10    2      0.51      0.00
    4   10    2      0.60      0.00
    5   10    2      0.39      0.00
    6   10    2      0.15      0.00
    7   10    2      0.57      0.00
    8   10    2     -0.23      0.00
    9   10    2     -1.01      0.00
   10   10    2      0.33      0.00
   11   10    2     -0.01      0.00
   12   10    2      0.77      0.00
  -11   11    2     -0.13      0.00
  -10   11    2      1.31      0.00
   -9   11    2      0.94      0.00
   -8   11    2     -0.38      0.00
   -7   11    2     -0.57      0.00
   -6   11    2     -0.35      0.00
   -5   11    2     -0.25      0.00
   -4   11    2     -0.50      0.00
   -3   11    2      0.52      0.00
   -2   11    2     -0.41      0.00
   -1   11    2      0.28      0.00
    0   11    2     -0.18      0.00
    1   11    2     -0.84      0.00
    2   11    2      0.31      0.00
    3   11    2      0.15      0.00
    4   11    2     -0.02      0.00
    5   11    2     -0.28      0.00
    6   11    2      0.19      0.00
    7   11    2      0.46      0.00
    8   11    2     -0.24      0.00
    9   11    2      1.15      0.00
   10   11    2     -0.82      0.00
   11   11    2     -0.20      0.00
   12   11    2     -0.34      0.00
  -11   12    2     -0.24      0.00
  -10   12    2     -1.86      0.00
   -9   12    2     -0.52      0.00
   -8   12    2     -0.06      0.00
   -7   12    2      0.36      0.00
   -6   12    2      0.10      0.00
   -5   12    2     -0.40      0.00
   -4   12    2      0.71      0.00
   -3   12    2     -0.59      0.00
   -2   12    2     -0.07      0.00
   -1   12    2      0.00      0.00
    0   12    2      0.39      0.00
    1   12    2      0.00      0.00
    2   12    2     -0.57      0.00
    3   12    2      0.05      0.00
    4   12    2     -0.31      0.00
    5   12    2      0.16      0.00
    6   12    2     -0.11      0.00
    7   12    2     -0.54      0.00
    8   12    2     -0.07      0.00
    9   12    2     -1.11      0.00
   10   12    2      1.03      0.00
   11   12    2      0.04      0.00
   12   12    2      0.05      0.00
  -10   13    2      1.06      0.00
   -9   13    2     -0.21      0.00
   -8   13    2      0.64      0.00
   -7   13    2     -0.18      0.00
   -6   13    2      0.61      0.00
   -5   13    2      1.04      0.00
   -4   13    2     -0.51      0.00
   -3   13    2      0.76      0.00
   -2   13    2      0.21      0.00
   -1   13    2      0.12      0.00
    0   13    2     -0.29      0.00
    1   13    2      0.76      0.00
    2   13    2      0.56      0.00
    3   13    2     -0.55      0.00
    4   13    2      0.15      0.00
    5   13    2      0.16      0.00
    6   13    2      0.55      0.00
    7   13    2     -0.35      0.00
    8   13    2      0.46      0.00
    9   13    2     -0.73      0.00
   10   13    2     -2.56      0.00
   11   13    2     -0.07      0.00
   -9   14    2      0.27      0.00
   -8   14    2     -1.33      0.00
   -7   14    2     -0.02      0.00
   -6   14    2     -0.65      0.00
   -5   14    2     -0.33      0.00
   -4   14    2      0.81      0.00
   -3   14    2      0.06      0.00
   -2   14    2      0.24      0.00
   -1   14    2     -0.20      0.00
    0   14    2      0.09      0.00
    1   14    2     -1.45      0.00
    2   14    2     -0.84      0.00
    3   14    2      0.22      0.00
    4   14    2      0.06      0.00
    5   14    2     -0.02      0.00
    6   14    2     -0.59      0.00
    7   14    2      1.17      0.00
    8   14    2     -1.45      0.00
    9   14    2      1.28      0.00
   10   14    2      2.94      0.00
   -8   15    2      0.73      0.00
   -7   15    2      0.47      0.00
   -6   15    2      0.63      0.00
   -5   15    2     -0.23      0.00
   -4   15    2     -0.03      0.00
   -3   15    2     -0.12      0.00
   -2   15    2      0.01      0.00
   -1   15    2      0.44      0.00
    0   15    2      0.29      0.00
    1   15    2      1.87      0.00
    2   15    2      0.52      0.00
    3   15    2     -0.17      0.00
    4   15    2     -0.64      0.00
    5   15    2     -0.07      0.00
    6   15    2      0.49      0.00
    7   15    2     -0.90      0.00
    8   15    2      1.62      0.00
    9   15    2     -1.55      0.00
   -7   16    2     -1.67      0.00
   -6   16    2     -0.88      0.00
   -5   16    2      0.90      0.00
   -4   16    2      0.08      0.00
   -3   16    2      0.53      0.00
   -2   16    2      0.33      0.00
   -1   16    2      0.01      0.00
    0   16    2     -0.15      0.00
    1   16    2     -2.05      0.00
    2   16    2     -0.27      0.00
    3   16    2     -0.18      0.00
    4   16    2      0.37      0.00
    5   16    2     -0.86      0.00
    6   16    2     -0.37      0.00
    7   16    2      0.43      0.00
   -7   17    2      1.54      0.00
   -6   17    2      0.70      0.00
   -5   17    2     -0.87      0.00
   -4   17    2     -0.07      0.00
   -3   17    2      0.42      0.00
   -2   17    2     -0.10      0.00
   -1   17    2      0.11      0.00
    0   17    2     -0.20      0.00
    1   17    2      1.71      0.00
    2   17    2     -0.03      0.00
    3   17    2     -0.57      0.00
    4   17    2     -0.83      0.00
    5   17    2      1.26      0.00
    6   17    2      0.27      0.00
   -5   18    2      0.18      0.00
   -4   18    2      0.37      0.00
   -3   18    2     -1.33      0.00
   -2   18    2      0.06      0.00
   -1   18    2     -0.34      0.00
    0   18    2      0.46      0.00
    1   18    2     -0.80      0.00
    2   18    2     -0.19      0.00
    3   18    2      1.22      0.00
    4   18    2      1.24      0.00
   -4   19    2     -0.39      0.00
   -3   19    2      1.77      0.00
   -2   19    2      0.42      0.00
   -1   19    2      0.32      0.00
    0   19    2     -0.18      0.00
   -1   20    2      0.11      0.00
    3  -18    3      0.09      0.00
   -1  -17    3      0.72      0.00
    0  -17    3     -0.10      0.00
    1  -17    3      1.13      0.00
    2  -17    3      0.19      0.00
    3  -17    3      0.33      0.00
    4  -17    3      0.28      0.00
   -4  -16    3     -2.13      0.00
   -3  -16    3     -0.80      0.00
   -2  -16    3     -0.71      0.00
   -1  -16    3     -0.55      0.00
    0  -16    3     -0.12      0.00
    1  -16    3     -0.72      0.00
    2  -16    3      0.40      0.00
    3  -16    3     -0.19      0.00
    4  -16    3     -0.13      0.00
    5  -16    3      0.56      0.00
   -5  -15    3      0.43      0.00
   -4  -15    3      1.97      0.00
   -3  -15    3      0.07      0.00
   -2  -15    3     -0.07      0.00
   -1  -15    3      0.13      0.00
    0  -15    3      0.22      0.00
    1  -15    3      0.53      0.00
    2  -15    3     -1.00      0.00
    3  -15    3     -0.12      0.00
    4  -15    3      0.05      0.00
    5  -15    3      0.77      0.00
    6  -15    3      0.98      0.00
   -7  -14    3      2.92      0.00
   -6  -14    3     -1.96      0.00
   -5  -14    3     -0.29      0.00
   -4  -14    3     -1.64      0.00
   -3  -14    3      0.21      0.00
   -2  -14    3      0.14      0.00
   -1  -14    3     -0.33      0.00
    0  -14    3     -0.56      0.00
    1  -14    3     -0.62      0.00
    2  -14    3      0.85      0.00
    3  -14    3      0.42      0.00
    4  -14    3      0.59      0.00
    5  -14    3     -1.18      0.00
    6  -14    3     -0.29      0.00
    7  -14    3      0.48      0.00
   -8  -13    3      0.01      0.00
   -7  -13    3     -2.47      0.00
   -6  -13    3      0.73      0.00
   -5  -13    3      0.00      0.00
   -4  -13    3      0.85      0.00
   -3  -13    3     -0.45      0.00
   -2  -13    3     -0.45      0.00
   -1  -13    3     -0.03      0.00
    0  -13    3      0.31      0.00
    1  -13    3      0.48      0.00
    2  -13    3     -0.21      0.00
    3  -13    3     -0.22      0.00
    4  -13    3     -0.82      0.00
    5  -13    3      1.10      0.00
    6  -13    3      0.54      0.00
    7  -13    3     -0.31      0.00
    8  -13    3     -0.24      0.00
    9  -13    3     -1.97      0.00
  -10  -12    3     -1.76      0.00
   -9  -12    3     -3.11      0.00
   -8  -12    3     -1.11      0.00
   -7  -12    3      0.02      0.00
   -6  -12    3     -0.37      0.00
   -5  -12    3     -0.21      0.00
   -4  -12    3     -0.34      0.00
   -3  -12    3      0.36      0.00
   -2  -12    3      0.59      0.00
   -1  -12    3      0.12      0.00
    0  -12    3      0.21      0.00
    1  -12    3     -0.11      0.00
    2  -12    3     -0.47      0.00
    3  -12    3     -0.42      0.00
    4  -12    3      0.07      0.00
    5  -12    3     -0.60      0.00
    6  -12    3     -0.82      0.00
    7  -12    3     -0.18      0.00
    8  -12    3     -0.17      0.00
    9  -12    3      0.77      0.00
   10  -12    3     -0.87      0.00
   11  -12    3      1.89      0.00
  -10  -11    3      1.48      0.00
   -9  -11    3      2.79      0.00
   -8  -11    3      0.14      0.00
   -7  -11    3      0.53      0.00
   -6  -11    3     -0.60      0.00
   -5  -11    3     -0.14      0.00
   -4  -11    3      0.45      0.00
   -3  -11    3      0.13      0.00
   -2  -11    3     -0.36      0.00
   -1  -11    3      0.16      0.00
    0  -11    3     -0.75      0.00
    1  -11    3     -0.73      0.00
    2  -11    3      0.13      0.00
    3  -11    3      0.14      0.00
    4  -11    3      0.28      0.00
    5  -11    3     -0.02      0.00
    6  -11    3      0.57      0.00
    7  -11    3      0.69      0.00
    8  -11    3      0.55      0.00
    9  -11    3      0.28      0.00
   10  -11    3      0.52      0.00
   11  -11    3     -2.39      0.00
  -11  -10    3     -0.26      0.00
  -10  -10    3      0.16      0.00
   -9  -10    3     -1.90      0.00
   -8  -10    3      0.64      0.00
   -7  -10    3     -0.91      0.00
   -6  -10    3      0.38      0.00
   -5  -10    3      0.22      0.00
   -4  -10    3     -0.69      0.00
   -3  -10    3     -0.14      0.00
   -2  -10    3     -0.06      0.00
   -1  -10    3     -0.40      0.00
    0  -10    3      0.94      0.00
    1  -10    3      1.17      0.00
    2  -10    3      0.60      0.00
    3  -10    3      0.14      0.00
    4  -10    3     -0.43      0.00
    5  -10    3     -0.11      0.00
    6  -10    3     -0.14      0.00
    7  -10    3     -0.80      0.00
    8  -10    3     -1.19      0.00
    9  -10    3     -1.00      0.00
   10  -10    3     -0.49      0.00
   11  -10    3      1.80      0.00
   12  -10    3      1.06      0.00
  -12   -9    3     -0.76      0.00
  -11   -9    3      1.96      0.00
  -10   -9    3     -0.23      0.00
   -9   -9    3      1.28      0.00
   -8   -9    3     -0.97      0.00
   -7   -9    3      0.09      0.00
   -6   -9    3     -0.66      0.00
   -5   -9    3     -0.17      0.00
   -4   -9    3      0.75      0.00
   -3   -9    3      0.06      0.00
   -2   -9    3      0.94      0.00
   -1   -9    3      1.04      0.00
    0   -9    3     -0.18      0.00
    1   -9    3      0.01      0.00
    2   -9    3     -0.36      0.00
    3   -9    3     -0.13      0.00
    4   -9    3      0.11      0.00
    5   -9    3     -0.16      0.00
    6   -9    3     -0.51      0.00
    7   -9    3      0.02      0.00
    8   -9    3      1.18      0.00
    9   -9    3      0.40      0.00
   10   -9    3      0.16      0.00
   11   -9    3     -1.00      0.00
   12   -9    3     -0.83      0.00
  -12   -8    3      1.00      0.00
  -11   -8    3     -1.40      0.00
  -10   -8    3      0.17      0.00
   -9   -8    3     -0.30      0.00
   -8   -8    3      0.77      0.00
   -7   -8    3      0.13      0.00
   -6   -8    3      0.62      0.00
   -5   -8    3     -0.49      0.00
   -4   -8    3     -0.23      0.00
   -3   -8    3      0.33      0.00
   -2   -8    3     -0.75      0.00
   -1   -8    3     -1.25      0.00
    0   -8    3     -0.11      0.00
    1   -8    3     -0.72      0.00
    2   -8    3     -0.49      0.00
    3   -8    3     -0.12      0.00
    4   -8    3     -0.11      0.00
    5   -8    3      0.28      0.00
    6   -8    3      0.28      0.00
    7   -8    3      0.19      0.00
    8   -8    3     -1.09      0.00
    9   -8    3      0.41      0.00
   10   -8    3      0.40      0.00
   11   -8    3      0.41      0.00
   12   -8    3      0.66      0.00
  -13   -7    3     -0.17      0.00
  -12   -7    3     -0.50      0.00
  -11   -7    3      0.25      0.00
  -10   -7    3      0.92      0.00
   -9   -7    3      0.92      0.00
   -8   -7    3     -0.32      0.00
   -7   -7    3      0.01      0.00
   -6   -7    3     -0.68      0.00
   -5   -7    3      0.84      0.00
   -4   -7    3     -0.47      0.00
   -3   -7    3     -0.22      0.00
   -2   -7    3     -0.29      0.00
   -1   -7    3      1.09      0.00
    0   -7    3     -0.18      0.00
    1   -7    3      0.21      0.00
    2   -7    3      1.07      0.00
    3   -7    3      0.75      0.00
    4   -7    3     -0.21      0.00
    5   -7    3     -0.34      0.00
    6   -7    3      0.03      0.00
    7   -7    3     -0.14      0.00
    8   -7    3      0.26      0.00
    9   -7    3     -1.12      0.00
   10   -7    3     -1.23      0.00
   11   -7    3      0.45      0.00
   12   -7    3      0.09      0.00
   13   -7    3      2.01      0.00
  -13   -6    3      0.05      0.00
  -12   -6    3      0.74      0.00
  -11   -6    3      1.63      0.00
  -10   -6    3     -0.12      0.00
   -9   -6    3     -1.20      0.00
   -8   -6    3      0.27      0.00
   -7   -6    3     -0.35      0.00
   -6   -6    3      0.08      0.00
   -5   -6    3     -0.85      0.00
   -4   -6    3      0.84      0.00
   -3   -6    3     -0.23      0.00
   -2   -6    3      1.33      0.00
   -1   -6    3     -0.74      0.00
    0   -6    3      1.68      0.00
    1   -6    3      1.52      0.00
    2   -6    3      0.63      0.00
    3   -6    3     -1.18      0.00
    4   -6    3      0.96      0.00
    5   -6    3      0.22      0.00
    6   -6    3     -0.21      0.00
    7   -6    3     -0.11      0.00
    8   -6    3      0.40      0.00
    9   -6    3      0.88      0.00
   10   -6    3      1.74      0.00
   11   -6    3     -0.51      0.00
   12   -6    3     -0.01      0.00
   13   -6    3     -0.32      0.00
  -13   -5    3      0.75      0.00
  -12   -5    3     -0.38      0.00
  -11   -5    3     -1.52      0.00
  -10   -5    3     -0.63      0.00
   -9   -5    3      0.88      0.00
   -8   -5    3     -0.22      0.00
   -7   -5    3      0.33      0.00
   -6   -5    3      0.43      0.00
   -5   -5    3      0.89      0.00
   -4   -5    3     -0.21      0.00
   -3   -5    3      0.90      0.00
   -2   -5    3     -2.01      0.00
   -1   -5    3      0.82      0.00
    0   -5    3     -2.85      0.00
    1   -5    3     -1.69      0.00
    2   -5    3     -2.40      0.00
    3   -5    3      1.36      0.00
    4   -5    3     -1.28      0.00
    5   -5    3     -0.60      0.00
    6   -5    3     -0.05      0.00
    7   -5    3     -0.16      0.00
    8   -5    3     -0.63      0.00
    9   -5    3     -0.32      0.00
   10   -5    3     -1.12      0.00
   11   -5    3      0.98      0.00
   12   -5    3      0.59      0.00
   13   -5    3     -0.08      0.00
  -13   -4    3     -0.46      0.00
  -12   -4    3      0.73      0.00
  -11   -4    3      1.16      0.00
  -10   -4    3      0.84      0.00
   -9   -4    3     -0.12      0.00
   -8   -4    3     -0.52      0.00
   -7   -4    3     -0.95      0.00
   -6   -4    3     -0.43      0.00
   -5   -4    3     -0.46      0.00
   -4   -4    3     -0.02      0.00
   -3   -4    3     -0.90      0.00
   -2   -4    3      2.68      0.00
   -1   -4    3     -0.95      0.00
    0   -4    3      2.38      0.00
    1   -4    3      0.52      0.00
    2   -4    3      3.04      0.00
    3   -4    3     -1.11      0.00
    4   -4    3      0.15      0.00
    5   -4    3      0.81      0.00
    6   -4    3      0.21      0.00
    7   -4    3      0.85      0.00
    8   -4    3      0.53      0.00
    9   -4    3      0.05      0.00
   10   -4    3      0.57      0.00
   11   -4    3     -0.75      0.00
   12   -4    3      0.28      0.00
   13   -4    3      0.09      0.00
  -13   -3    3      1.23      0.00
  -12   -3    3      0.68      0.00
  -11   -3    3      0.29      0.00
  -10   -3    3      0.04      0.00
   -9   -3    3     -0.76      0.00
   -8   -3    3      0.12      0.00
   -7   -3    3      0.77      0.00
   -6   -3    3     -0.02      0.00
   -5   -3    3      0.45      0.00
   -4   -3    3      0.64      0.00
   -3   -3    3      1.25      0.00
   -2   -3    3     -2.63      0.00
   -1   -3    3      0.39      0.00
    0   -3    3     -1.74      0.00
    1   -3    3      1.91      0.00
    2   -3    3     -2.34      0.00
    3   -3    3      0.96      0.00
    4   -3    3      0.78      0.00
    5   -3    3     -1.51      0.00
    6   -3    3     -0.66      0.00
    7   -3    3     -1.19      0.00
    8   -3    3     -0.20      0.00
    9   -3    3      0.37      0.00
   10   -3    3     -0.39      0.00
   11   -3    3      0.77      0.00
   12   -3    3     -0.49      0.00
   13   -3    3      1.15      0.00
  -13   -2    3     -0.58      0.00
  -12   -2    3     -0.31      0.00
  -11   -2    3     -0.25      0.00
  -10   -2    3     -0.30      0.00
   -9   -2    3      0.49      0.00
   -8   -2    3      0.00      0.00
   -7   -2    3     -0.52      0.00
   -6   -2    3      0.28      0.00
   -5   -2    3      0.30      0.00
   -4   -2    3      0.31      0.00
   -3   -2    3     -0.53      0.00
   -2   -2    3      1.38      0.00
   -1   -2    3     -1.63      0.00
    0   -2    3      5.52      0.00
    1   -2    3     -3.17      0.00
    2   -2    3      2.70      0.00
    3   -2    3     -0.04      0.00
    4   -2    3     -1.17      0.00
    5   -2    3      1.32      0.00
    6   -2    3      0.28      0.00
    7   -2    3      0.62      0.00
    8   -2    3      0.38      0.00
    9   -2    3     -0.42      0.00
   10   -2    3      0.95      0.00
   11   -2    3      0.10      0.00
   12   -2    3      0.61      0.00
   13   -2    3     -1.17      0.00
  -13   -1    3      1.23      0.00
  -12   -1    3      0.19      0.00
  -11   -1    3      0.37      0.00
  -10   -1    3     -0.05      0.00
   -9   -1    3     -0.28      0.00
   -8   -1    3     -1.04      0.00
   -7   -1    3     -0.57      0.00
   -6   -1    3      0.13      0.00
   -5   -1    3      0.28      0.00
   -4   -1    3     -0.18      0.00
   -3   -1    3     -0.42      0.00
   -2   -1    3     -1.14      0.00
   -1   -1    3      5.29      0.00
    0   -1    3    -15.20      0.00
    1   -1    3      1.44      0.00
    2   -1    3     -0.61      0.00
    3   -1    3     -0.71      0.00
    4   -1    3      1.01      0.00
    5   -1    3     -1.62      0.00
    6   -1    3     -0.38      0.00
    7   -1    3     -0.05      0.00
    8   -1    3     -0.43      0.00
    9   -1    3      0.73      0.00
   10   -1    3     -0.75      0.00
   11   -1    3     -0.74      0.00
   12   -1    3      0.18      0.00
   13   -1    3      0.90      0.00
   14   -1    3      0.30      0.00
  -13    0    3     -1.06      0.00
  -12    0    3      1.25      0.00
  -11    0    3      0.31      0.00
  -10    0    3      0.41      0.00
   -9    0    3     -0.73      0.00
   -8    0    3      0.84      0.00
   -7    0    3      0.70      0.00
   -6    0    3     -0.35      0.00
   -5    0    3      0.07      0.00
   -4    0    3      0.49      0.00
   -3    0    3      0.79      0.00
   -2    0    3      0.40      0.00
   -1    0    3    -14.03      0.00
    0    0    3     18.71      0.00
    1    0    3      2.12      0.00
    2    0    3     -5.04      0.00
    3    0    3      1.22      0.00
    4    0    3     -0.55      0.00
    5    0    3      1.46      0.00
    6    0    3     -0.24      0.00
    7    0    3     -0.44      0.00
    8    0    3      0.60      0.00
    9    0    3     -0.63      0.00
   10    0    3      0.20      0.00
   11    0    3      0.49      0.00
   12    0    3     -1.16      0.00
   13    0    3     -0.72      0.00
   14    0    3     -0.34      0.00
  -13    1    3      1.60      0.00
  -12    1    3     -1.30      0.00
  -11    1    3     -0.40      0.00
  -10    1    3     -0.14      0.00
   -9    1    3      1.03      0.00
   -8    1    3     -0.75      0.00
   -7    1    3     -0.66      0.00
   -6    1    3      0.96      0.00
   -5    1    3      0.46      0.00
   -4    1    3      0.54      0.00
   -3    1    3     -0.07      0.00
   -2    1    3     -2.37      0.00
   -1    1    3     14.85      0.00
    0    1    3    -16.04      0.00
    1    1    3     -8.23      0.00
    2    1    3      9.32      0.00
    3    1    3      0.30      0.00
    4    1    3      0.61      0.00
    5    1    3     -1.39      0.00
    6    1    3      0.32      0.00
    7    1    3      0.17      0.00
    8    1    3     -0.73      0.00
    9    1    3      0.98      0.00
   10    1    3      0.69      0.00
   11    1    3      0.74      0.00
   12    1    3      1.73      0.00
   13    1    3      0.22      0.00
   14    1    3     -0.33      0.00
  -13    2    3     -1.27      0.00
  -12    2    3      0.75      0.00
  -11    2    3      0.29      0.00
  -10    2    3     -0.76      0.00
   -9    2    3     -0.94      0.00
   -8    2    3      0.09      0.00
   -7    2    3      0.53      0.00
   -6    2    3     -0.76      0.00
   -5    2    3      0.28      0.00
   -4    2    3     -0.09      0.00
   -3    2    3     -1.93      0.00
   -2    2    3      0.60      0.00
   -1    2    3    -12.95      0.00
    0    2    3      2.36      0.00
    1    2    3      5.35      0.00
    2    2    3    -10.19      0.00
    3    2    3     -2.18      0.00
    4    2    3     -0.74      0.00
    5    2    3      1.19      0.00
    6    2    3     -0.57      0.00
    7    2    3     -0.32      0.00
    8    2    3      0.53      0.00
    9    2    3     -1.14      0.00
   10    2    3     -0.94      0.00
   11    2    3     -1.80      0.00
   12    2    3     -2.00      0.00
   13    2    3      0.50      0.00
   14    2    3      0.59      0.00
  -13    3    3      1.41      0.00
  -12    3    3      0.47      0.00
  -11    3    3      0.30      0.00
  -10    3    3      1.12      0.00
   -9    3    3      0.00      0.00
   -8    3    3     -0.07      0.00
   -7    3    3     -0.29      0.00
   -6    3    3      0.76      0.00
   -5    3    3      0.56      0.00
   -4    3    3      0.21      0.00
   -3    3    3      3.70      0.00
   -2    3    3      0.16      0.00
   -1    3    3      3.23      0.00
    0    3    3      1.80      0.00
    1    3    3     -2.49      0.00
    2    3    3      4.29      0.00
    3    3    3      0.81      0.00
    4    3    3      1.29      0.00
    5    3    3     -0.36      0.00
    6    3    3      0.47      0.00
    7    3    3      0.08      0.00
    8    3    3     -0.32      0.00
    9    3    3      0.72      0.00
   10    3    3      0.49      0.00
   11    3    3      1.64      0.00
   12    3    3      1.35      0.00
   13    3    3     -1.83      0.00
   14    3    3     -0.51      0.00
  -13    4    3     -0.82      0.00
  -12    4    3     -0.11      0.00
  -11    4    3     -0.99      0.00
  -10    4    3     -0.62      0.00
   -9    4    3      0.83      0.00
   -8    4    3      0.66      0.00
   -7    4    3      0.24      0.00
   -6    4    3      0.36      0.00
   -5    4    3     -0.10      0.00
   -4    4    3      1.33      0.00
   -3    4    3     -3.36      0.00
   -2    4    3     -1.94      0.00
   -1    4    3      0.87      0.00
    0    4    3     -3.23      0.00
    1    4    3     -4.08      0.00
    2    4    3     -2.75      0.00
    3    4    3      1.22      0.00
    4    4    3     -1.05      0.00
    5    4    3     -0.15      0.00
    6    4    3     -0.17      0.00
    7    4    3      0.05      0.00
    8    4    3     -0.13      0.00
    9    4    3     -0.36      0.00
   10    4    3      0.05      0.00
   11    4    3     -0.93      0.00
   12    4    3     -0.70      0.00
   13    4    3      1.79      0.00
   14    4    3     -1.49      0.00
  -13    5    3      1.32      0.00
  -12    5    3     -0.55      0.00
  -11    5    3      1.77      0.00
  -10    5    3      0.22      0.00
   -9    5    3     -1.02      0.00
   -8    5    3     -0.77      0.00
   -7    5    3      0.21      0.00
   -6    5    3     -0.62      0.00
   -5    5    3      0.23      0.00
   -4    5    3     -0.94      0.00
   -3    5    3      2.67      0.00
   -2    5    3      2.88      0.00
   -1    5    3     -2.71      0.00
    0    5    3     -0.77      0.00
    1    5    3      3.60      0.00
    2    5    3      2.39      0.00
    3    5    3     -2.42      0.00
    4    5    3      0.57      0.00
    5    5    3      0.83      0.00
    6    5    3      0.36      0.00
    7    5    3     -0.05      0.00
    8    5    3     -0.34      0.00
    9    5    3     -0.19      0.00
   10    5    3     -0.66      0.00
   11    5    3      0.07      0.00
   12    5    3      0.30      0.00
   13    5    3     -0.28      0.00
   14    5    3      4.39      0.00
  -13    6    3     -1.11      0.00
  -12    6    3      1.01      0.00
  -11    6    3     -1.33      0.00
  -10    6    3     -0.59      0.00
   -9    6    3      1.13      0.00
   -8    6    3      0.88      0.00
   -7    6    3     -0.03      0.00
   -6    6    3      0.98      0.00
   -5    6    3      0.59      0.00
   -4    6    3      0.73      0.00
   -3    6    3     -0.66      0.00
   -2    6    3     -2.66      0.00
   -1    6    3      1.59      0.00
    0    6    3      0.91      0.00
    1    6    3     -2.94      0.00
    2    6    3     -3.64      0.00
    3    6    3      1.21      0.00
    4    6    3      0.08      0.00
    5    6    3     -0.06      0.00
    6    6    3      0.11      0.00
    7    6    3     -0.04      0.00
    8    6    3      0.91      0.00
    9    6    3     -0.10      0.00
   10    6    3      0.21      0.00
   11    6    3     -0.03      0.00
   12    6    3     -0.59      0.00
   13    6    3     -1.73      0.00
   14    6    3     -7.14      0.00
  -13    7    3      0.91      0.00
  -12    7    3      0.82      0.00
  -11    7    3      0.23      0.00
  -10    7    3      1.21      0.00
   -9    7    3     -0.79      0.00
   -8    7    3     -0.70      0.00
   -7    7    3      0.50      0.00
   -6    7    3     -0.36      0.00
   -5    7    3     -0.44      0.00
   -4    7    3      0.50      0.00
   -3    7    3      0.49      0.00
   -2    7    3      2.21      0.00
   -1    7    3      0.07      0.00
    0    7    3      0.23      0.00
    1    7    3      1.61      0.00
    2    7    3      2.28      0.00
    3    7    3     -0.22      0.00
    4    7    3      0.54      0.00
    5    7    3      0.20      0.00
    6    7    3     -0.08      0.00
    7    7    3      0.22      0.00
    8    7    3     -1.12      0.00
    9    7    3     -0.01      0.00
   10    7    3     -0.21      0.00
   11    7    3     -0.17      0.00
   12    7    3      1.13      0.00
   13    7    3      2.66      0.00
   14    7    3      8.03      0.00
  -13    8    3     -0.21      0.00
  -12    8    3     -2.92      0.00
  -11    8    3      0.70      0.00
  -10    8    3     -0.97      0.00
   -9    8    3     -0.03      0.00
   -8    8    3      1.02      0.00
   -7    8    3     -0.36      0.00
   -6    8    3      0.07      0.00
   -5    8    3      0.49      0.00
   -4    8    3     -0.68      0.00
   -3    8    3     -0.57      0.00
   -2    8    3     -0.22      0.00
   -1    8    3     -0.59      0.00
    0    8    3     -0.81      0.00
    1    8    3     -0.48      0.00
    2    8    3     -0.08      0.00
    3    8    3      0.72      0.00
    4    8    3     -0.47      0.00
    5    8    3     -0.19      0.00
    6    8    3      0.57      0.00
    7    8    3      0.58      0.00
    8    8    3      0.67      0.00
    9    8    3     -0.24      0.00
   10    8    3     -0.09      0.00
   11    8    3     -0.07      0.00
   12    8    3     -1.45      0.00
   13    8    3     -1.21      0.00
  -13    9    3      0.01      0.00
  -12    9    3      4.13      0.00
  -11    9    3     -0.65      0.00
  -10    9    3     -0.10      0.00
   -9    9    3      0.59      0.00
   -8    9    3     -0.94      0.00
   -7    9    3      0.05      0.00
   -6    9    3      0.44      0.00
   -5    9    3     -0.49      0.00
   -4    9    3      0.32      0.00
   -3    9    3      0.92      0.00
   -2    9    3     -0.92      0.00
   -1    9    3      0.82      0.00
    0    9    3      0.72      0.00
    1    9    3     -0.65      0.00
    2    9    3     -0.97      0.00
    3    9    3     -1.02      0.00
    4    9    3     -0.07      0.00
    5    9    3      0.21      0.00
    6    9    3     -0.59      0.00
    7    9    3     -1.03      0.00
    8    9    3     -0.01      0.00
    9    9    3      0.52      0.00
   10    9    3     -0.45      0.00
   11    9    3     -0.15      0.00
   12    9    3      1.27      0.00
  -12   10    3     -3.48      0.00
  -11   10    3      0.69      0.00
  -10   10    3      0.51      0.00
   -9   10    3     -0.70      0.00
   -8   10    3      0.40      0.00
   -7   10    3      0.63      0.00
   -6   10    3     -0.18      0.00
   -5   10    3      0.79      0.00
   -4   10    3      0.36      0.00
   -3   10    3     -0.73      0.00
   -2   10    3      0.95      0.00
   -1   10    3     -0.53      0.00
    0   10    3     -0.20      0.00
    1   10    3      1.22      0.00
    2   10    3      0.64      0.00
    3   10    3      0.24      0.00
    4   10    3      0.17      0.00
    5   10    3     -0.16      0.00
    6   10    3      0.22      0.00
    7   10    3      0.41      0.00
    8   10    3     -0.09      0.00
    9   10    3     -1.41      0.00
   10   10    3      0.34      0.00
   11   10    3     -0.48      0.00
   12   10    3     -1.14      0.00
  -11   11    3     -0.75      0.00
  -10   11    3      0.01      0.00
   -9   11    3      0.38      0.00
   -8   11    3     -0.03      0.00
   -7   11    3     -0.50      0.00
   -6   11    3      0.07      0.00
   -5   11    3     -0.30      0.00
   -4   11    3     -0.54      0.00
   -3   11    3      0.60      0.00
   -2   11    3     -0.33      0.00
   -1   11    3      0.02      0.00
    0   11    3     -0.45      0.00
    1   11    3     -1.11      0.00
    2   11    3     -0.27      0.00
    3   11    3      0.16      0.00
    4   11    3     -0.19      0.00
    5   11    3     -0.36      0.00
    6   11    3     -0.32      0.00
    7   11    3      0.70      0.00
    8   11    3     -0.25      0.00
    9   11    3      2.15      0.00
   10   11    3     -0.33      0.00
   11   11    3      0.31      0.00
   12   11    3      0.70      0.00
   13   11    3     -0.81      0.00
  -11   12    3      1.16      0.00
  -10   12    3     -0.16      0.00
   -9   12    3      0.06      0.00
   -8   12    3     -0.11      0.00
   -7   12    3     -0.04      0.00
   -6   12    3     -0.11      0.00
   -5   12    3     -0.37      0.00
   -4   12    3      0.62      0.00
   -3   12    3     -0.67      0.00
   -2   12    3     -0.10      0.00
   -1   12    3      0.21      0.00
    0   12    3      0.51      0.00
    1   12    3      0.04      0.00
    2   12    3     -0.15      0.00
    3   12    3     -0.30      0.00
    4   12    3     -0.45      0.00
    5   12    3     -0.30      0.00
    6   12    3     -0.32      0.00
    7   12    3     -1.33      0.00
    8   12    3      0.56      0.00
    9   12    3     -1.79      0.00
   10   12    3      0.28      0.00
   11   12    3     -0.13      0.00
   12   12    3     -0.85      0.00
  -10   13    3      0.43      0.00
   -9   13    3     -0.47      0.00
   -8   13    3      0.45      0.00
   -7   13    3      0.23      0.00
   -6   13    3      0.23      0.00
   -5   13    3      0.62      0.00
   -4   13    3     -0.75      0.00
   -3   13    3      0.59      0.00
   -2   13    3      0.14      0.00
   -1   13    3     -0.13      0.00
    0   13    3     -0.41      0.00
    1   13    3      1.01      0.00
    2   13    3      0.27      0.00
    3   13    3      0.03      0.00
    4   13    3      0.25      0.00
    5   13    3      0.19      0.00
    6   13    3      0.37      0.00
    7   13    3      0.40      0.00
    8   13    3      0.11      0.00
    9   13    3      1.12      0.00
   10   13    3     -0.61      0.00
   11   13    3     -0.32      0.00
   -9   14    3      1.43      0.00
   -8   14    3     -0.52      0.00
   -7   14    3     -0.18      0.00
   -6   14    3     -0.33      0.00
   -5   14    3     -0.62      0.00
   -4   14    3      0.35      0.00
   -3   14    3     -0.43      0.00
   -2   14    3     -0.31      0.00
   -1   14    3     -0.54      0.00
    0   14    3     -0.13      0.00
    1   14    3     -2.11      0.00
    2   14    3     -0.48      0.00
    3   14    3      0.02      0.00
    4   14    3      0.40      0.00
    5   14    3      0.20      0.00
    6   14    3     -0.51      0.00
    7   14    3      0.64      0.00
    8   14    3     -1.09      0.00
    9   14    3     -0.18      0.00
   10   14    3      1.97      0.00
   11   14    3      0.42      0.00
   -8   15    3      0.50      0.00
   -7   15    3      0.63      0.00
   -6   15    3      0.24      0.00
   -5   15    3      0.02      0.00
   -4   15    3     -0.19      0.00
   -3   15    3     -0.30      0.00
   -2   15    3      0.06      0.00
   -1   15    3      0.72      0.00
    0   15    3      0.30      0.00
    1   15    3      2.63      0.00
    2   15    3      0.63      0.00
    3   15    3      0.44      0.00
    4   15    3     -0.64      0.00
    5   15    3     -0.26      0.00
    6   15    3      0.32      0.00
    7   15    3     -0.95      0.00
    8   15    3      2.11      0.00
    9   15    3      0.60      0.00
   -7   16    3     -1.12      0.00
   -6   16    3     -0.59      0.00
   -5   16    3     -0.23      0.00
   -4   16    3     -0.63      0.00
   -3   16    3     -0.16      0.00
   -2   16    3     -0.13      0.00
   -1   16    3     -0.70      0.00
    0   16    3     -0.08      0.00
    1   16    3     -2.47      0.00
    2   16    3     -0.11      0.00
    3   16    3      0.12      0.00
    4   16    3      1.29      0.00
    5   16    3      0.03      0.00
    6   16    3     -0.02      0.00
    7   16    3      0.72      0.00
    8   16    3     -2.13      0.00
   -7   17    3      1.77      0.00
   -6   17    3      1.06      0.00
   -5   17    3      0.49      0.00
   -4   17    3      0.36      0.00
   -3   17    3      0.76      0.00
   -2   17    3     -0.28      0.00
   -1   17    3      0.48      0.00
    0   17    3     -0.79      0.00
    1   17    3      1.37      0.00
    2   17    3     -0.40      0.00
    3   17    3     -1.16      0.00
    4   17    3     -1.47      0.00
    5   17    3      0.93      0.00
    6   17    3      0.12      0.00
   -5   18    3     -0.68      0.00
   -4   18    3      0.03      0.00
   -3   18    3     -2.03      0.00
   -2   18    3     -0.02      0.00
   -1   18    3     -0.86      0.00
    0   18    3      1.15      0.00
    1   18    3      0.02      0.00
    2   18    3      0.25      0.00
    3   18    3      2.13      0.00
    4   18    3      2.05      0.00
   -4   19    3     -0.26      0.00
   -3   19    3      2.33      0.00
   -2   19    3      0.62      0.00
   -1   19    3      1.01      0.00
    0   19    3     -0.74      0.00
    1   19    3     -1.10      0.00
   -1   20    3     -0.36      0.00
    0  -17    4      0.05      0.00
    1  -17    4     -0.01      0.00
    2  -17    4      0.38      0.00
    3  -17    4     -0.25      0.00
   -3  -16    4     -0.60      0.00
   -2  -16    4     -1.36      0.00
   -1  -16    4     -0.35      0.00
    0  -16    4     -0.20      0.00
    1  -16    4      0.19      0.00
    2  -16    4     -0.10      0.00
    3  -16    4      0.28      0.00
    4  -16    4     -0.61      0.00
   -4  -15    4      1.56      0.00
   -3  -15    4      0.79      0.00
   -2  -15    4      1.25      0.00
   -1  -15    4      0.34      0.00
    0  -15    4      0.23      0.00
    1  -15    4     -0.40      0.00
    2  -15    4     -0.70      0.00
    3  -15    4     -1.09      0.00
    4  -15    4     -0.07      0.00
   -6  -14    4     -1.01      0.00
   -5  -14    4     -0.16      0.00
   -4  -14    4     -1.31      0.00
   -3  -14    4     -0.14      0.00
   -2  -14    4     -0.18      0.00
   -1  -14    4     -0.03      0.00
    0  -14    4     -0.15      0.00
    1  -14    4      0.13      0.00
    2  -14    4      0.56      0.00
    3  -14    4      1.40      0.00
    4  -14    4      0.58      0.00
    5  -14    4     -1.52      0.00
    6  -14    4      0.03      0.00
    7  -14    4      0.28      0.00
   -7  -13    4     -1.75      0.00
   -6  -13    4      0.92      0.00
   -5  -13    4      0.14      0.00
   -4  -13    4      1.26      0.00
   -3  -13    4      0.29      0.00
   -2  -13    4     -0.22      0.00
   -1  -13    4     -0.03      0.00
    0  -13    4     -0.01      0.00
    1  -13    4      0.27      0.00
    2  -13    4      0.07      0.00
    3  -13    4     -0.89      0.00
    4  -13    4     -0.70      0.00
    5  -13    4      1.54      0.00
    6  -13    4     -0.22      0.00
    7  -13    4     -0.48      0.00
    8  -13    4      0.89      0.00
    9  -13    4     -3.13      0.00
   -8  -12    4     -0.26      0.00
   -7  -12    4      0.94      0.00
   -6  -12    4      0.12      0.00
   -5  -12    4     -0.09      0.00
   -4  -12    4     -0.74      0.00
   -3  -12    4     -0.18      0.00
   -2  -12    4      0.78      0.00
   -1  -12    4      0.33      0.00
    0  -12    4      0.55      0.00
    1  -12    4     -0.37      0.00
    2  -12    4     -0.42      0.00
    3  -12    4      0.31      0.00
    4  -12    4      0.27      0.00
    5  -12    4     -0.88      0.00
    6  -12    4     -0.19      0.00
    7  -12    4     -0.35      0.00
    8  -12    4     -1.15      0.00
    9  -12    4      2.24      0.00
   10  -12    4      0.37      0.00
  -10  -11    4     -0.08      0.00
   -9  -11    4      1.75      0.00
   -8  -11    4      0.70      0.00
   -7  -11    4      0.81      0.00
   -6  -11    4     -0.10      0.00
   -5  -11    4      0.54      0.00
   -4  -11    4      0.78      0.00
   -3  -11    4      0.25      0.00
   -2  -11    4     -0.75      0.00
   -1  -11    4      0.01      0.00
    0  -11    4     -0.88      0.00
    1  -11    4     -0.29      0.00
    2  -11    4      0.08      0.00
    3  -11    4     -0.17      0.00
    4  -11    4      0.34      0.00
    5  -11    4      0.51      0.00
    6  -11    4      0.42      0.00
    7  -11    4      1.41      0.00
    8  -11    4      1.40      0.00
    9  -11    4     -0.40      0.00
   10  -11    4      0.43      0.00
   11  -11    4     -2.09      0.00
  -10  -10    4      0.79      0.00
   -9  -10    4     -1.59      0.00
   -8  -10    4      0.29      0.00
   -7  -10    4     -0.51      0.00
   -6  -10    4      0.40      0.00
   -5  -10    4     -0.31      0.00
   -4  -10    4     -1.24      0.00
   -3  -10    4     -0.35      0.00
   -2  -10    4      0.09      0.00
   -1  -10    4     -0.71      0.00
    0  -10    4      0.51      0.00
    1  -10    4      0.80      0.00
    2  -10    4      0.59      0.00
    3  -10    4      0.46      0.00
    4  -10    4      0.07      0.00
    5  -10    4     -0.19      0.00
    6  -10    4      0.17      0.00
    7  -10    4     -1.24      0.00
    8  -10    4     -1.25      0.00
    9  -10    4     -0.53      0.00
   10  -10    4     -0.92      0.00
   11  -10    4      1.36      0.00
   12  -10    4      0.49      0.00
  -11   -9    4      0.94      0.00
  -10   -9    4     -1.59      0.00
   -9   -9    4      1.14      0.00
   -8   -9    4     -0.36      0.00
   -7   -9    4      0.18      0.00
   -6   -9    4      0.12      0.00
   -5   -9    4      0.33      0.00
   -4   -9    4      1.51      0.00
   -3   -9    4     -0.02      0.00
   -2   -9    4      0.60      0.00
   -1   -9    4      0.92      0.00
    0   -9    4     -0.39      0.00
    1   -9    4     -0.64      0.00
    2   -9    4     -0.83      0.00
    3   -9    4     -0.26      0.00
    4   -9    4     -0.23      0.00
    5   -9    4      0.40      0.00
    6   -9    4     -0.26      0.00
    7   -9    4      0.63      0.00
    8   -9    4      1.40      0.00
    9   -9    4      0.78      0.00
   10   -9    4      1.12      0.00
   11   -9    4     -0.21      0.00
   12   -9    4     -0.76      0.00
  -12   -8    4     -0.01      0.00
  -11   -8    4     -1.40      0.00
  -10   -8    4      0.21      0.00
   -9   -8    4     -1.42      0.00
   -8   -8    4     -0.46      0.00
   -7   -8    4      0.25      0.00
   -6   -8    4     -0.04      0.00
   -5   -8    4     -0.52      0.00
   -4   -8    4     -1.24      0.00
   -3   -8    4      0.40      0.00
   -2   -8    4     -1.04      0.00
   -1   -8    4     -1.10      0.00
    0   -8    4      0.11      0.00
    1   -8    4     -0.50      0.00
    2   -8    4     -0.33      0.00
    3   -8    4     -0.38      0.00
    4   -8    4      0.06      0.00
    5   -8    4     -0.17      0.00
    6   -8    4      0.27      0.00
    7   -8    4      0.19      0.00
    8   -8    4     -0.83      0.00
    9   -8    4      0.14      0.00
   10   -8    4     -0.32      0.00
   11   -8    4     -0.66      0.00
   12   -8    4      0.68      0.00
  -12   -7    4      0.04      0.00
  -11   -7    4     -0.45      0.00
  -10   -7    4      0.23      0.00
   -9   -7    4      1.25      0.00
   -8   -7    4      0.73      0.00
   -7   -7    4     -0.21      0.00
   -6   -7    4     -0.12      0.00
   -5   -7    4      0.83      0.00
   -4   -7    4      0.45      0.00
   -3   -7    4     -0.71      0.00
   -2   -7    4      0.49      0.00
   -1   -7    4      0.79      0.00
    0   -7    4     -0.55      0.00
    1   -7    4      0.07      0.00
    2   -7    4      0.69      0.00
    3   -7    4      0.83      0.00
    4   -7    4     -0.07      0.00
    5   -7    4      0.22      0.00
    6   -7    4      0.19      0.00
    7   -7    4      0.17      0.00
    8   -7    4      0.53      0.00
    9   -7    4     -0.62      0.00
   10   -7    4     -0.86      0.00
   11   -7    4      0.53      0.00
   12   -7    4     -1.00      0.00
  -12   -6    4     -0.29      0.00
  -11   -6    4      1.42      0.00
  -10   -6    4     -0.46      0.00
   -9   -6    4     -1.69      0.00
   -8   -6    4     -0.64      0.00
   -7   -6    4      0.14      0.00
   -6   -6    4      0.05      0.00
   -5   -6    4     -0.83      0.00
   -4   -6    4      0.09      0.00
   -3   -6    4      0.39      0.00
   -2   -6    4      0.40      0.00
   -1   -6    4     -0.66      0.00
    0   -6    4      0.98      0.00
    1   -6    4      0.73      0.00
    2   -6    4      0.03      0.00
    3   -6    4     -1.60      0.00
    4   -6    4      0.62      0.00
    5   -6    4     -0.22      0.00
    6   -6    4     -0.31      0.00
    7   -6    4     -0.41      0.00
    8   -6    4      0.06      0.00
    9   -6    4      0.80      0.00
   10   -6    4      1.42      0.00
   11   -6    4     -0.60      0.00
   12   -6    4      0.16      0.00
   13   -6    4     -1.49      0.00
  -12   -5    4     -0.84      0.00
  -11   -5    4     -2.30      0.00
  -10   -5    4     -0.67      0.00
   -9   -5    4      0.93      0.00
   -8   -5    4      0.48      0.00
   -7   -5    4      0.13      0.00
   -6   -5    4      0.54      0.00
   -5   -5    4      0.58      0.00
   -4   -5    4     -0.28      0.00
   -3   -5    4      0.31      0.00
   -2   -5    4     -1.06      0.00
   -1   -5    4      0.82      0.00
    0   -5    4     -1.97      0.00
    1   -5    4     -1.33      0.00
    2   -5    4     -1.48      0.00
    3   -5    4      2.02      0.00
    4   -5    4     -0.58      0.00
    5   -5    4      0.19      0.00
    6   -5    4      0.38      0.00
    7   -5    4      0.11      0.00
    8   -5    4     -0.30      0.00
    9   -5    4     -0.50      0.00
   10   -5    4     -1.22      0.00
   11   -5    4      0.13      0.00
   12   -5    4     -0.30      0.00
   13   -5    4      0.10      0.00
  -13   -4    4     -1.13      0.00
  -12   -4    4      0.47      0.00
  -11   -4    4      1.26      0.00
  -10   -4    4      0.43      0.00
   -9   -4    4      0.22      0.00
   -8   -4    4     -0.53      0.00
   -7   -4    4     -0.38      0.00
   -6   -4    4     -0.69      0.00
   -5   -4    4     -0.42      0.00
   -4   -4    4     -0.16      0.00
   -3   -4    4     -1.28      0.00
   -2   -4    4      1.24      0.00
   -1   -4    4     -0.82      0.00
    0   -4    4      2.16      0.00
    1   -4    4      0.04      0.00
    2   -4    4      0.77      0.00
    3   -4    4     -2.05      0.00
    4   -4    4     -0.37      0.00
    5   -4    4      0.30      0.00
    6   -4    4     -0.16      0.00
    7   -4    4      0.65      0.00
    8   -4    4      0.43      0.00
    9   -4    4      0.15      0.00
   10   -4    4      0.67      0.00
   11   -4    4     -0.40      0.00
   12   -4    4      0.04      0.00
   13   -4    4     -0.41      0.00
  -13   -3    4      0.24      0.00
  -12   -3    4     -1.00      0.00
  -11   -3    4     -1.20      0.00
  -10   -3    4     -0.14      0.00
   -9   -3    4     -0.91      0.00
   -8   -3    4      1.07      0.00
   -7   -3    4      1.08      0.00
   -6   -3    4      0.41      0.00
   -5   -3    4     -0.11      0.00
   -4   -3    4      0.05      0.00
   -3   -3    4      1.42      0.00
   -2   -3    4     -0.97      0.00
   -1   -3    4     -0.18      0.00
    0   -3    4     -2.44      0.00
    1   -3    4      1.53      0.00
    2   -3    4      0.33      0.00
    3   -3    4      1.59      0.00
    4   -3    4      1.79      0.00
    5   -3    4     -0.15      0.00
    6   -3    4      0.15      0.00
    7   -3    4     -1.01      0.00
    8   -3    4     -0.73      0.00
    9   -3    4      0.14      0.00
   10   -3    4     -0.78      0.00
   11   -3    4      0.07      0.00
   12   -3    4     -0.73      0.00
   13   -3    4      0.29      0.00
  -13   -2    4     -0.73      0.00
  -12   -2    4     -0.22      0.00
  -11   -2    4     -0.32      0.00
  -10   -2    4     -0.49      0.00
   -9   -2    4      0.72      0.00
   -8   -2    4     -0.68      0.00
   -7   -2    4     -0.49      0.00
   -6   -2    4      0.05      0.00
   -5   -2    4     -0.05      0.00
   -4   -2    4     -0.54      0.00
   -3   -2    4     -1.26      0.00
   -2   -2    4      0.27      0.00
   -1   -2    4      0.45      0.00
    0   -2    4      3.86      0.00
    1   -2    4     -3.97      0.00
    2   -2    4     -1.40      0.00
    3   -2    4     -1.08      0.00
    4   -2    4     -1.83      0.00
    5   -2    4      0.73      0.00
    6   -2    4      0.28      0.00
    7   -2    4      0.66      0.00
    8   -2    4      0.60      0.00
    9   -2    4     -0.69      0.00
   10   -2    4      0.86      0.00
   11   -2    4      0.54      0.00
   12   -2    4      0.64      0.00
   13   -2    4     -0.21      0.00
  -13   -1    4     -0.10      0.00
  -12   -1    4     -0.90      0.00
  -11   -1    4      0.54      0.00
  -10   -1    4     -0.15      0.00
   -9   -1    4      0.20      0.00
   -8   -1    4      0.64      0.00
   -7   -1    4     -0.18      0.00
   -6   -1    4     -0.26      0.00
   -5   -1    4     -0.19      0.00
   -4   -1    4     -0.06      0.00
   -3   -1    4     -0.42      0.00
   -2   -1    4     -0.63      0.00
   -1   -1    4      2.74      0.00
    0   -1    4     -6.77      0.00
    1   -1    4      4.35      0.00
    2   -1    4      2.07      0.00
    3   -1    4     -0.01      0.00
    4   -1    4      1.64      0.00
    5   -1    4     -0.69      0.00
    6   -1    4      0.11      0.00
    7   -1    4     -0.11      0.00
    8   -1    4     -0.58      0.00
    9   -1    4      0.57      0.00
   10   -1    4     -0.66      0.00
   11   -1    4     -1.22      0.00
   12   -1    4     -0.14      0.00
   13   -1    4     -0.28      0.00
   14   -1    4      0.54      0.00
  -13    0    4     -0.73      0.00
  -12    0    4      1.20      0.00
  -11    0    4     -1.37      0.00
  -10    0    4      0.42      0.00
   -9    0    4     -0.84      0.00
   -8    0    4     -0.12      0.00
   -7    0    4      1.02      0.00
   -6    0    4     -0.18      0.00
   -5    0    4     -0.54      0.00
   -4    0    4     -0.55      0.00
   -3    0    4      1.51      0.00
   -2    0    4      2.98      0.00
   -1    0    4     -7.33      0.00
    0    0    4      7.81      0.00
    1    0    4     -1.93      0.00
    2    0    4     -5.68      0.00
    3    0    4     -0.22      0.00
    4    0    4     -1.49      0.00
    5    0    4      1.30      0.00
    6    0    4     -0.01      0.00
    7    0    4      0.05      0.00
    8    0    4      0.11      0.00
    9    0    4     -0.79      0.00
   10    0    4     -0.25      0.00
   11    0    4      1.02      0.00
   12    0    4     -0.46      0.00
   13    0    4      0.57      0.00
   14    0    4     -0.59      0.00
  -13    1    4      1.08      0.00
  -12    1    4     -1.73      0.00
  -11    1    4      0.97      0.00
  -10    1    4     -0.20      0.00
   -9    1    4      1.18      0.00
   -8    1    4      0.42      0.00
   -7    1    4     -1.04      0.00
   -6    1    4      0.56      0.00
   -5    1    4     -0.07      0.00
   -4    1    4      0.06      0.00
   -3    1    4     -1.82      0.00
   -2    1    4     -4.35      0.00
   -1    1    4     11.53      0.00
    0    1    4     -1.52      0.00
    1    1    4     -0.69      0.00
    2    1    4      9.31      0.00
    3    1    4      1.50      0.00
    4    1    4      1.57      0.00
    5    1    4     -1.12      0.00
    6    1    4      0.56      0.00
    7    1    4      0.04      0.00
    8    1    4     -0.24      0.00
    9    1    4      0.54      0.00
   10    1    4      0.60      0.00
   11    1    4      0.08      0.00
   12    1    4      1.42      0.00
   13    1    4     -0.22      0.00
   14    1    4      0.65      0.00
  -13    2    4     -2.29      0.00
  -12    2    4      0.46      0.00
  -11    2    4     -0.44      0.00
  -10    2    4     -0.42      0.00
   -9    2    4     -0.47      0.00
   -8    2    4     -0.46      0.00
   -7    2    4      1.03      0.00
   -6    2    4     -1.24      0.00
   -5    2    4     -0.39      0.00
   -4    2    4     -0.59      0.00
   -3    2    4      0.30      0.00
   -2    2    4      4.55      0.00
   -1    2    4     -8.17      0.00
    0    2    4     -3.74      0.00
    1    2    4      2.68      0.00
    2    2    4     -8.40      0.00
    3    2    4     -2.76      0.00
    4    2    4     -1.91      0.00
    5    2    4      0.96      0.00
    6    2    4     -0.43      0.00
    7    2    4     -0.02      0.00
    8    2    4      0.35      0.00
    9    2    4     -0.76      0.00
   10    2    4     -0.66      0.00
   11    2    4     -1.10      0.00
   12    2    4     -1.89      0.00
   13    2    4      0.80      0.00
   14    2    4     -0.24      0.00
  -13    3    4      2.53      0.00
  -12    3    4      0.70      0.00
  -11    3    4      0.08      0.00
  -10    3    4      0.69      0.00
   -9    3    4     -0.32      0.00
   -8    3    4      0.43      0.00
   -7    3    4     -0.92      0.00
   -6    3    4      0.82      0.00
   -5    3    4      0.06      0.00
   -4    3    4     -0.65      0.00
   -3    3    4      0.84      0.00
   -2    3    4     -1.59      0.00
   -1    3    4      4.47      0.00
    0    3    4      7.68      0.00
    1    3    4      1.28      0.00
    2    3    4      5.65      0.00
    3    3    4      1.94      0.00
    4    3    4      1.97      0.00
    5    3    4     -0.44      0.00
    6    3    4      0.36      0.00
    7    3    4      0.13      0.00
    8    3    4     -0.43      0.00
    9    3    4      0.44      0.00
   10    3    4      0.07      0.00
   11    3    4      1.43      0.00
   12    3    4      2.29      0.00
   13    3    4     -1.30      0.00
   14    3    4      1.02      0.00
  -13    4    4     -3.16      0.00
  -12    4    4     -1.24      0.00
  -11    4    4     -0.75      0.00
  -10    4    4     -0.29      0.00
   -9    4    4      0.58      0.00
   -8    4    4     -0.18      0.00
   -7    4    4      0.42      0.00
   -6    4    4     -0.45      0.00
   -5    4    4     -0.72      0.00
   -4    4    4      0.73      0.00
   -3    4    4     -1.59      0.00
   -2    4    4     -1.11      0.00
   -1    4    4      0.29      0.00
    0    4    4     -3.20      0.00
    1    4    4     -2.34      0.00
    2    4    4     -2.31      0.00
    3    4    4      0.80      0.00
    4    4    4     -1.63      0.00
    5    4    4     -0.50      0.00
    6    4    4     -0.24      0.00
    7    4    4      0.14      0.00
    8    4    4      0.37      0.00
    9    4    4      0.03      0.00
   10    4    4      0.40      0.00
   11    4    4     -1.08      0.00
   12    4    4     -1.96      0.00
   13    4    4      1.78      0.00
   14    4    4     -2.37      0.00
  -13    5    4      2.60      0.00
  -12    5    4     -0.03      0.00
  -11    5    4      1.46      0.00
  -10    5    4      0.05      0.00
   -9    5    4     -0.49      0.00
   -8    5    4     -0.28      0.00
   -7    5    4     -0.39      0.00
   -6    5    4     -0.44      0.00
   -5    5    4     -0.11      0.00
   -4    5    4     -1.59      0.00
   -3    5    4     -0.02      0.00
   -2    5    4      2.51      0.00
   -1    5    4     -1.16      0.00
    0    5    4      0.46      0.00
    1    5    4      3.51      0.00
    2    5    4      3.23      0.00
    3    5    4     -1.66      0.00
    4    5    4      0.38      0.00
    5    5    4      0.49      0.00
    6    5    4     -0.11      0.00
    7    5    4     -0.47      0.00
    8    5    4     -0.37      0.00
    9    5    4     -0.37      0.00
   10    5    4     -0.30      0.00
   11    5    4      0.68      0.00
   12    5    4      1.51      0.00
   13    5    4     -0.85      0.00
   14    5    4      5.00      0.00
  -13    6    4     -2.30      0.00
  -12    6    4      0.28      0.00
  -11    6    4     -1.39      0.00
  -10    6    4     -0.88      0.00
   -9    6    4      0.14      0.00
   -8    6    4      0.13      0.00
   -7    6    4     -0.08      0.00
   -6    6    4      0.37      0.00
   -5    6    4      0.36      0.00
   -4    6    4      0.67      0.00
   -3    6    4      0.45      0.00
   -2    6    4     -3.02      0.00
   -1    6    4      0.74      0.00
    0    6    4      0.94      0.00
    1    6    4     -1.75      0.00
    2    6    4     -3.12      0.00
    3    6    4      0.88      0.00
    4    6    4      0.06      0.00
    5    6    4     -0.53      0.00
    6    6    4     -0.23      0.00
    7    6    4     -0.01      0.00
    8    6    4      0.39      0.00
    9    6    4      0.66      0.00
   10    6    4      0.20      0.00
   11    6    4     -0.01      0.00
   12    6    4     -1.13      0.00
   13    6    4     -0.72      0.00
   14    6    4     -7.25      0.00
  -13    7    4      0.65      0.00
  -12    7    4      0.47      0.00
  -11    7    4      0.01      0.00
  -10    7    4      1.72      0.00
   -9    7    4     -0.11      0.00
   -8    7    4     -0.77      0.00
   -7    7    4      0.01      0.00
   -6    7    4     -0.52      0.00
   -5    7    4     -0.67      0.00
   -4    7    4     -0.15      0.00
   -3    7    4     -0.61      0.00
   -2    7    4      1.36      0.00
   -1    7    4     -0.26      0.00
    0    7    4     -0.22      0.00
    1    7    4      0.94      0.00
    2    7    4      1.84      0.00
    3    7    4     -0.26      0.00
    4    7    4     -0.21      0.00
    5    7    4     -0.35      0.00
    6    7    4     -0.43      0.00
    7    7    4     -0.07      0.00
    8    7    4     -0.43      0.00
    9    7    4     -0.49      0.00
   10    7    4      0.10      0.00
   11    7    4     -0.54      0.00
   12    7    4      1.11      0.00
   13    7    4      1.26      0.00
   14    7    4      7.75      0.00
  -13    8    4      0.48      0.00
  -12    8    4     -2.41      0.00
  -11    8    4      0.84      0.00
  -10    8    4     -1.24      0.00
   -9    8    4     -0.05      0.00
   -8    8    4      1.15      0.00
   -7    8    4     -0.35      0.00
   -6    8    4     -0.04      0.00
   -5    8    4      0.31      0.00
   -4    8    4     -0.42      0.00
   -3    8    4     -0.66      0.00
   -2    8    4     -0.02      0.00
   -1    8    4     -0.67      0.00
    0    8    4     -0.69      0.00
    1    8    4     -0.30      0.00
    2    8    4      0.14      0.00
    3    8    4      0.57      0.00
    4    8    4     -0.31      0.00
    5    8    4      0.07      0.00
    6    8    4      0.37      0.00
    7    8    4      0.09      0.00
    8    8    4      0.00      0.00
    9    8    4      0.31      0.00
   10    8    4      0.48      0.00
   11    8    4      1.32      0.00
   12    8    4     -1.59      0.00
   13    8    4     -1.00      0.00
  -12    9    4      3.05      0.00
  -11    9    4     -0.75      0.00
  -10    9    4     -0.06      0.00
   -9    9    4      0.07      0.00
   -8    9    4     -1.12      0.00
   -7    9    4     -0.30      0.00
   -6    9    4      0.13      0.00
   -5    9    4     -0.51      0.00
   -4    9    4      0.16      0.00
   -3    9    4      1.09      0.00
   -2    9    4     -1.14      0.00
   -1    9    4      0.69      0.00
    0    9    4      0.68      0.00
    1    9    4     -0.46      0.00
    2    9    4     -0.95      0.00
    3    9    4     -0.68      0.00
    4    9    4      0.45      0.00
    5    9    4      0.09      0.00
    6    9    4     -0.54      0.00
    7    9    4     -0.71      0.00
    8    9    4      0.21      0.00
    9    9    4      0.40      0.00
   10    9    4     -0.61      0.00
   11    9    4     -0.90      0.00
   12    9    4      2.00      0.00
   13    9    4     -0.20      0.00
  -12   10    4     -2.74      0.00
  -11   10    4      0.37      0.00
  -10   10    4      1.07      0.00
   -9   10    4      0.51      0.00
   -8   10    4      0.49      0.00
   -7   10    4      0.59      0.00
   -6   10    4     -0.49      0.00
   -5   10    4      0.37      0.00
   -4   10    4      0.07      0.00
   -3   10    4     -0.87      0.00
   -2   10    4      0.98      0.00
   -1   10    4     -0.52      0.00
    0   10    4     -0.27      0.00
    1   10    4      1.04      0.00
    2   10    4      0.83      0.00
    3   10    4      0.26      0.00
    4   10    4     -0.22      0.00
    5   10    4      0.24      0.00
    6   10    4      0.56      0.00
    7   10    4      0.37      0.00
    8   10    4     -0.17      0.00
    9   10    4     -1.11      0.00
   10   10    4      1.05      0.00
   11   10    4      0.32      0.00
   12   10    4     -2.04      0.00
  -11   11    4     -0.84      0.00
  -10   11    4     -1.18      0.00
   -9   11    4     -0.68      0.00
   -8   11    4     -0.12      0.00
   -7   11    4     -0.39      0.00
   -6   11    4      0.17      0.00
   -5   11    4     -0.31      0.00
   -4   11    4     -0.46      0.00
   -3   11    4      0.33      0.00
   -2   11    4     -0.44      0.00
   -1   11    4      0.09      0.00
    0   11    4     -0.18      0.00
    1   11    4     -0.75      0.00
    2   11    4     -0.18      0.00
    3   11    4      0.69      0.00
    4   11    4      0.80      0.00
    5   11    4      0.18      0.00
    6   11    4      0.01      0.00
    7   11    4      1.01      0.00
    8   11    4     -0.13      0.00
    9   11    4      1.92      0.00
   10   11    4     -0.22      0.00
   11   11    4      0.74      0.00
   12   11    4      2.20      0.00
  -11   12    4      1.01      0.00
  -10   12    4      0.94      0.00
   -9   12    4      0.59      0.00
   -8   12    4      0.31      0.00
   -7   12    4     -0.36      0.00
   -6   12    4     -0.22      0.00
   -5   12    4     -0.27      0.00
   -4   12    4      0.35      0.00
   -3   12    4     -0.37      0.00
   -2   12    4      0.00      0.00
   -1   12    4      0.43      0.00
    0   12    4      0.77      0.00
    1   12    4      0.34      0.00
    2   12    4      0.43      0.00
    3   12    4     -0.45      0.00
    4   12    4     -0.47      0.00
    5   12    4      0.02      0.00
    6   12    4      0.15      0.00
    7   12    4     -1.37      0.00
    8   12    4      0.70      0.00
    9   12    4     -1.66      0.00
   10   12    4     -0.40      0.00
   11   12    4      0.02      0.00
   12   12    4     -1.68      0.00
  -10   13    4     -1.11      0.00
   -9   13    4     -0.93      0.00
   -8   13    4     -0.34      0.00
   -7   13    4      0.56      0.00
   -6   13    4     -0.03      0.00
   -5   13    4      0.05      0.00
   -4   13    4     -0.59      0.00
   -3   13    4      0.13      0.00
   -2   13    4      0.19      0.00
   -1   13    4     -0.26      0.00
    0   13    4     -0.46      0.00
    1   13    4      1.02      0.00
    2   13    4     -0.20      0.00
    3   13    4      0.51      0.00
    4   13    4      0.33      0.00
    5   13    4      0.39      0.00
    6   13    4      0.43      0.00
    7   13    4      1.02      0.00
    8   13    4     -0.37      0.00
    9   13    4      1.19      0.00
   10   13    4      0.96      0.00
   11   13    4     -0.43      0.00
  -10   14    4      0.50      0.00
   -9   14    4      1.32      0.00
   -8   14    4      0.01      0.00
   -7   14    4     -0.30      0.00
   -6   14    4      0.53      0.00
   -5   14    4      0.46      0.00
   -4   14    4      0.48      0.00
   -3   14    4      0.30      0.00
   -2   14    4     -0.46      0.00
   -1   14    4     -0.30      0.00
    0   14    4      0.08      0.00
    1   14    4     -2.07      0.00
    2   14    4     -0.20      0.00
    3   14    4     -0.85      0.00
    4   14    4      0.16      0.00
    5   14    4     -0.03      0.00
    6   14    4     -0.18      0.00
    7   14    4      0.43      0.00
    8   14    4     -0.46      0.00
    9   14    4     -1.18      0.00
   10   14    4     -0.14      0.00
   11   14    4      0.69      0.00
   -8   15    4     -0.27      0.00
   -7   15    4      0.07      0.00
   -6   15    4     -0.85      0.00
   -5   15    4     -0.45      0.00
   -4   15    4      0.29      0.00
   -3   15    4     -0.60      0.00
   -2   15    4      0.62      0.00
   -1   15    4      0.75      0.00
    0   15    4      0.42      0.00
    1   15    4      2.75      0.00
    2   15    4      0.63      0.00
    3   15    4      1.01      0.00
    4   15    4     -0.97      0.00
    5   15    4     -0.48      0.00
    6   15    4     -0.26      0.00
    7   15    4     -1.20      0.00
    8   15    4      1.49      0.00
    9   15    4      1.71      0.00
   10   15    4     -1.09      0.00
   -8   16    4      0.44      0.00
   -7   16    4     -0.24      0.00
   -6   16    4      0.64      0.00
   -5   16    4      0.01      0.00
   -4   16    4     -0.79      0.00
   -3   16    4      0.53      0.00
   -2   16    4     -0.20      0.00
   -1   16    4     -0.42      0.00
    0   16    4     -0.01      0.00
    1   16    4     -2.16      0.00
    2   16    4     -0.39      0.00
    3   16    4     -0.65      0.00
    4   16    4      1.17      0.00
    5   16    4      0.13      0.00
    6   16    4      0.50      0.00
    7   16    4      1.37      0.00
    8   16    4     -2.06      0.00
    9   16    4     -2.09      0.00
   -7   17    4      0.13      0.00
   -6   17    4     -0.10      0.00
   -5   17    4      1.06      0.00
   -4   17    4      1.06      0.00
   -3   17    4      0.72      0.00
   -2   17    4     -0.12      0.00
   -1   17    4      0.41      0.00
    0   17    4     -0.54      0.00
    1   17    4      1.06      0.00
    2   17    4      0.09      0.00
    3   17    4     -0.87      0.00
    4   17    4     -1.83      0.00
    5   17    4      0.15      0.00
    6   17    4     -0.74      0.00
    7   17    4     -1.50      0.00
   -6   18    4     -0.10      0.00
   -5   18    4     -1.49      0.00
   -4   18    4     -0.13      0.00
   -3   18    4     -1.67      0.00
   -2   18    4      0.31      0.00
   -1   18    4     -0.81      0.00
    0   18    4      0.98      0.00
    1   18    4      0.84      0.00
    2   18    4      0.20      0.00
    3   18    4      2.37      0.00
    4   18    4      2.35      0.00
    5   18    4     -0.89      0.00
   -5   19    4      1.13      0.00
   -4   19    4     -0.52      0.00
   -3   19    4      2.02      0.00
   -2   19    4      0.15      0.00
   -1   19    4      1.08      0.00
    0   19    4     -0.76      0.00
    1   19    4     -1.98      0.00
    2   19    4      0.14      0.00
    2  -17    5      0.57      0.00
   -2  -16    5     -1.61      0.00
   -1  -16    5     -0.31      0.00
    0  -16    5     -0.23      0.00
    1  -16    5      1.04      0.00
    2  -16    5      0.06      0.00
    3  -16    5      0.74      0.00
   -3  -15    5     -0.13      0.00
   -2  -15    5      1.15      0.00
   -1  -15    5      0.28      0.00
    0  -15    5      0.19      0.00
    1  -15    5     -0.79      0.00
    2  -15    5     -0.43      0.00
    3  -15    5     -1.21      0.00
    4  -15    5     -0.11      0.00
   -5  -14    5      0.49      0.00
   -4  -14    5     -1.18      0.00
   -3  -14    5     -0.20      0.00
   -2  -14    5     -0.56      0.00
   -1  -14    5     -0.31      0.00
    0  -14    5      0.31      0.00
    1  -14    5      0.76      0.00
    2  -14    5      0.58      0.00
    3  -14    5      1.60      0.00
    4  -14    5      0.64      0.00
    5  -14    5     -1.30      0.00
    6  -14    5      1.36      0.00
    7  -14    5      0.92      0.00
   -6  -13    5      0.84      0.00
   -5  -13    5     -1.22      0.00
   -4  -13    5      1.28      0.00
   -3  -13    5      0.19      0.00
   -2  -13    5     -0.57      0.00
   -1  -13    5     -0.18      0.00
    0  -13    5     -0.71      0.00
    1  -13    5     -0.09      0.00
    2  -13    5      0.03      0.00
    3  -13    5     -0.90      0.00
    4  -13    5     -0.68      0.00
    5  -13    5      1.31      0.00
    6  -13    5     -1.43      0.00
    7  -13    5     -1.29      0.00
    8  -13    5      1.92      0.00
    9  -13    5     -2.96      0.00
   -7  -12    5      0.82      0.00
   -6  -12    5     -0.77      0.00
   -5  -12    5      0.51      0.00
   -4  -12    5     -1.57      0.00
   -3  -12    5     -0.77      0.00
   -2  -12    5      0.67      0.00
   -1  -12    5      0.42      0.00
    0  -12    5      1.05      0.00
    1  -12    5     -0.33      0.00
    2  -12    5     -0.21      0.00
    3  -12    5      0.12      0.00
    4  -12    5      0.11      0.00
    5  -12    5     -0.78      0.00
    6  -12    5      0.74      0.00
    7  -12    5      0.21      0.00
    8  -12    5     -2.31      0.00
    9  -12    5      2.28      0.00
   10  -12    5      1.42      0.00
   -9  -11    5     -0.59      0.00
   -8  -11    5      0.34      0.00
   -7  -11    5     -0.16      0.00
   -6  -11    5     -0.20      0.00
   -5  -11    5     -0.03      0.00
   -4  -11    5      1.36      0.00
   -3  -11    5      0.52      0.00
   -2  -11    5     -0.70      0.00
   -1  -11    5     -0.33      0.00
    0  -11    5     -0.72      0.00
    1  -11    5      0.34      0.00
    2  -11    5      0.01      0.00
    3  -11    5     -0.14      0.00
    4  -11    5     -0.01      0.00
    5  -11    5      0.06      0.00
    6  -11    5     -0.35      0.00
    7  -11    5      1.26      0.00
    8  -11    5      1.86      0.00
    9  -11    5     -1.20      0.00
   10  -11    5     -0.78      0.00
   11  -11    5     -1.57      0.00
  -10  -10    5      1.68      0.00
   -9  -10    5      0.16      0.00
   -8  -10    5      0.10      0.00
   -7  -10    5     -0.71      0.00
   -6  -10    5     -0.04      0.00
   -5  -10    5     -0.44      0.00
   -4  -10    5     -1.69      0.00
   -3  -10    5     -0.26      0.00
   -2  -10    5      0.23      0.00
   -1  -10    5     -0.23      0.00
    0  -10    5     -0.04      0.00
    1  -10    5      0.33      0.00
    2  -10    5      0.62      0.00
    3  -10    5      0.37      0.00
    4  -10    5      0.44      0.00
    5  -10    5     -0.26      0.00
    6  -10    5      0.02      0.00
    7  -10    5     -2.12      0.00
    8  -10    5     -1.56      0.00
    9  -10    5     -0.14      0.00
   10  -10    5     -0.54      0.00
   11  -10    5      0.91      0.00
  -11   -9    5      1.34      0.00
  -10   -9    5     -1.60      0.00
   -9   -9    5      0.49      0.00
   -8   -9    5     -0.12      0.00
   -7   -9    5      0.32      0.00
   -6   -9    5      0.40      0.00
   -5   -9    5      0.36      0.00
   -4   -9    5      1.95      0.00
   -3   -9    5     -0.02      0.00
   -2   -9    5      0.38      0.00
   -1   -9    5      0.72      0.00
    0   -9    5      0.67      0.00
    1   -9    5     -0.21      0.00
    2   -9    5     -0.63      0.00
    3   -9    5     -0.18      0.00
    4   -9    5     -1.09      0.00
    5   -9    5      0.33      0.00
    6   -9    5     -0.13      0.00
    7   -9    5      1.21      0.00
    8   -9    5      0.69      0.00
    9   -9    5      0.26      0.00
   10   -9    5      0.86      0.00
   11   -9    5      0.11      0.00
   12   -9    5     -0.52      0.00
  -11   -8    5     -1.07      0.00
  -10   -8    5      1.17      0.00
   -9   -8    5     -0.47      0.00
   -8   -8    5     -0.82      0.00
   -7   -8    5     -0.04      0.00
   -6   -8    5     -0.67      0.00
   -5   -8    5     -0.48      0.00
   -4   -8    5     -1.68      0.00
   -3   -8    5      0.45      0.00
   -2   -8    5     -0.63      0.00
   -1   -8    5     -0.54      0.00
    0   -8    5      0.07      0.00
    1   -8    5      0.07      0.00
    2   -8    5      0.06      0.00
    3   -8    5     -0.20      0.00
    4   -8    5      0.70      0.00
    5   -8    5     -0.58      0.00
    6   -8    5     -0.33      0.00
    7   -8    5     -0.64      0.00
    8   -8    5     -0.36      0.00
    9   -8    5     -0.13      0.00
   10   -8    5     -0.21      0.00
   11   -8    5     -0.40      0.00
   12   -8    5      1.19      0.00
  -12   -7    5      0.36      0.00
  -11   -7    5      0.71      0.00
  -10   -7    5      0.45      0.00
   -9   -7    5      1.23      0.00
   -8   -7    5      1.98      0.00
   -7   -7    5      0.05      0.00
   -6   -7    5      0.30      0.00
   -5   -7    5      0.77      0.00
   -4   -7    5      1.19      0.00
   -3   -7    5     -0.71      0.00
   -2   -7    5      0.59      0.00
   -1   -7    5      0.45      0.00
    0   -7    5     -0.58      0.00
    1   -7    5      0.13      0.00
    2   -7    5      0.93      0.00
    3   -7    5      0.63      0.00
    4   -7    5     -0.30      0.00
    5   -7    5      0.45      0.00
    6   -7    5      0.22      0.00
    7   -7    5      0.29      0.00
    8   -7    5     -0.20      0.00
    9   -7    5     -0.43      0.00
   10   -7    5     -0.81      0.00
   11   -7    5      0.44      0.00
   12   -7    5     -0.89      0.00
  -12   -6    5      0.08      0.00
  -11   -6    5      0.57      0.00
  -10   -6    5     -0.04      0.00
   -9   -6    5     -1.00      0.00
   -8   -6    5     -1.55      0.00
   -7   -6    5      0.30      0.00
   -6   -6    5      0.15      0.00
   -5   -6    5     -0.66      0.00
   -4   -6    5     -0.59      0.00
   -3   -6    5      0.79      0.00
   -2   -6    5     -0.07      0.00
   -1   -6    5     -0.31      0.00
    0   -6    5      1.02      0.00
    1   -6    5      0.74      0.00
    2   -6    5     -0.11      0.00
    3   -6    5     -0.97      0.00
    4   -6    5      0.44      0.00
    5   -6    5     -0.55      0.00
    6   -6    5     -0.26      0.00
    7   -6    5     -0.52      0.00
    8   -6    5      0.02      0.00
    9   -6    5      0.47      0.00
   10   -6    5      1.35      0.00
   11   -6    5      0.35      0.00
   12   -6    5      0.96      0.00
  -12   -5    5     -0.14      0.00
  -11   -5    5     -0.37      0.00
  -10   -5    5     -0.17      0.00
   -9   -5    5      0.76      0.00
   -8   -5    5      1.01      0.00
   -7   -5    5     -0.54      0.00
   -6   -5    5      0.10      0.00
   -5   -5    5      0.37      0.00
   -4   -5    5      0.22      0.00
   -3   -5    5     -0.42      0.00
   -2   -5    5     -0.55      0.00
   -1   -5    5      0.65      0.00
    0   -5    5     -0.95      0.00
    1   -5    5     -0.55      0.00
    2   -5    5     -0.76      0.00
    3   -5    5      1.70      0.00
    4   -5    5     -0.35      0.00
    5   -5    5      0.37      0.00
    6   -5    5      0.30      0.00
    7   -5    5     -0.03      0.00
    8   -5    5     -0.14      0.00
    9   -5    5     -0.59      0.00
   10   -5    5     -1.10      0.00
   11   -5    5     -0.30      0.00
   12   -5    5     -0.11      0.00
   13   -5    5      0.72      0.00
  -12   -4    5      1.28      0.00
  -11   -4    5      1.24      0.00
  -10   -4    5      0.85      0.00
   -9   -4    5      0.52      0.00
   -8   -4    5     -0.72      0.00
   -7   -4    5      0.04      0.00
   -6   -4    5     -0.71      0.00
   -5   -4    5      0.00      0.00
   -4   -4    5      0.12      0.00
   -3   -4    5     -0.18      0.00
   -2   -4    5      0.72      0.00
   -1   -4    5     -0.84      0.00
    0   -4    5      1.59      0.00
    1   -4    5      0.01      0.00
    2   -4    5      0.49      0.00
    3   -4    5     -2.02      0.00
    4   -4    5     -0.95      0.00
    5   -4    5     -0.51      0.00
    6   -4    5     -0.72      0.00
    7   -4    5      0.64      0.00
    8   -4    5      0.33      0.00
    9   -4    5      0.27      0.00
   10   -4    5      0.83      0.00
   11   -4    5      0.35      0.00
   12   -4    5      0.46      0.00
   13   -4    5      0.13      0.00
  -12   -3    5     -0.28      0.00
  -11   -3    5     -0.77      0.00
  -10   -3    5     -0.01      0.00
   -9   -3    5     -0.95      0.00
   -8   -3    5      0.74      0.00
   -7   -3    5      0.61      0.00
   -6   -3    5      0.69      0.00
   -5   -3    5     -0.25      0.00
   -4   -3    5     -0.02      0.00
   -3   -3    5      0.80      0.00
   -2   -3    5     -0.05      0.00
   -1   -3    5      0.61      0.00
    0   -3    5     -2.32      0.00
    1   -3    5      1.65      0.00
    2   -3    5      1.72      0.00
    3   -3    5      1.89      0.00
    4   -3    5      1.94      0.00
    5   -3    5      0.44      0.00
    6   -3    5      0.69      0.00
    7   -3    5     -0.77      0.00
    8   -3    5     -0.76      0.00
    9   -3    5      0.13      0.00
   10   -3    5     -1.07      0.00
   11   -3    5     -0.31      0.00
   12   -3    5     -0.50      0.00
   13   -3    5     -0.20      0.00
  -12   -2    5      1.06      0.00
  -11   -2    5      1.30      0.00
  -10   -2    5      0.29      0.00
   -9   -2    5      0.56      0.00
   -8   -2    5     -1.12      0.00
   -7   -2    5     -1.22      0.00
   -6   -2    5     -0.37      0.00
   -5   -2    5      0.49      0.00
   -4   -2    5      0.07      0.00
   -3   -2    5     -0.46      0.00
   -2   -2    5     -0.51      0.00
   -1   -2    5     -0.20      0.00
    0   -2    5      4.44      0.00
    1   -2    5     -2.68      0.00
    2   -2    5     -2.84      0.00
    3   -2    5     -1.33      0.00
    4   -2    5     -2.37      0.00
    5   -2    5     -0.91      0.00
    6   -2    5     -0.75      0.00
    7   -2    5      0.50      0.00
    8   -2    5      1.05      0.00
    9   -2    5     -0.51      0.00
   10   -2    5      1.24      0.00
   11   -2    5      0.66      0.00
   12   -2    5      0.54      0.00
   13   -2    5      0.73      0.00
  -12   -1    5     -0.69      0.00
  -11   -1    5      0.55      0.00
  -10   -1    5     -0.05      0.00
   -9   -1    5      0.73      0.00
   -8   -1    5      1.12      0.00
   -7   -1    5      0.65      0.00
   -6   -1    5     -0.14      0.00
   -5   -1    5      0.02      0.00
   -4   -1    5      0.68      0.00
   -3   -1    5     -0.01      0.00
   -2   -1    5      0.00      0.00
   -1   -1    5      1.66      0.00
    0   -1    5     -6.05      0.00
    1   -1    5      3.81      0.00
    2   -1    5      4.07      0.00
    3   -1    5      0.70      0.00
    4   -1    5      1.71      0.00
    5   -1    5      0.18      0.00
    6   -1    5      0.39      0.00
    7   -1    5     -0.33      0.00
    8   -1    5     -0.41      0.00
    9   -1    5      0.85      0.00
   10   -1    5     -0.93      0.00
   11   -1    5     -1.14      0.00
   12   -1    5     -0.49      0.00
   13   -1    5     -1.27      0.00
  -12    0    5      2.23      0.00
  -11    0    5     -1.25      0.00
  -10    0    5      0.46      0.00
   -9    0    5     -1.62      0.00
   -8    0    5     -1.35      0.00
   -7    0    5     -0.30      0.00
   -6    0    5      0.31      0.00
   -5    0    5      0.01      0.00
   -4    0    5     -0.36      0.00
   -3    0    5      1.53      0.00
   -2    0    5      2.86      0.00
   -1    0    5     -4.16      0.00
    0    0    5      5.47      0.00
    1    0    5     -2.24      0.00
    2    0    5     -5.24      0.00
    3    0    5     -0.27      0.00
    4    0    5     -1.76      0.00
    5    0    5     -0.07      0.00
    6    0    5     -0.68      0.00
    7    0    5      0.59      0.00
    8    0    5      0.06      0.00
    9    0    5     -0.46      0.00
   10    0    5      0.30      0.00
   11    0    5      0.69      0.00
   12    0    5      0.04      0.00
   13    0    5      1.02      0.00
   14    0    5     -0.37      0.00
  -12    1    5     -1.94      0.00
  -11    1    5      1.83      0.00
  -10    1    5      0.12      0.00
   -9    1    5      1.58      0.00
   -8    1    5      1.12      0.00
   -7    1    5     -0.16      0.00
   -6    1    5      0.11      0.00
   -5    1    5      0.38      0.00
   -4    1    5      0.92      0.00
   -3    1    5     -1.49      0.00
   -2    1    5     -5.51      0.00
   -1    1    5      5.00      0.00
    0    1    5     -1.30      0.00
    1    1    5     -0.29      0.00
    2    1    5      6.88      0.00
    3    1    5      1.27      0.00
    4    1    5      1.80      0.00
    5    1    5     -0.51      0.00
    6    1    5      0.36      0.00
    7    1    5     -0.66      0.00
    8    1    5      0.50      0.00
    9    1    5      0.61      0.00
   10    1    5      0.39      0.00
   11    1    5     -0.01      0.00
   12    1    5     -0.04      0.00
   13    1    5     -1.07      0.00
   14    1    5      0.23      0.00
  -12    2    5      0.82      0.00
  -11    2    5     -0.82      0.00
  -10    2    5     -0.67      0.00
   -9    2    5     -0.74      0.00
   -8    2    5     -1.06      0.00
   -7    2    5      0.21      0.00
   -6    2    5     -0.44      0.00
   -5    2    5      0.16      0.00
   -4    2    5      0.04      0.00
   -3    2    5      1.33      0.00
   -2    2    5      5.81      0.00
   -1    2    5     -3.54      0.00
    0    2    5     -4.33      0.00
    1    2    5      1.02      0.00
    2    2    5     -6.04      0.00
    3    2    5     -2.08      0.00
    4    2    5     -2.00      0.00
    5    2    5      0.21      0.00
    6    2    5     -0.37      0.00
    7    2    5      0.30      0.00
    8    2    5      0.02      0.00
    9    2    5      0.00      0.00
   10    2    5     -0.21      0.00
   11    2    5     -0.66      0.00
   12    2    5     -0.85      0.00
   13    2    5      0.52      0.00
   14    2    5     -0.84      0.00
  -12    3    5      1.22      0.00
  -11    3    5     -0.13      0.00
  -10    3    5      0.60      0.00
   -9    3    5     -0.23      0.00
   -8    3    5      0.58      0.00
   -7    3    5     -0.31      0.00
   -6    3    5      0.58      0.00
   -5    3    5      0.46      0.00
   -4    3    5      0.02      0.00
   -3    3    5      0.09      0.00
   -2    3    5     -3.27      0.00
   -1    3    5     -0.14      0.00
    0    3    5      4.94      0.00
    1    3    5     -0.38      0.00
    2    3    5      3.06      0.00
    3    3    5      1.38      0.00
    4    3    5      1.97      0.00
    5    3    5      0.04      0.00
    6    3    5     -0.08      0.00
    7    3    5      0.03      0.00
    8    3    5     -0.29      0.00
    9    3    5     -0.12      0.00
   10    3    5      0.06      0.00
   11    3    5      0.85      0.00
   12    3    5      1.54      0.00
   13    3    5     -0.93      0.00
   14    3    5      0.98      0.00
  -12    4    5     -1.71      0.00
  -11    4    5      0.08      0.00
  -10    4    5      0.13      0.00
   -9    4    5      0.38      0.00
   -8    4    5     -0.06      0.00
   -7    4    5      0.32      0.00
   -6    4    5     -0.12      0.00
   -5    4    5     -0.42      0.00
   -4    4    5      1.03      0.00
   -3    4    5      0.54      0.00
   -2    4    5      0.33      0.00
   -1    4    5      1.81      0.00
    0    4    5     -3.22      0.00
    1    4    5     -2.04      0.00
    2    4    5     -1.98      0.00
    3    4    5      0.18      0.00
    4    4    5     -1.44      0.00
    5    4    5     -0.48      0.00
    6    4    5      0.25      0.00
    7    4    5      0.19      0.00
    8    4    5      0.72      0.00
    9    4    5      0.75      0.00
   10    4    5      0.30      0.00
   11    4    5     -0.78      0.00
   12    4    5     -2.28      0.00
   13    4    5      0.69      0.00
   14    4    5     -2.11      0.00
  -13    5    5      4.26      0.00
  -12    5    5      1.04      0.00
  -11    5    5      0.75      0.00
  -10    5    5     -0.41      0.00
   -9    5    5      0.23      0.00
   -8    5    5      0.09      0.00
   -7    5    5     -0.16      0.00
   -6    5    5      0.00      0.00
   -5    5    5      0.51      0.00
   -4    5    5     -0.63      0.00
   -3    5    5     -0.94      0.00
   -2    5    5      1.94      0.00
   -1    5    5     -1.95      0.00
    0    5    5     -0.16      0.00
    1    5    5      1.59      0.00
    2    5    5      1.82      0.00
    3    5    5     -0.96      0.00
    4    5    5      0.62      0.00
    5    5    5      0.78      0.00
    6    5    5      0.09      0.00
    7    5    5     -0.39      0.00
    8    5    5     -0.61      0.00
    9    5    5     -1.01      0.00
   10    5    5     -0.13      0.00
   11    5    5      0.66      0.00
   12    5    5      2.12      0.00
   13    5    5     -0.24      0.00
   14    5    5      3.19      0.00
  -13    6    5     -2.85      0.00
  -12    6    5      0.27      0.00
  -11    6    5     -0.55      0.00
  -10    6    5     -0.33      0.00
   -9    6    5     -0.41      0.00
   -8    6    5      0.28      0.00
   -7    6    5      0.39      0.00
   -6    6    5      0.22      0.00
   -5    6    5      0.08      0.00
   -4    6    5      0.60      0.00
   -3    6    5      1.95      0.00
   -2    6    5     -1.50      0.00
   -1    6    5      1.15      0.00
    0    6    5      1.10      0.00
    1    6    5     -1.17      0.00
    2    6    5     -2.19      0.00
    3    6    5      0.35      0.00
    4    6    5      0.41      0.00
    5    6    5      0.23      0.00
    6    6    5      0.10      0.00
    7    6    5      0.56      0.00
    8    6    5      0.44      0.00
    9    6    5      1.04      0.00
   10    6    5     -0.22      0.00
   11    6    5     -0.38      0.00
   12    6    5     -1.26      0.00
   13    6    5     -0.44      0.00
   14    6    5     -4.52      0.00
  -13    7    5      1.39      0.00
  -12    7    5      0.33      0.00
  -11    7    5     -0.48      0.00
  -10    7    5      1.41      0.00
   -9    7    5      0.63      0.00
   -8    7    5     -0.46      0.00
   -7    7    5      0.20      0.00
   -6    7    5     -0.06      0.00
   -5    7    5     -0.15      0.00
   -4    7    5      0.03      0.00
   -3    7    5     -0.72      0.00
   -2    7    5      0.74      0.00
   -1    7    5      0.32      0.00
    0    7    5     -0.79      0.00
    1    7    5      0.38      0.00
    2    7    5      0.81      0.00
    3    7    5     -0.04      0.00
    4    7    5     -0.26      0.00
    5    7    5     -0.53      0.00
    6    7    5      0.28      0.00
    7    7    5      0.22      0.00
    8    7    5      0.13      0.00
    9    7    5     -0.83      0.00
   10    7    5     -0.02      0.00
   11    7    5     -0.53      0.00
   12    7    5      0.56      0.00
   13    7    5      0.67      0.00
  -13    8    5      0.57      0.00
  -12    8    5     -1.02      0.00
  -11    8    5      1.37      0.00
  -10    8    5     -1.30      0.00
   -9    8    5     -0.51      0.00
   -8    8    5      1.23      0.00
   -7    8    5     -0.10      0.00
   -6    8    5      0.26      0.00
   -5    8    5      0.30      0.00
   -4    8    5     -0.19      0.00
   -3    8    5     -0.45      0.00
   -2    8    5      1.03      0.00
   -1    8    5     -0.62      0.00
    0    8    5      0.48      0.00
    1    8    5      0.07      0.00
    2    8    5      0.53      0.00
    3    8    5      0.45      0.00
    4    8    5     -0.01      0.00
    5    8    5      0.87      0.00
    6    8    5      0.35      0.00
    7    8    5      0.15      0.00
    8    8    5     -0.17      0.00
    9    8    5      0.37      0.00
   10    8    5      0.33      0.00
   11    8    5      1.35      0.00
   12    8    5     -0.44      0.00
   13    8    5      0.21      0.00
  -12    9    5      1.57      0.00
  -11    9    5     -0.90      0.00
  -10    9    5      0.07      0.00
   -9    9    5     -0.09      0.00
   -8    9    5     -0.97      0.00
   -7    9    5      0.03      0.00
   -6    9    5      0.11      0.00
   -5    9    5     -0.38      0.00
   -4    9    5      0.20      0.00
   -3    9    5      1.02      0.00
   -2    9    5     -1.51      0.00
   -1    9    5      0.86      0.00
    0    9    5      0.08      0.00
    1    9    5     -0.42      0.00
    2    9    5     -0.91      0.00
    3    9    5     -0.57      0.00
    4    9    5      0.51      0.00
    5    9    5     -0.31      0.00
    6    9    5     -0.18      0.00
    7    9    5     -0.28      0.00
    8    9    5      0.36      0.00
    9    9    5      0.00      0.00
   10    9    5     -1.23      0.00
   11    9    5     -1.75      0.00
   12    9    5      1.02      0.00
   13    9    5     -0.21      0.00
  -11   10    5      0.23      0.00
  -10   10    5      0.66      0.00
   -9   10    5      0.81      0.00
   -8   10    5      0.32      0.00
   -7   10    5      0.60      0.00
   -6   10    5      0.09      0.00
   -5   10    5      0.61      0.00
   -4   10    5     -0.01      0.00
   -3   10    5     -0.49      0.00
   -2   10    5      1.28      0.00
   -1   10    5     -0.46      0.00
    0   10    5     -0.23      0.00
    1   10    5      0.53      0.00
    2   10    5      0.21      0.00
    3   10    5     -0.30      0.00
    4   10    5     -1.19      0.00
    5   10    5     -0.16      0.00
    6   10    5      0.05      0.00
    7   10    5      0.32      0.00
    8   10    5     -0.28      0.00
    9   10    5     -0.70      0.00
   10   10    5      1.19      0.00
   11   10    5      0.56      0.00
   12   10    5     -1.61      0.00
   13   10    5      0.19      0.00
  -11   11    5     -0.05      0.00
  -10   11    5     -0.99      0.00
   -9   11    5     -1.32      0.00
   -8   11    5     -0.28      0.00
   -7   11    5     -0.26      0.00
   -6   11    5      0.20      0.00
   -5   11    5      0.13      0.00
   -4   11    5      0.21      0.00
   -3   11    5      0.10      0.00
   -2   11    5     -0.64      0.00
   -1   11    5     -0.15      0.00
    0   11    5     -0.29      0.00
    1   11    5     -0.81      0.00
    2   11    5     -0.21      0.00
    3   11    5      0.40      0.00
    4   11    5      0.92      0.00
    5   11    5     -0.17      0.00
    6   11    5     -0.35      0.00
    7   11    5      0.13      0.00
    8   11    5     -0.18      0.00
    9   11    5      0.69      0.00
   10   11    5     -1.17      0.00
   11   11    5     -0.10      0.00
   12   11    5      2.01      0.00
  -11   12    5      0.52      0.00
  -10   12    5      1.23      0.00
   -9   12    5      0.81      0.00
   -8   12    5      0.67      0.00
   -7   12    5     -0.19      0.00
   -6   12    5     -0.02      0.00
   -5   12    5     -0.15      0.00
   -4   12    5      0.23      0.00
   -3   12    5      0.25      0.00
   -2   12    5      0.22      0.00
   -1   12    5      0.38      0.00
    0   12    5      0.44      0.00
    1   12    5      0.12      0.00
    2   12    5      0.10      0.00
    3   12    5     -0.63      0.00
    4   12    5     -1.02      0.00
    5   12    5     -0.40      0.00
    6   12    5     -0.19      0.00
    7   12    5     -1.08      0.00
    8   12    5      0.22      0.00
    9   12    5     -0.81      0.00
   10   12    5     -0.65      0.00
   11   12    5     -0.26      0.00
  -10   13    5     -1.35      0.00
   -9   13    5     -0.59      0.00
   -8   13    5     -0.70      0.00
   -7   13    5      0.38      0.00
   -6   13    5      0.15      0.00
   -5   13    5      0.04      0.00
   -4   13    5     -0.23      0.00
   -3   13    5     -0.22      0.00
   -2   13    5      0.23      0.00
   -1   13    5     -0.33      0.00
    0   13    5     -0.71      0.00
    1   13    5      0.44      0.00
    2   13    5     -0.45      0.00
    3   13    5      0.38      0.00
    4   13    5      0.32      0.00
    5   13    5      0.10      0.00
    6   13    5     -0.20      0.00
    7   13    5      0.22      0.00
    8   13    5     -0.78      0.00
    9   13    5     -0.04      0.00
   10   13    5      1.34      0.00
   11   13    5     -0.79      0.00
  -10   14    5      1.38      0.00
   -9   14    5      1.16      0.00
   -8   14    5      0.14      0.00
   -7   14    5      0.09      0.00
   -6   14    5      0.62      0.00
   -5   14    5      1.06      0.00
   -4   14    5      0.62      0.00
   -3   14    5      1.09      0.00
   -2   14    5     -0.37      0.00
   -1   14    5     -0.19      0.00
    0   14    5      0.16      0.00
    1   14    5     -1.61      0.00
    2   14    5     -0.15      0.00
    3   14    5     -0.81      0.00
    4   14    5      0.12      0.00
    5   14    5     -0.08      0.00
    6   14    5      0.08      0.00
    7   14    5      0.52      0.00
    8   14    5      0.08      0.00
    9   14    5     -0.60      0.00
   10   14    5     -1.51      0.00
   11   14    5      0.22      0.00
   -9   15    5     -1.34      0.00
   -8   15    5      0.38      0.00
   -7   15    5     -0.54      0.00
   -6   15    5     -1.44      0.00
   -5   15    5     -1.41      0.00
   -4   15    5     -0.03      0.00
   -3   15    5     -1.48      0.00
   -2   15    5      0.54      0.00
   -1   15    5      0.26      0.00
    0   15    5     -0.08      0.00
    1   15    5      1.71      0.00
    2   15    5      0.65      0.00
    3   15    5      1.45      0.00
    4   15    5     -0.19      0.00
    5   15    5      0.00      0.00
    6   15    5     -0.58      0.00
    7   15    5     -1.71      0.00
    8   15    5      0.36      0.00
    9   15    5      1.44      0.00
   10   15    5     -0.09      0.00
   -8   16    5     -0.20      0.00
   -7   16    5      1.09      0.00
   -6   16    5      1.74      0.00
   -5   16    5      0.75      0.00
   -4   16    5     -0.77      0.00
   -3   16    5      1.20      0.00
   -2   16    5     -0.17      0.00
   -1   16    5      0.09      0.00
    0   16    5      0.01      0.00
    1   16    5     -1.55      0.00
    2   16    5     -0.86      0.00
    3   16    5     -1.08      0.00
    4   16    5      0.74      0.00
    5   16    5      0.56      0.00
    6   16    5      1.23      0.00
    7   16    5      2.20      0.00
    8   16    5     -1.11      0.00
    9   16    5     -2.17      0.00
   -7   17    5     -1.45      0.00
   -6   17    5     -1.47      0.00
   -5   17    5      0.32      0.00
   -4   17    5      0.66      0.00
   -3   17    5     -0.24      0.00
   -2   17    5     -0.53      0.00
   -1   17    5     -0.35      0.00
    0   17    5     -0.56      0.00
    1   17    5      0.39      0.00
    2   17    5      0.49      0.00
    3   17    5     -0.12      0.00
    4   17    5     -0.65      0.00
    5   17    5     -0.12      0.00
    6   17    5     -1.21      0.00
    7   17    5     -2.27      0.00
   -6   18    5      1.09      0.00
   -5   18    5     -1.28      0.00
   -4   18    5      0.11      0.00
   -3   18    5     -0.85      0.00
   -2   18    5      0.97      0.00
   -1   18    5     -0.21      0.00
    0   18    5      0.48      0.00
    1   18    5      0.48      0.00
    2   18    5     -0.80      0.00
    3   18    5      1.23      0.00
    4   18    5      1.16      0.00
    5   18    5     -0.18      0.00
   -5   19    5      1.19      0.00
   -4   19    5     -1.17      0.00
   -3   19    5      0.97      0.00
   -2   19    5     -0.72      0.00
   -1   19    5      0.93      0.00
    0   19    5     -0.28      0.00
    1   19    5     -1.74      0.00
    2   19    5      0.29      0.00
    3   19    5     -1.76      0.00
    0  -16    6     -0.56      0.00
    1  -16    6      0.50      0.00
    2  -16    6      0.37      0.00
   -3  -15    6     -0.73      0.00
   -2  -15    6      0.59      0.00
   -1  -15    6      0.54      0.00
    0  -15    6     -0.06      0.00
    1  -15    6     -0.80      0.00
    2  -15    6     -1.07      0.00
    3  -15    6     -0.89      0.00
    4  -15    6     -0.78      0.00
   -4  -14    6     -0.39      0.00
   -3  -14    6      0.72      0.00
   -2  -14    6      0.18      0.00
   -1  -14    6     -0.81      0.00
    0  -14    6      0.32      0.00
    1  -14    6      0.45      0.00
    2  -14    6      0.75      0.00
    3  -14    6      1.06      0.00
    4  -14    6      0.83      0.00
    5  -14    6     -0.69      0.00
    6  -14    6      2.20      0.00
    7  -14    6      1.84      0.00
   -5  -13    6     -1.77      0.00
   -4  -13    6      1.39      0.00
   -3  -13    6      0.57      0.00
   -2  -13    6     -0.55      0.00
   -1  -13    6      0.47      0.00
    0  -13    6     -1.04      0.00
    1  -13    6     -0.56      0.00
    2  -13    6     -0.51      0.00
    3  -13    6     -0.45      0.00
    4  -13    6     -0.39      0.00
    5  -13    6      0.68      0.00
    6  -13    6     -2.27      0.00
    7  -13    6     -2.68      0.00
    8  -13    6      2.01      0.00
   -7  -12    6      1.14      0.00
   -6  -12    6     -1.02      0.00
   -5  -12    6      1.41      0.00
   -4  -12    6     -1.46      0.00
   -3  -12    6     -1.23      0.00
   -2  -12    6      0.64      0.00
   -1  -12    6      0.11      0.00
    0  -12    6      1.00      0.00
    1  -12    6     -0.16      0.00
    2  -12    6     -0.03      0.00
    3  -12    6     -0.41      0.00
    4  -12    6     -0.25      0.00
    5  -12    6      0.02      0.00
    6  -12    6      1.74      0.00
    7  -12    6      1.92      0.00
    8  -12    6     -2.06      0.00
    9  -12    6      1.53      0.00
   10  -12    6      2.34      0.00
   -9  -11    6     -1.50      0.00
   -8  -11    6      0.80      0.00
   -7  -11    6      0.33      0.00
   -6  -11    6      0.38      0.00
   -5  -11    6     -0.22      0.00
   -4  -11    6      1.72      0.00
   -3  -11    6      1.50      0.00
   -2  -11    6      0.02      0.00
   -1  -11    6     -0.25      0.00
    0  -11    6     -0.47      0.00
    1  -11    6      0.23      0.00
    2  -11    6     -0.08      0.00
    3  -11    6      0.33      0.00
    4  -11    6      0.58      0.00
    5  -11    6     -0.36      0.00
    6  -11    6     -0.76      0.00
    7  -11    6      0.50      0.00
    8  -11    6      2.06      0.00
    9  -11    6     -0.64      0.00
   10  -11    6     -1.40      0.00
  -10  -10    6      1.19      0.00
   -9  -10    6      1.13      0.00
   -8  -10    6      0.60      0.00
   -7  -10    6     -0.73      0.00
   -6  -10    6      0.18      0.00
   -5  -10    6     -0.03      0.00
   -4  -10    6     -1.54      0.00
   -3  -10    6     -0.65      0.00
   -2  -10    6     -0.04      0.00
   -1  -10    6      0.05      0.00
    0  -10    6     -0.82      0.00
    1  -10    6     -0.22      0.00
    2  -10    6      0.12      0.00
    3  -10    6      0.11      0.00
    4  -10    6      0.37      0.00
    5  -10    6      0.48      0.00
    6  -10    6      0.49      0.00
    7  -10    6     -1.74      0.00
    8  -10    6     -1.13      0.00
    9  -10    6      0.38      0.00
   10  -10    6      0.43      0.00
   11  -10    6      0.93      0.00
  -10   -9    6     -1.75      0.00
   -9   -9    6     -0.54      0.00
   -8   -9    6     -0.84      0.00
   -7   -9    6      0.79      0.00
   -6   -9    6      0.58      0.00
   -5   -9    6      0.10      0.00
   -4   -9    6      1.45      0.00
   -3   -9    6      0.10      0.00
   -2   -9    6     -0.14      0.00
   -1   -9    6      0.22      0.00
    0   -9    6      1.29      0.00
    1   -9    6     -0.03      0.00
    2   -9    6     -0.29      0.00
    3   -9    6     -0.10      0.00
    4   -9    6     -1.22      0.00
    5   -9    6      0.04      0.00
    6   -9    6      0.24      0.00
    7   -9    6      1.88      0.00
    8   -9    6      0.52      0.00
    9   -9    6     -0.08      0.00
   10   -9    6      0.07      0.00
   11   -9    6     -0.71      0.00
  -11   -8    6     -2.04      0.00
  -10   -8    6      0.63      0.00
   -9   -8    6     -0.04      0.00
   -8   -8    6     -0.49      0.00
   -7   -8    6     -0.65      0.00
   -6   -8    6     -1.16      0.00
   -5   -8    6     -0.29      0.00
   -4   -8    6     -1.13      0.00
   -3   -8    6      0.14      0.00
   -2   -8    6      0.35      0.00
   -1   -8    6     -0.36      0.00
    0   -8    6     -0.61      0.00
    1   -8    6     -0.31      0.00
    2   -8    6     -0.49      0.00
    3   -8    6     -0.19      0.00
    4   -8    6      1.17      0.00
    5   -8    6     -0.06      0.00
    6   -8    6     -0.45      0.00
    7   -8    6     -0.88      0.00
    8   -8    6      0.50      0.00
    9   -8    6      0.33      0.00
   10   -8    6      0.41      0.00
   11   -8    6      0.33      0.00
  -11   -7    6      1.47      0.00
  -10   -7    6      0.01      0.00
   -9   -7    6     -0.33      0.00
   -8   -7    6      1.33      0.00
   -7   -7    6      0.19      0.00
   -6   -7    6      0.41      0.00
   -5   -7    6      0.36      0.00
   -4   -7    6      0.68      0.00
   -3   -7    6     -0.38      0.00
   -2   -7    6     -0.34      0.00
   -1   -7    6      0.25      0.00
    0   -7    6     -0.80      0.00
    1   -7    6     -0.03      0.00
    2   -7    6      1.12      0.00
    3   -7    6      0.12      0.00
    4   -7    6     -0.47      0.00
    5   -7    6      0.24      0.00
    6   -7    6      0.48      0.00
    7   -7    6      0.64      0.00
    8   -7    6     -0.63      0.00
    9   -7    6     -0.43      0.00
   10   -7    6     -1.31      0.00
   11   -7    6     -0.84      0.00
   12   -7    6     -1.23      0.00
  -11   -6    6     -1.89      0.00
  -10   -6    6     -0.87      0.00
   -9   -6    6     -0.36      0.00
   -8   -6    6     -1.80      0.00
   -7   -6    6      0.03      0.00
   -6   -6    6      0.38      0.00
   -5   -6    6     -0.44      0.00
   -4   -6    6     -0.71      0.00
   -3   -6    6      0.48      0.00
   -2   -6    6      0.18      0.00
   -1   -6    6     -0.35      0.00
    0   -6    6      1.01      0.00
    1   -6    6      0.14      0.00
    2   -6    6     -0.92      0.00
    3   -6    6     -0.22      0.00
    4   -6    6      0.37      0.00
    5   -6    6     -0.14      0.00
    6   -6    6      0.13      0.00
    7   -6    6     -0.08      0.00
    8   -6    6      0.55      0.00
    9   -6    6      0.77      0.00
   10   -6    6      1.44      0.00
   11   -6    6      0.62      0.00
   12   -6    6      0.30      0.00
  -12   -5    6     -0.81      0.00
  -11   -5    6      1.51      0.00
  -10   -5    6     -0.04      0.00
   -9   -5    6     -0.15      0.00
   -8   -5    6      0.75      0.00
   -7   -5    6     -0.85      0.00
   -6   -5    6     -0.67      0.00
   -5   -5    6      0.05      0.00
   -4   -5    6      0.61      0.00
   -3   -5    6     -0.52      0.00
   -2   -5    6     -0.28      0.00
   -1   -5    6      0.38      0.00
    0   -5    6     -0.89      0.00
    1   -5    6     -0.14      0.00
    2   -5    6     -0.65      0.00
    3   -5    6      0.51      0.00
    4   -5    6     -0.18      0.00
    5   -5    6      0.18      0.00
    6   -5    6      0.08      0.00
    7   -5    6     -0.38      0.00
    8   -5    6      0.14      0.00
    9   -5    6     -0.65      0.00
   10   -5    6     -1.04      0.00
   11   -5    6     -0.59      0.00
   12   -5    6     -0.39      0.00
   13   -5    6      0.20      0.00
  -12   -4    6      0.21      0.00
  -11   -4    6     -1.38      0.00
  -10   -4    6     -0.05      0.00
   -9   -4    6      0.35      0.00
   -8   -4    6     -0.23      0.00
   -7   -4    6      0.72      0.00
   -6   -4    6     -0.04      0.00
   -5   -4    6      0.18      0.00
   -4   -4    6     -0.25      0.00
   -3   -4    6      0.47      0.00
   -2   -4    6      0.47      0.00
   -1   -4    6     -0.46      0.00
    0   -4    6      0.81      0.00
    1   -4    6     -0.94      0.00
    2   -4    6      0.81      0.00
    3   -4    6     -0.82      0.00
    4   -4    6     -0.55      0.00
    5   -4    6     -0.01      0.00
    6   -4    6     -0.53      0.00
    7   -4    6      0.94      0.00
    8   -4    6      0.07      0.00
    9   -4    6      0.55      0.00
   10   -4    6      0.76      0.00
   11   -4    6      0.01      0.00
   12   -4    6      0.25      0.00
   13   -4    6      0.17      0.00
  -12   -3    6     -0.52      0.00
  -11   -3    6     -0.80      0.00
  -10   -3    6     -0.62      0.00
   -9   -3    6     -0.96      0.00
   -8   -3    6     -0.08      0.00
   -7   -3    6      0.32      0.00
   -6   -3    6      0.82      0.00
   -5   -3    6     -0.30      0.00
   -4   -3    6     -0.13      0.00
   -3   -3    6     -0.34      0.00
   -2   -3    6     -0.05      0.00
   -1   -3    6      0.34      0.00
    0   -3    6     -1.98      0.00
    1   -3    6      1.49      0.00
    2   -3    6      0.59      0.00
    3   -3    6      0.87      0.00
    4   -3    6      1.70      0.00
    5   -3    6      0.64      0.00
    6   -3    6      1.13      0.00
    7   -3    6     -0.57      0.00
    8   -3    6     -0.48      0.00
    9   -3    6      0.21      0.00
   10   -3    6     -0.63      0.00
   11   -3    6      0.19      0.00
   12   -3    6     -0.62      0.00
   13   -3    6     -0.79      0.00
  -12   -2    6     -0.63      0.00
  -11   -2    6      0.94      0.00
  -10   -2    6      0.23      0.00
   -9   -2    6      0.08      0.00
   -8   -2    6     -0.12      0.00
   -7   -2    6     -1.15      0.00
   -6   -2    6     -0.69      0.00
   -5   -2    6      0.39      0.00
   -4   -2    6      0.05      0.00
   -3   -2    6      0.21      0.00
   -2   -2    6     -0.72      0.00
   -1   -2    6     -0.71      0.00
    0   -2    6      3.45      0.00
    1   -2    6     -2.27      0.00
    2   -2    6     -2.85      0.00
    3   -2    6     -0.68      0.00
    4   -2    6     -1.51      0.00
    5   -2    6     -0.84      0.00
    6   -2    6     -1.02      0.00
    7   -2    6      0.03      0.00
    8   -2    6      0.83      0.00
    9   -2    6     -0.53      0.00
   10   -2    6      1.09      0.00
   11   -2    6      0.37      0.00
   12   -2    6      0.70      0.00
   13   -2    6      1.00      0.00
  -12   -1    6     -0.98      0.00
  -11   -1    6     -1.18      0.00
  -10   -1    6     -1.03      0.00
   -9   -1    6      0.88      0.00
   -8   -1    6      0.60      0.00
   -7   -1    6      1.63      0.00
   -6   -1    6      0.24      0.00
   -5   -1    6     -0.27      0.00
   -4   -1    6      0.10      0.00
   -3   -1    6     -0.60      0.00
   -2   -1    6      0.13      0.00
   -1   -1    6      1.41      0.00
    0   -1    6     -5.35      0.00
    1   -1    6      1.59      0.00
    2   -1    6      3.85      0.00
    3   -1    6      0.42      0.00
    4   -1    6      1.42      0.00
    5   -1    6      1.26      0.00
    6   -1    6      1.14      0.00
    7   -1    6     -0.15      0.00
    8   -1    6     -0.73      0.00
    9   -1    6      0.63      0.00
   10   -1    6     -0.84      0.00
   11   -1    6     -0.29      0.00
   12   -1    6     -0.22      0.00
   13   -1    6     -0.65      0.00
  -12    0    6      1.74      0.00
  -11    0    6     -0.86      0.00
  -10    0    6      0.43      0.00
   -9    0    6     -2.04      0.00
   -8    0    6     -0.97      0.00
   -7    0    6     -1.32      0.00
   -6    0    6      0.37      0.00
   -5    0    6     -0.13      0.00
   -4    0    6     -0.75      0.00
   -3    0    6      0.48      0.00
   -2    0    6      1.64      0.00
   -1    0    6     -2.74      0.00
    0    0    6      4.61      0.00
    1    0    6     -0.44      0.00
    2    0    6     -4.85      0.00
    3    0    6     -0.29      0.00
    4    0    6     -1.03      0.00
    5    0    6     -0.55      0.00
    6    0    6     -0.91      0.00
    7    0    6      0.62      0.00
    8    0    6     -0.14      0.00
    9    0    6     -0.65      0.00
   10    0    6      0.60      0.00
   11    0    6      0.41      0.00
   12    0    6      0.77      0.00
   13    0    6      0.86      0.00
   14    0    6      0.63      0.00
  -12    1    6     -2.88      0.00
  -11    1    6      1.27      0.00
  -10    1    6      0.02      0.00
   -9    1    6      1.95      0.00
   -8    1    6      1.21      0.00
   -7    1    6      1.31      0.00
   -6    1    6     -0.34      0.00
   -5    1    6     -0.14      0.00
   -4    1    6      0.23      0.00
   -3    1    6     -1.04      0.00
   -2    1    6     -4.41      0.00
   -1    1    6      2.12      0.00
    0    1    6     -1.83      0.00
    1    1    6     -2.07      0.00
    2    1    6      4.38      0.00
    3    1    6      0.62      0.00
    4    1    6      1.40      0.00
    5    1    6      0.60      0.00
    6    1    6      0.84      0.00
    7    1    6     -1.05      0.00
    8    1    6      0.14      0.00
    9    1    6      0.06      0.00
   10    1    6     -0.19      0.00
   11    1    6      0.27      0.00
   12    1    6     -0.65      0.00
   13    1    6     -0.32      0.00
   14    1    6     -0.04      0.00
  -12    2    6      1.62      0.00
  -11    2    6     -0.85      0.00
  -10    2    6     -0.82      0.00
   -9    2    6     -1.03      0.00
   -8    2    6     -0.85      0.00
   -7    2    6     -0.93      0.00
   -6    2    6      0.12      0.00
   -5    2    6      0.12      0.00
   -4    2    6     -0.33      0.00
   -3    2    6     -0.07      0.00
   -2    2    6      4.44      0.00
   -1    2    6     -0.17      0.00
    0    2    6     -1.66      0.00
    1    2    6      2.87      0.00
    2    2    6     -2.75      0.00
    3    2    6     -1.07      0.00
    4    2    6     -1.22      0.00
    5    2    6     -0.10      0.00
    6    2    6     -0.07      0.00
    7    2    6      0.50      0.00
    8    2    6     -0.37      0.00
    9    2    6      0.00      0.00
   10    2    6     -0.25      0.00
   11    2    6     -0.29      0.00
   12    2    6      1.02      0.00
   13    2    6      0.76      0.00
   14    2    6      0.20      0.00
  -12    3    6      0.42      0.00
  -11    3    6     -0.22      0.00
  -10    3    6      0.75      0.00
   -9    3    6      0.14      0.00
   -8    3    6      0.41      0.00
   -7    3    6      0.88      0.00
   -6    3    6      0.10      0.00
   -5    3    6     -0.18      0.00
   -4    3    6     -0.67      0.00
   -3    3    6     -0.12      0.00
   -2    3    6     -3.14      0.00
   -1    3    6     -2.42      0.00
    0    3    6      2.71      0.00
    1    3    6     -1.61      0.00
    2    3    6      0.43      0.00
    3    3    6      0.65      0.00
    4    3    6      1.27      0.00
    5    3    6      0.36      0.00
    6    3    6     -0.35      0.00
    7    3    6     -0.05      0.00
    8    3    6     -0.51      0.00
    9    3    6     -0.98      0.00
   10    3    6     -0.07      0.00
   11    3    6      0.28      0.00
   12    3    6     -0.05      0.00
   13    3    6     -0.15      0.00
   14    3    6      0.41      0.00
  -12    4    6     -1.68      0.00
  -11    4    6      0.53      0.00
  -10    4    6      0.14      0.00
   -9    4    6     -0.04      0.00
   -8    4    6      0.09      0.00
   -7    4    6     -0.45      0.00
   -6    4    6      0.05      0.00
   -5    4    6     -0.32      0.00
   -4    4    6      0.40      0.00
   -3    4    6     -0.12      0.00
   -2    4    6      0.26      0.00
   -1    4    6      3.20      0.00
    0    4    6     -0.97      0.00
    1    4    6      0.19      0.00
    2    4    6      0.71      0.00
    3    4    6      0.38      0.00
    4    4    6     -0.92      0.00
    5    4    6     -0.47      0.00
    6    4    6      0.50      0.00
    7    4    6     -0.05      0.00
    8    4    6      0.78      0.00
    9    4    6      1.13      0.00
   10    4    6      0.02      0.00
   11    4    6     -0.37      0.00
   12    4    6     -0.89      0.00
   13    4    6     -0.17      0.00
   14    4    6     -0.19      0.00
  -12    5    6      1.10      0.00
  -11    5    6     -0.05      0.00
  -10    5    6     -0.73      0.00
   -9    5    6      0.22      0.00
   -8    5    6     -0.38      0.00
   -7    5    6     -0.18      0.00
   -6    5    6      0.02      0.00
   -5    5    6      0.47      0.00
   -4    5    6     -0.45      0.00
   -3    5    6     -1.44      0.00
   -2    5    6      0.40      0.00
   -1    5    6     -2.60      0.00
    0    5    6     -0.93      0.00
    1    5    6      0.71      0.00
    2    5    6      0.03      0.00
    3    5    6     -0.53      0.00
    4    5    6      0.26      0.00
    5    5    6      0.28      0.00
    6    5    6     -0.21      0.00
    7    5    6     -0.49      0.00
    8    5    6     -1.11      0.00
    9    5    6     -1.43      0.00
   10    5    6     -0.11      0.00
   11    5    6      0.54      0.00
   12    5    6      1.39      0.00
   13    5    6      1.06      0.00
   14    5    6      0.53      0.00
  -13    6    6     -3.67      0.00
  -12    6    6     -0.51      0.00
  -11    6    6     -0.02      0.00
  -10    6    6      0.08      0.00
   -9    6    6     -0.51      0.00
   -8    6    6      0.17      0.00
   -7    6    6      0.49      0.00
   -6    6    6     -0.06      0.00
   -5    6    6     -0.36      0.00
   -4    6    6     -0.11      0.00
   -3    6    6      1.31      0.00
   -2    6    6     -0.68      0.00
   -1    6    6      0.38      0.00
    0    6    6      1.85      0.00
    1    6    6     -0.23      0.00
    2    6    6     -0.13      0.00
    3    6    6      0.14      0.00
    4    6    6      0.31      0.00
    5    6    6      0.24      0.00
    6    6    6     -0.40      0.00
    7    6    6      0.30      0.00
    8    6    6      0.56      0.00
    9    6    6      1.08      0.00
   10    6    6     -0.08      0.00
   11    6    6     -0.69      0.00
   12    6    6     -0.84      0.00
   13    6    6     -1.36      0.00
   14    6    6     -0.84      0.00
  -13    7    6      1.46      0.00
  -12    7    6      0.23      0.00
  -11    7    6     -1.08      0.00
  -10    7    6      0.73      0.00
   -9    7    6      0.17      0.00
   -8    7    6     -0.93      0.00
   -7    7    6     -0.65      0.00
   -6    7    6     -0.09      0.00
   -5    7    6      0.27      0.00
   -4    7    6      0.23      0.00
   -3    7    6     -0.68      0.00
   -2    7    6     -0.85      0.00
   -1    7    6      0.82      0.00
    0    7    6     -2.11      0.00
    1    7    6     -0.13      0.00
    2    7    6     -0.31      0.00
    3    7    6     -0.03      0.00
    4    7    6     -0.79      0.00
    5    7    6     -1.30      0.00
    6    7    6     -0.06      0.00
    7    7    6     -0.23      0.00
    8    7    6     -0.21      0.00
    9    7    6     -0.58      0.00
   10    7    6      0.14      0.00
   11    7    6      0.35      0.00
   12    7    6     -0.17      0.00
   13    7    6      0.45      0.00
  -12    8    6     -0.95      0.00
  -11    8    6      1.78      0.00
  -10    8    6     -0.74      0.00
   -9    8    6     -0.20      0.00
   -8    8    6      1.01      0.00
   -7    8    6     -0.08      0.00
   -6    8    6      0.04      0.00
   -5    8    6      0.13      0.00
   -4    8    6     -0.10      0.00
   -3    8    6     -0.58      0.00
   -2    8    6      1.43      0.00
   -1    8    6     -1.71      0.00
    0    8    6      1.46      0.00
    1    8    6      0.36      0.00
    2    8    6      0.85      0.00
    3    8    6      0.32      0.00
    4    8    6      0.40      0.00
    5    8    6      0.84      0.00
    6    8    6     -0.16      0.00
    7    8    6     -0.39      0.00
    8    8    6     -0.23      0.00
    9    8    6      0.24      0.00
   10    8    6      0.41      0.00
   11    8    6      0.66      0.00
   12    8    6      0.41      0.00
   13    8    6      0.66      0.00
  -12    9    6      0.50      0.00
  -11    9    6     -1.58      0.00
  -10    9    6      0.12      0.00
   -9    9    6     -0.16      0.00
   -8    9    6     -0.75      0.00
   -7    9    6     -0.18      0.00
   -6    9    6     -0.26      0.00
   -5    9    6     -0.69      0.00
   -4    9    6      0.07      0.00
   -3    9    6      0.75      0.00
   -2    9    6     -1.71      0.00
   -1    9    6      1.01      0.00
    0    9    6     -0.81      0.00
    1    9    6     -0.42      0.00
    2    9    6     -0.44      0.00
    3    9    6     -0.05      0.00
    4    9    6      0.20      0.00
    5    9    6     -0.27      0.00
    6    9    6     -0.11      0.00
    7    9    6     -0.23      0.00
    8    9    6      0.04      0.00
    9    9    6      0.02      0.00
   10    9    6     -0.63      0.00
   11    9    6     -0.98      0.00
   12    9    6     -0.17      0.00
   13    9    6     -1.58      0.00
  -11   10    6      0.73      0.00
  -10   10    6      0.37      0.00
   -9   10    6      1.02      0.00
   -8   10    6     -0.09      0.00
   -7   10    6      0.24      0.00
   -6   10    6      0.11      0.00
   -5   10    6      0.63      0.00
   -4   10    6     -0.13      0.00
   -3   10    6     -0.16      0.00
   -2   10    6      1.22      0.00
   -1   10    6     -0.11      0.00
    0   10    6      0.29      0.00
    1   10    6      0.59      0.00
    2   10    6      0.02      0.00
    3   10    6     -0.25      0.00
    4   10    6     -0.68      0.00
    5   10    6     -0.23      0.00
    6   10    6     -0.09      0.00
    7   10    6      0.50      0.00
    8   10    6     -0.01      0.00
    9   10    6      0.09      0.00
   10   10    6      1.47      0.00
   11   10    6      0.85      0.00
   12   10    6     -0.38      0.00
   13   10    6      0.72      0.00
  -11   11    6     -0.20      0.00
  -10   11    6     -0.06      0.00
   -9   11    6     -0.95      0.00
   -8   11    6      0.15      0.00
   -7   11    6     -0.39      0.00
   -6   11    6     -0.53      0.00
   -5   11    6     -0.23      0.00
   -4   11    6      0.07      0.00
   -3   11    6     -0.23      0.00
   -2   11    6     -0.48      0.00
   -1   11    6     -0.29      0.00
    0   11    6      0.04      0.00
    1   11    6     -0.31      0.00
    2   11    6      0.54      0.00
    3   11    6      0.68      0.00
    4   11    6      1.19      0.00
    5   11    6      0.62      0.00
    6   11    6      0.26      0.00
    7   11    6     -0.32      0.00
    8   11    6      0.17      0.00
    9   11    6      0.24      0.00
   10   11    6     -0.96      0.00
   11   11    6      0.11      0.00
   12   11    6      1.22      0.00
  -11   12    6     -0.10      0.00
  -10   12    6      0.29      0.00
   -9   12    6      0.46      0.00
   -8   12    6      0.61      0.00
   -7   12    6      0.06      0.00
   -6   12    6     -0.05      0.00
   -5   12    6     -0.88      0.00
   -4   12    6     -0.32      0.00
   -3   12    6      0.00      0.00
   -2   12    6      0.00      0.00
   -1   12    6      0.53      0.00
    0   12    6      0.49      0.00
    1   12    6      0.52      0.00
    2   12    6     -0.03      0.00
    3   12    6     -0.02      0.00
    4   12    6     -0.51      0.00
    5   12    6     -0.06      0.00
    6   12    6      0.35      0.00
    7   12    6      0.58      0.00
    8   12    6      0.48      0.00
    9   12    6      0.62      0.00
   10   12    6      0.48      0.00
   11   12    6      0.52      0.00
   12   12    6     -1.83      0.00
  -10   13    6     -0.69      0.00
   -9   13    6      0.14      0.00
   -8   13    6     -0.58      0.00
   -7   13    6     -0.28      0.00
   -6   13    6      0.11      0.00
   -5   13    6      0.29      0.00
   -4   13    6     -0.55      0.00
   -3   13    6     -0.58      0.00
   -2   13    6      0.09      0.00
   -1   13    6     -0.05      0.00
    0   13    6     -0.26      0.00
    1   13    6      0.33      0.00
    2   13    6      0.19      0.00
    3   13    6     -0.05      0.00
    4   13    6      0.29      0.00
    5   13    6      0.25      0.00
    6   13    6      0.05      0.00
    7   13    6     -0.22      0.00
    8   13    6     -0.28      0.00
    9   13    6     -0.56      0.00
   10   13    6      1.54      0.00
   11   13    6     -0.16      0.00
   12   13    6      2.27      0.00
  -10   14    6      0.81      0.00
   -9   14    6      0.34      0.00
   -8   14    6     -0.38      0.00
   -7   14    6      0.51      0.00
   -6   14    6     -0.10      0.00
   -5   14    6      0.22      0.00
   -4   14    6      0.46      0.00
   -3   14    6      1.02      0.00
   -2   14    6     -0.30      0.00
   -1   14    6     -0.16      0.00
    0   14    6      0.46      0.00
    1   14    6     -0.46      0.00
    2   14    6     -0.31      0.00
    3   14    6     -0.20      0.00
    4   14    6     -0.18      0.00
    5   14    6     -0.06      0.00
    6   14    6      0.46      0.00
    7   14    6      1.42      0.00
    8   14    6      1.07      0.00
    9   14    6      1.06      0.00
   10   14    6     -1.06      0.00
   11   14    6      0.30      0.00
   -9   15    6     -1.03      0.00
   -8   15    6      1.35      0.00
   -7   15    6     -0.90      0.00
   -6   15    6     -1.08      0.00
   -5   15    6     -1.27      0.00
   -4   15    6     -0.53      0.00
   -3   15    6     -1.99      0.00
   -2   15    6      0.12      0.00
   -1   15    6      0.01      0.00
    0   15    6     -0.13      0.00
    1   15    6      0.70      0.00
    2   15    6      0.70      0.00
    3   15    6      0.41      0.00
    4   15    6     -0.18      0.00
    5   15    6     -0.32      0.00
    6   15    6     -0.76      0.00
    7   15    6     -1.88      0.00
    8   15    6     -0.38      0.00
    9   15    6      0.51      0.00
   10   15    6      0.46      0.00
   11   15    6      0.88      0.00
   -8   16    6     -1.72      0.00
   -7   16    6      1.27      0.00
   -6   16    6      1.85      0.00
   -5   16    6      1.12      0.00
   -4   16    6     -0.22      0.00
   -3   16    6      1.57      0.00
   -2   16    6      0.01      0.00
   -1   16    6      0.67      0.00
    0   16    6      0.52      0.00
    1   16    6     -0.10      0.00
    2   16    6     -0.60      0.00
    3   16    6     -0.71      0.00
    4   16    6     -0.47      0.00
    5   16    6      0.31      0.00
    6   16    6      1.08      0.00
    7   16    6      2.65      0.00
    8   16    6      0.19      0.00
    9   16    6     -0.96      0.00
   -7   17    6     -1.91      0.00
   -6   17    6     -2.06      0.00
   -5   17    6     -0.40      0.00
   -4   17    6      0.09      0.00
   -3   17    6     -0.74      0.00
   -2   17    6     -0.75      0.00
   -1   17    6     -0.85      0.00
    0   17    6     -0.38      0.00
    1   17    6      0.32      0.00
    2   17    6      0.84      0.00
    3   17    6      0.07      0.00
    4   17    6      0.44      0.00
    5   17    6     -1.08      0.00
    6   17    6     -1.79      0.00
    7   17    6     -2.87      0.00
    8   17    6      0.54      0.00
   -6   18    6      1.86      0.00
   -5   18    6     -0.29      0.00
   -4   18    6      0.96      0.00
   -3   18    6     -0.01      0.00
   -2   18    6      1.38      0.00
   -1   18    6      0.30      0.00
    0   18    6      0.40      0.00
    1   18    6      0.21      0.00
    2   18    6     -0.72      0.00
    3   18    6      0.59      0.00
    4   18    6     -0.71      0.00
    5   18    6      0.30      0.00
    6   18    6      1.55      0.00
   -5   19    6      0.72      0.00
   -4   19    6     -1.71      0.00
   -3   19    6      0.00      0.00
   -2   19    6     -1.56      0.00
   -1   19    6      0.47      0.00
    0   19    6      0.08      0.00
    1   19    6     -0.15      0.00
    2   19    6      1.05      0.00
    3   19    6     -0.22      0.00
   -3  -15    7     -1.00      0.00
   -2  -15    7     -0.35      0.00
   -1  -15    7      1.05      0.00
    0  -15    7      0.44      0.00
    1  -15    7     -0.06      0.00
    2  -15    7     -1.24      0.00
    3  -15    7     -0.54      0.00
    4  -15    7     -1.36      0.00
   -3  -14    7      0.66      0.00
   -2  -14    7      0.94      0.00
   -1  -14    7     -1.19      0.00
    0  -14    7      0.41      0.00
    1  -14    7      0.64      0.00
    2  -14    7      1.22      0.00
    3  -14    7      1.04      0.00
    4  -14    7      1.02      0.00
    5  -14    7      0.16      0.00
    6  -14    7      2.24      0.00
   -5  -13    7     -1.34      0.00
   -4  -13    7      0.08      0.00
   -3  -13    7      0.71      0.00
   -2  -13    7     -0.89      0.00
   -1  -13    7      1.38      0.00
    0  -13    7     -0.30      0.00
    1  -13    7     -0.43      0.00
    2  -13    7     -0.45      0.00
    3  -13    7     -0.43      0.00
    4  -13    7     -0.37      0.00
    5  -13    7     -0.30      0.00
    6  -13    7     -2.62      0.00
    7  -13    7     -3.77      0.00
    8  -13    7      0.47      0.00
   -7  -12    7     -0.06      0.00
   -6  -12    7     -1.25      0.00
   -5  -12    7      0.54      0.00
   -4  -12    7     -0.66      0.00
   -3  -12    7     -2.38      0.00
   -2  -12    7      0.00      0.00
   -1  -12    7     -0.74      0.00
    0  -12    7      0.49      0.00
    1  -12    7      0.58      0.00
    2  -12    7      0.28      0.00
    3  -12    7     -0.46      0.00
    4  -12    7     -0.89      0.00
    5  -12    7      0.21      0.00
    6  -12    7      1.74      0.00
    7  -12    7      2.96      0.00
    8  -12    7     -0.97      0.00
    9  -12    7      0.12      0.00
   -8  -11    7      0.60      0.00
   -7  -11    7      0.94      0.00
   -6  -11    7      0.03      0.00
   -5  -11    7     -0.07      0.00
   -4  -11    7      0.70      0.00
   -3  -11    7      2.44      0.00
   -2  -11    7      0.88      0.00
   -1  -11    7      0.39      0.00
    0  -11    7      0.40      0.00
    1  -11    7      0.09      0.00
    2  -11    7      0.28      0.00
    3  -11    7      0.64      0.00
    4  -11    7      1.35      0.00
    5  -11    7     -0.69      0.00
    6  -11    7     -1.34      0.00
    7  -11    7     -1.19      0.00
    8  -11    7      0.61      0.00
    9  -11    7     -0.38      0.00
   -9  -10    7      0.57      0.00
   -8  -10    7      0.59      0.00
   -7  -10    7     -1.65      0.00
   -6  -10    7      0.13      0.00
   -5  -10    7     -0.20      0.00
   -4  -10    7     -1.00      0.00
   -3  -10    7     -1.81      0.00
   -2  -10    7     -1.09      0.00
   -1  -10    7     -0.32      0.00
    0  -10    7     -1.22      0.00
    1  -10    7      0.00      0.00
    2  -10    7     -0.17      0.00
    3  -10    7     -0.07      0.00
    4  -10    7     -0.60      0.00
    5  -10    7      0.51      0.00
    6  -10    7      0.62      0.00
    7  -10    7     -0.90      0.00
    8  -10    7     -0.75      0.00
    9  -10    7      0.25      0.00
   10  -10    7      0.42      0.00
  -10   -9    7     -0.78      0.00
   -9   -9    7      0.15      0.00
   -8   -9    7     -1.24      0.00
   -7   -9    7      1.34      0.00
   -6   -9    7      0.79      0.00
   -5   -9    7     -0.04      0.00
   -4   -9    7      0.61      0.00
   -3   -9    7      0.73      0.00
   -2   -9    7     -0.15      0.00
   -1   -9    7      0.23      0.00
    0   -9    7      1.59      0.00
    1   -9    7      0.25      0.00
    2   -9    7      0.32      0.00
    3   -9    7      0.03      0.00
    4   -9    7     -0.73      0.00
    5   -9    7     -0.51      0.00
    6   -9    7     -0.27      0.00
    7   -9    7      0.99      0.00
    8   -9    7      0.04      0.00
    9   -9    7     -0.66      0.00
   10   -9    7     -0.21      0.00
   11   -9    7     -1.06      0.00
  -10   -8    7      0.61      0.00
   -9   -8    7      0.36      0.00
   -8   -8    7      0.87      0.00
   -7   -8    7     -0.66      0.00
   -6   -8    7     -1.57      0.00
   -5   -8    7      0.00      0.00
   -4   -8    7      0.01      0.00
   -3   -8    7     -0.32      0.00
   -2   -8    7      1.24      0.00
   -1   -8    7     -0.22      0.00
    0   -8    7     -0.62      0.00
    1   -8    7     -0.33      0.00
    2   -8    7     -0.63      0.00
    3   -8    7     -0.13      0.00
    4   -8    7      1.00      0.00
    5   -8    7      0.37      0.00
    6   -8    7     -0.40      0.00
    7   -8    7     -0.75      0.00
    8   -8    7      0.42      0.00
    9   -8    7      0.66      0.00
   10   -8    7      0.87      0.00
   11   -8    7      1.37      0.00
  -10   -7    7      0.88      0.00
   -9   -7    7     -0.36      0.00
   -8   -7    7      0.48      0.00
   -7   -7    7      0.74      0.00
   -6   -7    7      1.21      0.00
   -5   -7    7      0.38      0.00
   -4   -7    7     -0.25      0.00
   -3   -7    7      0.14      0.00
   -2   -7    7     -1.49      0.00
   -1   -7    7      0.30      0.00
    0   -7    7     -0.58      0.00
    1   -7    7      0.41      0.00
    2   -7    7      1.55      0.00
    3   -7    7      0.10      0.00
    4   -7    7     -0.45      0.00
    5   -7    7     -0.36      0.00
    6   -7    7      0.17      0.00
    7   -7    7      0.25      0.00
    8   -7    7     -0.91      0.00
    9   -7    7     -0.77      0.00
   10   -7    7     -1.37      0.00
   11   -7    7     -0.93      0.00
   12   -7    7     -0.64      0.00
  -11   -6    7     -2.56      0.00
  -10   -6    7     -1.09      0.00
   -9   -6    7      0.86      0.00
   -8   -6    7     -0.12      0.00
   -7   -6    7      0.08      0.00
   -6   -6    7      0.68      0.00
   -5   -6    7      0.03      0.00
   -4   -6    7      0.03      0.00
   -3   -6    7      0.08      0.00
   -2   -6    7      0.83      0.00
   -1   -6    7     -0.47      0.00
    0   -6    7      1.04      0.00
    1   -6    7     -0.15      0.00
    2   -6    7     -1.36      0.00
    3   -6    7      0.11      0.00
    4   -6    7      0.09      0.00
    5   -6    7      0.06      0.00
    6   -6    7      0.17      0.00
    7   -6    7     -0.03      0.00
    8   -6    7      0.34      0.00
    9   -6    7      0.92      0.00
   10   -6    7      1.62      0.00
   11   -6    7      0.90      0.00
   12   -6    7      0.53      0.00
  -11   -5    7      3.54      0.00
  -10   -5    7      1.51      0.00
   -9   -5    7     -0.06      0.00
   -8   -5    7      0.03      0.00
   -7   -5    7     -0.35      0.00
   -6   -5    7     -1.22      0.00
   -5   -5    7     -0.14      0.00
   -4   -5    7      0.64      0.00
   -3   -5    7     -0.17      0.00
   -2   -5    7     -0.23      0.00
   -1   -5    7      0.48      0.00
    0   -5    7     -0.63      0.00
    1   -5    7      0.65      0.00
    2   -5    7     -0.05      0.00
    3   -5    7     -0.16      0.00
    4   -5    7     -0.17      0.00
    5   -5    7     -0.26      0.00
    6   -5    7     -0.31      0.00
    7   -5    7     -0.84      0.00
    8   -5    7      0.18      0.00
    9   -5    7     -1.07      0.00
   10   -5    7     -1.04      0.00
   11   -5    7      0.27      0.00
   12   -5    7      0.12      0.00
   13   -5    7      0.52      0.00
  -11   -4    7     -2.46      0.00
  -10   -4    7     -0.58      0.00
   -9   -4    7      0.53      0.00
   -8   -4    7      1.00      0.00
   -7   -4    7      0.84      0.00
   -6   -4    7      0.85      0.00
   -5   -4    7      0.25      0.00
   -4   -4    7     -0.70      0.00
   -3   -4    7      0.19      0.00
   -2   -4    7     -0.05      0.00
   -1   -4    7     -0.23      0.00
    0   -4    7      0.66      0.00
    1   -4    7     -1.41      0.00
    2   -4    7      1.44      0.00
    3   -4    7      0.29      0.00
    4   -4    7     -0.30      0.00
    5   -4    7      0.33      0.00
    6   -4    7     -0.47      0.00
    7   -4    7      0.98      0.00
    8   -4    7     -0.65      0.00
    9   -4    7      0.37      0.00
   10   -4    7      0.29      0.00
   11   -4    7     -1.00      0.00
   12   -4    7      0.55      0.00
   13   -4    7      0.53      0.00
  -11   -3    7      1.16      0.00
  -10   -3    7      0.53      0.00
   -9   -3    7     -0.15      0.00
   -8   -3    7     -1.05      0.00
   -7   -3    7     -0.09      0.00
   -6   -3    7      0.21      0.00
   -5   -3    7     -0.18      0.00
   -4   -3    7      0.22      0.00
   -3   -3    7     -0.42      0.00
   -2   -3    7      0.13      0.00
   -1   -3    7     -0.01      0.00
    0   -3    7     -1.26      0.00
    1   -3    7      2.15      0.00
    2   -3    7     -0.86      0.00
    3   -3    7     -0.67      0.00
    4   -3    7      0.48      0.00
    5   -3    7     -0.49      0.00
    6   -3    7      0.74      0.00
    7   -3    7     -0.60      0.00
    8   -3    7     -0.04      0.00
    9   -3    7     -0.01      0.00
   10   -3    7     -0.18      0.00
   11   -3    7      1.03      0.00
   12   -3    7     -1.01      0.00
   13   -3    7     -0.96      0.00
  -11   -2    7      1.18      0.00
  -10   -2    7      0.85      0.00
   -9   -2    7      0.19      0.00
   -8   -2    7      1.11      0.00
   -7   -2    7     -0.80      0.00
   -6   -2    7     -0.81      0.00
   -5   -2    7      0.10      0.00
   -4   -2    7      0.00      0.00
   -3   -2    7      0.45      0.00
   -2   -2    7     -0.44      0.00
   -1   -2    7     -0.23      0.00
    0   -2    7      2.54      0.00
    1   -2    7     -1.79      0.00
    2   -2    7     -0.81      0.00
    3   -2    7      0.65      0.00
    4   -2    7     -0.59      0.00
    5   -2    7     -0.21      0.00
    6   -2    7     -0.95      0.00
    7   -2    7     -0.27      0.00
    8   -2    7      0.37      0.00
    9   -2    7     -0.66      0.00
   10   -2    7     -0.28      0.00
   11   -2    7     -0.93      0.00
   12   -2    7      0.77      0.00
   13   -2    7      0.44      0.00
  -12   -1    7      1.03      0.00
  -11   -1    7     -0.57      0.00
  -10   -1    7     -0.87      0.00
   -9   -1    7      0.97      0.00
   -8   -1    7     -0.47      0.00
   -7   -1    7      1.15      0.00
   -6   -1    7      0.31      0.00
   -5   -1    7     -0.23      0.00
   -4   -1    7      0.06      0.00
   -3   -1    7     -0.35      0.00
   -2   -1    7      0.17      0.00
   -1   -1    7      1.26      0.00
    0   -1    7     -3.16      0.00
    1   -1    7      0.99      0.00
    2   -1    7      2.48      0.00
    3   -1    7     -0.60      0.00
    4   -1    7     -0.06      0.00
    5   -1    7      0.23      0.00
    6   -1    7      0.88      0.00
    7   -1    7      0.33      0.00
    8   -1    7     -0.43      0.00
    9   -1    7      0.36      0.00
   10   -1    7     -0.36      0.00
   11   -1    7     -0.03      0.00
   12   -1    7     -0.91      0.00
   13   -1    7      0.26      0.00
  -12    0    7      1.63      0.00
  -11    0    7      0.08      0.00
  -10    0    7      1.37      0.00
   -9    0    7     -1.29      0.00
   -8    0    7     -0.01      0.00
   -7    0    7     -1.24      0.00
   -6    0    7      0.16      0.00
   -5    0    7      0.18      0.00
   -4    0    7     -0.11      0.00
   -3    0    7      0.44      0.00
   -2    0    7      1.53      0.00
   -1    0    7     -1.75      0.00
    0    0    7      3.04      0.00
    1    0    7      1.19      0.00
    2    0    7     -2.90      0.00
    3    0    7      0.19      0.00
    4    0    7     -0.28      0.00
    5    0    7     -0.60      0.00
    6    0    7     -1.17      0.00
    7    0    7      0.40      0.00
    8    0    7      0.28      0.00
    9    0    7     -0.20      0.00
   10    0    7      0.17      0.00
   11    0    7     -0.44      0.00
   12    0    7      0.28      0.00
   13    0    7     -1.40      0.00
  -12    1    7     -2.99      0.00
  -11    1    7      1.17      0.00
  -10    1    7     -0.34      0.00
   -9    1    7      1.40      0.00
   -8    1    7      0.29      0.00
   -7    1    7      0.88      0.00
   -6    1    7     -0.57      0.00
   -5    1    7     -0.32      0.00
   -4    1    7      0.30      0.00
   -3    1    7      0.29      0.00
   -2    1    7     -2.72      0.00
   -1    1    7      1.73      0.00
    0    1    7     -0.83      0.00
    1    1    7     -2.83      0.00
    2    1    7      2.27      0.00
    3    1    7      0.14      0.00
    4    1    7      0.18      0.00
    5    1    7      0.14      0.00
    6    1    7      0.89      0.00
    7    1    7     -0.62      0.00
    8    1    7      0.27      0.00
    9    1    7      0.15      0.00
   10    1    7     -0.20      0.00
   11    1    7     -0.01      0.00
   12    1    7     -1.40      0.00
   13    1    7      0.50      0.00
  -12    2    7      2.98      0.00
  -11    2    7     -0.76      0.00
  -10    2    7     -0.31      0.00
   -9    2    7     -0.55      0.00
   -8    2    7     -0.35      0.00
   -7    2    7     -1.08      0.00
   -6    2    7      0.07      0.00
   -5    2    7      0.59      0.00
   -4    2    7      0.48      0.00
   -3    2    7     -0.27      0.00
   -2    2    7      3.57      0.00
   -1    2    7      0.31      0.00
    0    2    7     -0.73      0.00
    1    2    7      3.62      0.00
    2    2    7     -0.11      0.00
    3    2    7     -0.45      0.00
    4    2    7     -0.58      0.00
    5    2    7     -0.26      0.00
    6    2    7     -0.29      0.00
    7    2    7      0.55      0.00
    8    2    7      0.24      0.00
    9    2    7      0.58      0.00
   10    2    7     -0.08      0.00
   11    2    7     -0.22      0.00
   12    2    7      1.49      0.00
   13    2    7     -0.37      0.00
  -12    3    7     -1.26      0.00
  -11    3    7     -0.26      0.00
  -10    3    7      0.45      0.00
   -9    3    7     -0.14      0.00
   -8    3    7     -0.01      0.00
   -7    3    7      0.89      0.00
   -6    3    7      0.00      0.00
   -5    3    7     -0.56      0.00
   -4    3    7     -0.57      0.00
   -3    3    7      1.25      0.00
   -2    3    7     -1.66      0.00
   -1    3    7     -1.52      0.00
    0    3    7      1.21      0.00
    1    3    7     -2.30      0.00
    2    3    7     -1.86      0.00
    3    3    7     -0.11      0.00
    4    3    7      0.38      0.00
    5    3    7     -0.10      0.00
    6    3    7     -0.56      0.00
    7    3    7      0.19      0.00
    8    3    7     -0.23      0.00
    9    3    7     -0.69      0.00
   10    3    7      0.26      0.00
   11    3    7      0.06      0.00
   12    3    7     -1.85      0.00
   13    3    7     -0.31      0.00
  -12    4    7     -0.43      0.00
  -11    4    7      0.63      0.00
  -10    4    7      0.04      0.00
   -9    4    7      0.16      0.00
   -8    4    7      0.14      0.00
   -7    4    7     -0.95      0.00
   -6    4    7     -0.49      0.00
   -5    4    7      0.06      0.00
   -4    4    7      0.80      0.00
   -3    4    7     -0.22      0.00
   -2    4    7      0.83      0.00
   -1    4    7      2.57      0.00
    0    4    7      0.36      0.00
    1    4    7      0.76      0.00
    2    4    7      2.34      0.00
    3    4    7      0.68      0.00
    4    4    7     -0.58      0.00
    5    4    7     -0.24      0.00
    6    4    7      0.60      0.00
    7    4    7     -0.08      0.00
    8    4    7      1.15      0.00
    9    4    7      1.45      0.00
   10    4    7      0.36      0.00
   11    4    7     -0.13      0.00
   12    4    7      0.83      0.00
   13    4    7     -0.65      0.00
   14    4    7      1.09      0.00
  -12    5    7      0.89      0.00
  -11    5    7     -0.44      0.00
  -10    5    7     -0.34      0.00
   -9    5    7      0.21      0.00
   -8    5    7     -0.03      0.00
   -7    5    7      0.04      0.00
   -6    5    7      0.24      0.00
   -5    5    7      0.08      0.00
   -4    5    7     -0.14      0.00
   -3    5    7     -0.15      0.00
   -2    5    7      0.35      0.00
   -1    5    7     -1.13      0.00
    0    5    7     -1.62      0.00
    1    5    7     -0.16      0.00
    2    5    7     -1.81      0.00
    3    5    7     -0.90      0.00
    4    5    7      0.14      0.00
    5    5    7      0.12      0.00
    6    5    7     -0.10      0.00
    7    5    7     -0.17      0.00
    8    5    7     -1.11      0.00
    9    5    7     -1.07      0.00
   10    5    7     -0.37      0.00
   11    5    7      0.53      0.00
   12    5    7      0.02      0.00
   13    5    7      1.52      0.00
   14    5    7     -1.65      0.00
  -12    6    7     -0.84      0.00
  -11    6    7      0.33      0.00
  -10    6    7     -0.10      0.00
   -9    6    7      0.22      0.00
   -8    6    7      0.34      0.00
   -7    6    7      0.97      0.00
   -6    6    7     -0.29      0.00
   -5    6    7     -0.53      0.00
   -4    6    7     -0.32      0.00
   -3    6    7      0.85      0.00
   -2    6    7      0.78      0.00
   -1    6    7     -0.22      0.00
    0    6    7      2.55      0.00
    1    6    7      0.28      0.00
    2    6    7      1.06      0.00
    3    6    7      0.36      0.00
    4    6    7      0.44      0.00
    5    6    7      0.49      0.00
    6    6    7     -0.15      0.00
    7    6    7      0.56      0.00
    8    6    7      0.97      0.00
    9    6    7      0.72      0.00
   10    6    7      0.38      0.00
   11    6    7     -0.82      0.00
   12    6    7     -0.09      0.00
   13    6    7     -1.84      0.00
   14    6    7      1.45      0.00
  -13    7    7      1.69      0.00
  -11    7    7     -0.74      0.00
  -10    7    7      0.86      0.00
   -9    7    7     -0.32      0.00
   -8    7    7     -0.50      0.00
   -7    7    7     -1.00      0.00
   -6    7    7     -0.08      0.00
   -5    7    7      0.30      0.00
   -4    7    7      0.21      0.00
   -3    7    7     -0.05      0.00
   -2    7    7     -1.07      0.00
   -1    7    7      2.25      0.00
    0    7    7     -2.32      0.00
    1    7    7     -0.59      0.00
    2    7    7     -0.97      0.00
    3    7    7     -0.19      0.00
    4    7    7     -0.87      0.00
    5    7    7     -0.78      0.00
    6    7    7      0.21      0.00
    7    7    7     -0.02      0.00
    8    7    7     -0.33      0.00
    9    7    7     -0.13      0.00
   10    7    7     -0.22      0.00
   11    7    7      0.94      0.00
   12    7    7     -0.08      0.00
   13    7    7      0.83      0.00
  -12    8    7     -1.65      0.00
  -11    8    7      1.50      0.00
  -10    8    7     -0.51      0.00
   -9    8    7      0.66      0.00
   -8    8    7      1.24      0.00
   -7    8    7      0.82      0.00
   -6    8    7      0.18      0.00
   -5    8    7     -0.14      0.00
   -4    8    7     -0.13      0.00
   -3    8    7     -0.55      0.00
   -2    8    7      1.62      0.00
   -1    8    7     -2.17      0.00
    0    8    7      1.99      0.00
    1    8    7      0.64      0.00
    2    8    7      0.52      0.00
    3    8    7      0.05      0.00
    4    8    7      1.04      0.00
    5    8    7      0.78      0.00
    6    8    7      0.48      0.00
    7    8    7     -0.04      0.00
    8    8    7      0.25      0.00
    9    8    7     -0.22      0.00
   10    8    7     -0.13      0.00
   11    8    7     -0.69      0.00
   12    8    7      0.03      0.00
   13    8    7      1.20      0.00
  -11    9    7     -1.63      0.00
  -10    9    7     -0.31      0.00
   -9    9    7     -0.64      0.00
   -8    9    7     -0.39      0.00
   -7    9    7     -0.05      0.00
   -6    9    7      0.08      0.00
   -5    9    7     -0.58      0.00
   -4    9    7     -0.30      0.00
   -3    9    7      0.37      0.00
   -2    9    7     -1.23      0.00
   -1    9    7      1.26      0.00
    0    9    7     -1.06      0.00
    1    9    7     -0.51      0.00
    2    9    7     -0.06      0.00
    3    9    7      0.22      0.00
    4    9    7     -0.55      0.00
    5    9    7      0.19      0.00
    6    9    7     -0.09      0.00
    7    9    7      0.23      0.00
    8    9    7     -0.25      0.00
    9    9    7     -0.06      0.00
   10    9    7     -0.19      0.00
   11    9    7      0.16      0.00
   12    9    7      0.33      0.00
   13    9    7     -2.06      0.00
  -11   10    7      1.44      0.00
  -10   10    7      0.32      0.00
   -9   10    7      0.71      0.00
   -8   10    7     -0.48      0.00
   -7   10    7      0.17      0.00
   -6   10    7      0.35      0.00
   -5   10    7      0.80      0.00
   -4   10    7      0.28      0.00
   -3   10    7     -0.14      0.00
   -2   10    7      0.44      0.00
   -1   10    7     -0.08      0.00
    0   10    7      0.18      0.00
    1   10    7      0.11      0.00
    2   10    7     -0.59      0.00
    3   10    7     -0.74      0.00
    4   10    7     -0.20      0.00
    5   10    7     -0.66      0.00
    6   10    7     -0.07      0.00
    7   10    7      0.38      0.00
    8   10    7      0.34      0.00
    9   10    7     -0.01      0.00
   10   10    7      0.24      0.00
   11   10    7     -0.63      0.00
   12   10    7     -0.42      0.00
   13   10    7      2.09      0.00
  -11   11    7     -0.97      0.00
  -10   11    7     -0.04      0.00
   -9   11    7     -0.68      0.00
   -8   11    7      0.46      0.00
   -7   11    7      0.09      0.00
   -6   11    7     -0.48      0.00
   -5   11    7      0.08      0.00
   -4   11    7     -0.16      0.00
   -3   11    7      0.14      0.00
   -2   11    7      0.13      0.00
   -1   11    7     -0.61      0.00
    0   11    7     -0.14      0.00
    1   11    7     -0.38      0.00
    2   11    7      0.40      0.00
    3   11    7      0.33      0.00
    4   11    7      0.28      0.00
    5   11    7      0.49      0.00
    6   11    7      0.04      0.00
    7   11    7     -0.85      0.00
    8   11    7     -0.46      0.00
    9   11    7     -0.26      0.00
   10   11    7     -1.09      0.00
   11   11    7      0.40      0.00
   12   11    7      0.56      0.00
   13   11    7     -1.13      0.00
  -10   12    7     -0.52      0.00
   -9   12    7     -0.54      0.00
   -8   12    7      0.25      0.00
   -7   12    7      0.14      0.00
   -6   12    7      0.72      0.00
   -5   12    7     -0.58      0.00
   -4   12    7      0.46      0.00
   -3   12    7     -0.28      0.00
   -2   12    7     -0.56      0.00
   -1   12    7      0.06      0.00
    0   12    7     -0.17      0.00
    1   12    7      0.08      0.00
    2   12    7     -0.64      0.00
    3   12    7     -0.05      0.00
    4   12    7     -0.31      0.00
    5   12    7     -0.47      0.00
    6   12    7     -0.27      0.00
    7   12    7      0.65      0.00
    8   12    7      0.18      0.00
    9   12    7     -0.08      0.00
   10   12    7      0.11      0.00
   11   12    7     -0.41      0.00
   12   12    7     -1.36      0.00
  -10   13    7      0.25      0.00
   -9   13    7      0.90      0.00
   -8   13    7     -0.65      0.00
   -7   13    7     -0.45      0.00
   -6   13    7      0.30      0.00
   -5   13    7      1.31      0.00
   -4   13    7     -0.26      0.00
   -3   13    7      0.25      0.00
   -2   13    7      0.39      0.00
   -1   13    7      0.14      0.00
    0   13    7     -0.33      0.00
    1   13    7     -0.34      0.00
    2   13    7      0.54      0.00
    3   13    7     -0.37      0.00
    4   13    7      0.04      0.00
    5   13    7     -0.09      0.00
    6   13    7     -0.20      0.00
    7   13    7     -1.23      0.00
    8   13    7     -1.19      0.00
    9   13    7     -1.13      0.00
   10   13    7      0.17      0.00
   11   13    7     -0.56      0.00
   12   13    7      1.39      0.00
  -10   14    7     -0.12      0.00
   -9   14    7     -0.58      0.00
   -8   14    7     -0.31      0.00
   -7   14    7      0.86      0.00
   -6   14    7     -0.18      0.00
   -5   14    7     -0.37      0.00
   -4   14    7      0.95      0.00
   -3   14    7      1.06      0.00
   -2   14    7      0.12      0.00
   -1   14    7     -0.35      0.00
    0   14    7     -0.05      0.00
    1   14    7     -0.03      0.00
    2   14    7     -0.79      0.00
    3   14    7      0.71      0.00
    4   14    7      0.14      0.00
    5   14    7      0.26      0.00
    6   14    7     -0.04      0.00
    7   14    7      0.81      0.00
    8   14    7      0.90      0.00
    9   14    7      0.70      0.00
   10   14    7     -1.13      0.00
   11   14    7     -0.69      0.00
   -9   15    7     -0.32      0.00
   -8   15    7      1.49      0.00
   -7   15    7     -0.49      0.00
   -6   15    7     -0.19      0.00
   -5   15    7      0.13      0.00
   -4   15    7     -0.15      0.00
   -3   15    7     -1.34      0.00
   -2   15    7     -0.01      0.00
   -1   15    7     -0.26      0.00
    0   15    7     -0.22      0.00
    1   15    7     -0.53      0.00
    2   15    7      0.66      0.00
    3   15    7     -0.49      0.00
    4   15    7      0.32      0.00
    5   15    7     -0.24      0.00
    6   15    7     -0.40      0.00
    7   15    7     -1.80      0.00
    8   15    7     -1.64      0.00
    9   15    7     -1.02      0.00
   10   15    7     -0.54      0.00
   11   15    7      0.79      0.00
   -8   16    7     -2.12      0.00
   -7   16    7      0.38      0.00
   -6   16    7      1.32      0.00
   -5   16    7      0.68      0.00
   -4   16    7      0.11      0.00
   -3   16    7      1.49      0.00
   -2   16    7      0.10      0.00
   -1   16    7      0.77      0.00
    0   16    7     -0.09      0.00
    1   16    7      0.38      0.00
    2   16    7     -0.36      0.00
    3   16    7      0.93      0.00
    4   16    7      0.06      0.00
    5   16    7      1.36      0.00
    6   16    7      1.04      0.00
    7   16    7      2.29      0.00
    8   16    7      0.70      0.00
    9   16    7     -0.20      0.00
   10   16    7      0.75      0.00
   -7   17    7     -0.66      0.00
   -6   17    7     -1.65      0.00
   -5   17    7     -0.61      0.00
   -4   17    7     -0.21      0.00
   -3   17    7     -0.41      0.00
   -2   17    7     -0.21      0.00
   -1   17    7     -0.88      0.00
    0   17    7     -0.21      0.00
    1   17    7     -0.42      0.00
    2   17    7      0.25      0.00
    3   17    7     -0.62      0.00
    4   17    7      1.42      0.00
    5   17    7     -1.19      0.00
    6   17    7     -1.16      0.00
    7   17    7     -2.75      0.00
    8   17    7     -0.36      0.00
   -6   18    7      1.49      0.00
   -5   18    7      0.27      0.00
   -4   18    7      1.29      0.00
   -3   18    7     -0.03      0.00
   -2   18    7      0.95      0.00
   -1   18    7      0.16      0.00
    0   18    7     -0.39      0.00
    1   18    7     -0.62      0.00
    2   18    7     -1.04      0.00
    3   18    7      0.50      0.00
    4   18    7     -1.62      0.00
    5   18    7      1.47      0.00
    6   18    7      1.92      0.00
   -5   19    7     -0.02      0.00
   -4   19    7     -2.08      0.00
   -3   19    7     -0.18      0.00
   -2   19    7     -1.25      0.00
   -1   19    7      0.61      0.00
    0   19    7      0.42      0.00
    1   19    7      0.45      0.00
    2   19    7      0.63      0.00
    3   19    7     -0.14      0.00
   -1  -15    8      0.68      0.00
    0  -15    8      0.26      0.00
    1  -15    8     -0.49      0.00
    2  -15    8     -1.15      0.00
   -3  -14    8      0.22      0.00
   -2  -14    8      1.26      0.00
   -1  -14    8     -1.59      0.00
    0  -14    8     -0.21      0.00
    1  -14    8      0.52      0.00
    2  -14    8      0.81      0.00
    3  -14    8      1.57      0.00
    4  -14    8      1.34      0.00
    5  -14    8      1.07      0.00
   -5  -13    8      0.15      0.00
   -4  -13    8     -1.32      0.00
   -3  -13    8      0.96      0.00
   -2  -13    8     -1.13      0.00
   -1  -13    8      1.38      0.00
    0  -13    8     -0.34      0.00
    1  -13    8     -1.05      0.00
    2  -13    8     -0.54      0.00
    3  -13    8     -1.11      0.00
    4  -13    8     -0.55      0.00
    5  -13    8     -0.56      0.00
    6  -13    8     -2.00      0.00
    7  -13    8     -2.83      0.00
   -6  -12    8     -0.46      0.00
   -5  -12    8     -0.51      0.00
   -4  -12    8      1.19      0.00
   -3  -12    8     -2.40      0.00
   -2  -12    8     -0.34      0.00
   -1  -12    8     -1.40      0.00
    0  -12    8     -0.42      0.00
    1  -12    8      0.43      0.00
    2  -12    8     -0.02      0.00
    3  -12    8      0.00      0.00
    4  -12    8     -0.47      0.00
    5  -12    8      0.45      0.00
    6  -12    8      1.72      0.00
    7  -12    8      3.08      0.00
    8  -12    8      0.99      0.00
   -8  -11    8      0.58      0.00
   -7  -11    8      1.88      0.00
   -6  -11    8     -0.31      0.00
   -5  -11    8      0.58      0.00
   -4  -11    8     -0.52      0.00
   -3  -11    8      2.84      0.00
   -2  -11    8      1.81      0.00
   -1  -11    8      0.94      0.00
    0  -11    8      0.73      0.00
    1  -11    8     -0.40      0.00
    2  -11    8      0.04      0.00
    3  -11    8      0.42      0.00
    4  -11    8      1.64      0.00
    5  -11    8     -0.02      0.00
    6  -11    8     -0.68      0.00
    7  -11    8     -1.37      0.00
    8  -11    8     -0.49      0.00
    9  -11    8      0.00      0.00
   -8  -10    8      0.33      0.00
   -7  -10    8     -2.17      0.00
   -6  -10    8      0.38      0.00
   -5  -10    8     -0.05      0.00
   -4  -10    8     -0.04      0.00
   -3  -10    8     -2.00      0.00
   -2  -10    8     -2.01      0.00
   -1  -10    8     -0.87      0.00
    0  -10    8     -1.47      0.00
    1  -10    8     -0.08      0.00
    2  -10    8     -0.45      0.00
    3  -10    8     -0.28      0.00
    4  -10    8     -1.29      0.00
    5  -10    8      0.27      0.00
    6  -10    8      0.79      0.00
    7  -10    8      0.62      0.00
    8  -10    8      0.59      0.00
    9  -10    8      0.80      0.00
   -9   -9    8      1.09      0.00
   -8   -9    8     -1.06      0.00
   -7   -9    8      1.44      0.00
   -6   -9    8      1.01      0.00
   -5   -9    8     -0.11      0.00
   -4   -9    8      0.35      0.00
   -3   -9    8      1.34      0.00
   -2   -9    8      0.87      0.00
   -1   -9    8      0.70      0.00
    0   -9    8      1.24      0.00
    1   -9    8     -0.06      0.00
    2   -9    8      0.08      0.00
    3   -9    8     -0.05      0.00
    4   -9    8      0.00      0.00
    5   -9    8     -0.28      0.00
    6   -9    8     -0.37      0.00
    7   -9    8     -0.15      0.00
    8   -9    8     -0.14      0.00
    9   -9    8     -0.92      0.00
   10   -9    8     -0.01      0.00
   -9   -8    8     -0.91      0.00
   -8   -8    8      0.75      0.00
   -7   -8    8     -0.70      0.00
   -6   -8    8     -2.46      0.00
   -5   -8    8     -0.28      0.00
   -4   -8    8      0.23      0.00
   -3   -8    8     -0.67      0.00
   -2   -8    8      1.02      0.00
   -1   -8    8     -0.16      0.00
    0   -8    8     -0.30      0.00
    1   -8    8     -0.19      0.00
    2   -8    8     -0.37      0.00
    3   -8    8     -0.20      0.00
    4   -8    8      0.63      0.00
    5   -8    8      0.47      0.00
    6   -8    8      0.22      0.00
    7   -8    8      0.51      0.00
    8   -8    8      0.55      0.00
    9   -8    8      0.91      0.00
   10   -8    8      0.51      0.00
  -10   -7    8      0.61      0.00
   -9   -7    8     -0.33      0.00
   -8   -7    8     -0.93      0.00
   -7   -7    8      0.03      0.00
   -6   -7    8      1.78      0.00
   -5   -7    8      0.46      0.00
   -4   -7    8     -0.77      0.00
   -3   -7    8      0.29      0.00
   -2   -7    8     -1.58      0.00
   -1   -7    8      0.08      0.00
    0   -7    8     -0.49      0.00
    1   -7    8      0.21      0.00
    2   -7    8      1.02      0.00
    3   -7    8      0.10      0.00
    4   -7    8     -0.42      0.00
    5   -7    8     -0.32      0.00
    6   -7    8     -0.19      0.00
    7   -7    8     -0.18      0.00
    8   -7    8     -0.65      0.00
    9   -7    8     -0.75      0.00
   10   -7    8     -1.30      0.00
   11   -7    8     -0.66      0.00
  -10   -6    8     -1.88      0.00
   -9   -6    8      0.05      0.00
   -8   -6    8      0.63      0.00
   -7   -6    8     -0.54      0.00
   -6   -6    8     -0.32      0.00
   -5   -6    8     -0.45      0.00
   -4   -6    8      0.31      0.00
   -3   -6    8      0.06      0.00
   -2   -6    8      1.07      0.00
   -1   -6    8     -0.07      0.00
    0   -6    8      0.55      0.00
    1   -6    8     -0.19      0.00
    2   -6    8     -1.42      0.00
    3   -6    8     -0.04      0.00
    4   -6    8      0.06      0.00
    5   -6    8     -0.09      0.00
    6   -6    8      0.46      0.00
    7   -6    8      0.10      0.00
    8   -6    8      0.32      0.00
    9   -6    8      0.77      0.00
   10   -6    8      1.12      0.00
   11   -6    8     -0.30      0.00
   12   -6    8     -0.08      0.00
  -10   -5    8      1.74      0.00
   -9   -5    8     -0.36      0.00
   -8   -5    8     -1.82      0.00
   -7   -5    8     -0.23      0.00
   -6   -5    8     -1.58      0.00
   -5   -5    8     -0.31      0.00
   -4   -5    8      0.35      0.00
   -3   -5    8     -0.11      0.00
   -2   -5    8     -0.05      0.00
   -1   -5    8      0.31      0.00
    0   -5    8     -0.06      0.00
    1   -5    8      0.55      0.00
    2   -5    8      0.36      0.00
    3   -5    8     -0.06      0.00
    4   -5    8      0.01      0.00
    5   -5    8      0.22      0.00
    6   -5    8     -0.14      0.00
    7   -5    8     -0.34      0.00
    8   -5    8      0.52      0.00
    9   -5    8     -0.71      0.00
   10   -5    8     -0.85      0.00
   11   -5    8      0.84      0.00
   12   -5    8     -0.14      0.00
  -11   -4    8     -2.95      0.00
  -10   -4    8     -1.94      0.00
   -9   -4    8     -0.34      0.00
   -8   -4    8      1.73      0.00
   -7   -4    8      0.07      0.00
   -6   -4    8      1.32      0.00
   -5   -4    8      0.18      0.00
   -4   -4    8     -0.77      0.00
   -3   -4    8     -0.02      0.00
   -2   -4    8     -0.36      0.00
   -1   -4    8     -0.17      0.00
    0   -4    8      0.17      0.00
    1   -4    8     -1.32      0.00
    2   -4    8      1.20      0.00
    3   -4    8      0.54      0.00
    4   -4    8      0.06      0.00
    5   -4    8      0.44      0.00
    6   -4    8     -0.29      0.00
    7   -4    8      0.85      0.00
    8   -4    8     -0.56      0.00
    9   -4    8      0.38      0.00
   10   -4    8      0.18      0.00
   11   -4    8     -1.75      0.00
   12   -4    8      0.43      0.00
   13   -4    8      0.36      0.00
  -11   -3    8      1.07      0.00
  -10   -3    8      0.68      0.00
   -9   -3    8     -0.27      0.00
   -8   -3    8     -2.22      0.00
   -7   -3    8     -0.28      0.00
   -6   -3    8     -0.55      0.00
   -5   -3    8      0.04      0.00
   -4   -3    8      0.51      0.00
   -3   -3    8      0.19      0.00
   -2   -3    8      0.65      0.00
   -1   -3    8      0.22      0.00
    0   -3    8     -0.84      0.00
    1   -3    8      1.85      0.00
    2   -3    8     -1.56      0.00
    3   -3    8     -1.11      0.00
    4   -3    8      0.13      0.00
    5   -3    8     -0.75      0.00
    6   -3    8      0.66      0.00
    7   -3    8     -0.29      0.00
    8   -3    8      0.41      0.00
    9   -3    8      0.55      0.00
   10   -3    8      0.78      0.00
   11   -3    8      1.90      0.00
   12   -3    8     -1.14      0.00
   13   -3    8     -1.08      0.00
  -11   -2    8     -0.37      0.00
  -10   -2    8     -0.23      0.00
   -9   -2    8     -0.28      0.00
   -8   -2    8      1.37      0.00
   -7   -2    8     -0.25      0.00
   -6   -2    8     -0.24      0.00
   -5   -2    8      0.00      0.00
   -4   -2    8      0.09      0.00
   -3   -2    8      0.07      0.00
   -2   -2    8     -0.45      0.00
   -1   -2    8     -0.41      0.00
    0   -2    8      1.62      0.00
    1   -2    8     -1.68      0.00
    2   -2    8      0.63      0.00
    3   -2    8      1.71      0.00
    4   -2    8      0.45      0.00
    5   -2    8      1.09      0.00
    6   -2    8     -0.24      0.00
    7   -2    8     -0.18      0.00
    8   -2    8      0.37      0.00
    9   -2    8     -0.20      0.00
   10   -2    8     -0.60      0.00
   11   -2    8     -0.89      0.00
   12   -2    8      1.61      0.00
   13   -2    8      0.46      0.00
   14   -2    8      0.56      0.00
  -11   -1    8     -0.17      0.00
  -10   -1    8     -1.20      0.00
   -9   -1    8     -0.03      0.00
   -8   -1    8     -0.97      0.00
   -7   -1    8      0.26      0.00
   -6   -1    8      0.31      0.00
   -5   -1    8     -0.06      0.00
   -4   -1    8     -0.10      0.00
   -3   -1    8     -0.02      0.00
   -2   -1    8     -0.01      0.00
   -1   -1    8      1.12      0.00
    0   -1    8     -1.89      0.00
    1   -1    8      0.62      0.00
    2   -1    8      0.60      0.00
    3   -1    8     -1.49      0.00
    4   -1    8     -0.54      0.00
    5   -1    8     -0.67      0.00
    6   -1    8      0.37      0.00
    7   -1    8      0.44      0.00
    8   -1    8     -0.26      0.00
    9   -1    8      0.22      0.00
   10   -1    8      0.86      0.00
   11   -1    8      0.93      0.00
   12   -1    8     -0.75      0.00
   13   -1    8      1.83      0.00
   14   -1    8     -0.42      0.00
  -11    0    8     -1.22      0.00
  -10    0    8      0.89      0.00
   -9    0    8     -0.57      0.00
   -8    0    8      0.26      0.00
   -7    0    8      0.05      0.00
   -6    0    8      0.38      0.00
   -5    0    8      0.43      0.00
   -4    0    8      0.04      0.00
   -3    0    8     -0.08      0.00
   -2    0    8      1.21      0.00
   -1    0    8     -1.70      0.00
    0    0    8      1.21      0.00
    1    0    8      0.95      0.00
    2    0    8     -0.99      0.00
    3    0    8      1.31      0.00
    4    0    8      0.90      0.00
    5    0    8      0.79      0.00
    6    0    8     -0.59      0.00
    7    0    8     -0.07      0.00
    8    0    8      0.08      0.00
    9    0    8      0.36      0.00
   10    0    8      0.24      0.00
   11    0    8      0.07      0.00
   12    0    8      1.10      0.00
   13    0    8     -2.59      0.00
  -11    1    8      1.49      0.00
  -10    1    8     -0.87      0.00
   -9    1    8      0.03      0.00
   -8    1    8     -0.29      0.00
   -7    1    8     -0.37      0.00
   -6    1    8     -0.48      0.00
   -5    1    8     -0.51      0.00
   -4    1    8     -0.12      0.00
   -3    1    8      0.07      0.00
   -2    1    8     -2.75      0.00
   -1    1    8      1.26      0.00
    0    1    8     -0.22      0.00
    1    1    8     -2.59      0.00
    2    1    8      0.23      0.00
    3    1    8     -0.60      0.00
    4    1    8     -0.44      0.00
    5    1    8     -0.42      0.00
    6    1    8      0.70      0.00
    7    1    8     -0.38      0.00
    8    1    8     -0.09      0.00
    9    1    8     -0.35      0.00
   10    1    8      0.07      0.00
   11    1    8      0.47      0.00
   12    1    8     -0.49      0.00
   13    1    8      2.94      0.00
  -11    2    8     -1.18      0.00
  -10    2    8      0.15      0.00
   -9    2    8      0.52      0.00
   -8    2    8      0.44      0.00
   -7    2    8      0.70      0.00
   -6    2    8      0.59      0.00
   -5    2    8      0.76      0.00
   -4    2    8      0.34      0.00
   -3    2    8     -0.87      0.00
   -2    2    8      2.50      0.00
   -1    2    8     -0.77      0.00
    0    2    8     -0.91      0.00
    1    2    8      2.77      0.00
    2    2    8      1.32      0.00
    3    2    8      0.52      0.00
    4    2    8      0.60      0.00
    5    2    8      0.69      0.00
    6    2    8     -0.07      0.00
    7    2    8     -0.03      0.00
    8    2    8     -0.19      0.00
    9    2    8      0.28      0.00
   10    2    8     -0.20      0.00
   11    2    8      0.03      0.00
   12    2    8      1.78      0.00
   13    2    8     -0.99      0.00
  -11    3    8      0.19      0.00
  -10    3    8      0.07      0.00
   -9    3    8     -1.05      0.00
   -8    3    8     -0.36      0.00
   -7    3    8      0.14      0.00
   -6    3    8      0.32      0.00
   -5    3    8     -0.40      0.00
   -4    3    8     -0.94      0.00
   -3    3    8      0.66      0.00
   -2    3    8     -2.10      0.00
   -1    3    8     -0.69      0.00
    0    3    8      0.31      0.00
    1    3    8     -1.94      0.00
    2    3    8     -2.44      0.00
    3    3    8     -0.66      0.00
    4    3    8      0.04      0.00
    5    3    8     -0.26      0.00
    6    3    8     -0.63      0.00
    7    3    8      0.12      0.00
    8    3    8     -0.55      0.00
    9    3    8     -0.88      0.00
   10    3    8      0.08      0.00
   11    3    8      0.39      0.00
   12    3    8     -1.75      0.00
   13    3    8      0.53      0.00
  -11    4    8      0.87      0.00
  -10    4    8      0.13      0.00
   -9    4    8      0.83      0.00
   -8    4    8      0.25      0.00
   -7    4    8     -0.34      0.00
   -6    4    8     -0.30      0.00
   -5    4    8      0.38      0.00
   -4    4    8      0.77      0.00
   -3    4    8     -0.92      0.00
   -2    4    8      0.21      0.00
   -1    4    8      0.54      0.00
    0    4    8      0.53      0.00
    1    4    8      0.79      0.00
    2    4    8      2.49      0.00
    3    4    8      1.42      0.00
    4    4    8     -0.12      0.00
    5    4    8      0.07      0.00
    6    4    8      0.75      0.00
    7    4    8     -0.36      0.00
    8    4    8      0.56      0.00
    9    4    8      0.57      0.00
   10    4    8      0.27      0.00
   11    4    8     -0.55      0.00
   12    4    8      1.57      0.00
   13    4    8     -0.16      0.00
  -11    5    8     -0.83      0.00
  -10    5    8      0.05      0.00
   -9    5    8     -0.42      0.00
   -8    5    8      0.16      0.00
   -7    5    8      0.36      0.00
   -6    5    8      0.93      0.00
   -5    5    8      0.24      0.00
   -4    5    8     -0.24      0.00
   -3    5    8     -0.18      0.00
   -2    5    8     -0.51      0.00
   -1    5    8     -0.60      0.00
    0    5    8     -1.80      0.00
    1    5    8     -0.52      0.00
    2    5    8     -1.62      0.00
    3    5    8     -1.24      0.00
    4    5    8      0.33      0.00
    5    5    8      0.39      0.00
    6    5    8     -0.09      0.00
    7    5    8     -0.22      0.00
    8    5    8     -1.10      0.00
    9    5    8     -0.71      0.00
   10    5    8     -1.07      0.00
   11    5    8      0.44      0.00
   12    5    8     -0.66      0.00
   13    5    8      0.98      0.00
  -11    6    8      0.52      0.00
  -10    6    8     -0.91      0.00
   -9    6    8      0.11      0.00
   -8    6    8     -0.44      0.00
   -7    6    8      0.65      0.00
   -6    6    8     -0.15      0.00
   -5    6    8      0.07      0.00
   -4    6    8     -0.04      0.00
   -3    6    8      0.20      0.00
   -2    6    8      0.37      0.00
   -1    6    8     -1.21      0.00
    0    6    8      1.81      0.00
    1    6    8      0.76      0.00
    2    6    8      1.15      0.00
    3    6    8      0.87      0.00
    4    6    8      0.23      0.00
    5    6    8     -0.09      0.00
    6    6    8     -0.39      0.00
    7    6    8      0.44      0.00
    8    6    8      0.69      0.00
    9    6    8      0.03      0.00
   10    6    8      0.86      0.00
   11    6    8     -0.69      0.00
   12    6    8     -0.05      0.00
   13    6    8     -1.27      0.00
  -11    7    8     -0.22      0.00
  -10    7    8      1.30      0.00
   -9    7    8     -0.74      0.00
   -8    7    8     -0.51      0.00
   -7    7    8     -1.29      0.00
   -6    7    8     -0.17      0.00
   -5    7    8      0.50      0.00
   -4    7    8      0.31      0.00
   -3    7    8     -0.02      0.00
   -2    7    8     -1.27      0.00
   -1    7    8      1.92      0.00
    0    7    8     -1.86      0.00
    1    7    8     -0.94      0.00
    2    7    8     -0.53      0.00
    3    7    8     -0.21      0.00
    4    7    8     -0.72      0.00
    5    7    8     -0.27      0.00
    6    7    8     -0.04      0.00
    7    7    8     -0.42      0.00
    8    7    8     -0.40      0.00
    9    7    8      0.38      0.00
   10    7    8     -0.43      0.00
   11    7    8      0.89      0.00
   12    7    8      0.43      0.00
   13    7    8      0.37      0.00
  -12    8    8     -3.11      0.00
  -11    8    8      0.00      0.00
  -10    8    8     -0.87      0.00
   -9    8    8      0.46      0.00
   -8    8    8      0.58      0.00
   -7    8    8      0.65      0.00
   -6    8    8      0.28      0.00
   -5    8    8     -0.10      0.00
   -4    8    8      0.25      0.00
   -3    8    8     -0.21      0.00
   -2    8    8      1.07      0.00
   -1    8    8     -2.23      0.00
    0    8    8      1.25      0.00
    1    8    8      0.80      0.00
    2    8    8      0.02      0.00
    3    8    8     -0.13      0.00
    4    8    8      0.93      0.00
    5    8    8     -0.06      0.00
    6    8    8      0.42      0.00
    7    8    8     -0.15      0.00
    8    8    8      0.30      0.00
    9    8    8     -0.29      0.00
   10    8    8      0.00      0.00
   11    8    8     -1.07      0.00
   12    8    8     -1.39      0.00
   13    8    8      0.95      0.00
  -11    9    8     -0.39      0.00
  -10    9    8     -0.40      0.00
   -9    9    8     -0.57      0.00
   -8    9    8     -0.55      0.00
   -7    9    8     -0.31      0.00
   -6    9    8      0.03      0.00
   -5    9    8     -0.03      0.00
   -4    9    8     -0.24      0.00
   -3    9    8      0.34      0.00
   -2    9    8     -0.63      0.00
   -1    9    8      1.05      0.00
    0    9    8     -0.65      0.00
    1    9    8     -0.20      0.00
    2    9    8      0.67      0.00
    3    9    8      0.64      0.00
    4    9    8     -0.69      0.00
    5    9    8      0.36      0.00
    6    9    8     -0.74      0.00
    7    9    8      0.17      0.00
    8    9    8     -0.59      0.00
    9    9    8      0.15      0.00
   10    9    8      0.69      0.00
   11    9    8      1.58      0.00
   12    9    8      2.13      0.00
   13    9    8     -1.90      0.00
  -11   10    8      0.99      0.00
  -10   10    8      1.08      0.00
   -9   10    8      0.44      0.00
   -8   10    8     -0.58      0.00
   -7   10    8     -0.61      0.00
   -6   10    8     -0.25      0.00
   -5   10    8      0.18      0.00
   -4   10    8      0.72      0.00
   -3   10    8     -0.15      0.00
   -2   10    8      0.04      0.00
   -1   10    8      0.12      0.00
    0   10    8      0.19      0.00
    1   10    8     -0.10      0.00
    2   10    8     -0.54      0.00
    3   10    8     -0.61      0.00
    4   10    8      0.15      0.00
    5   10    8     -0.61      0.00
    6   10    8      0.26      0.00
    7   10    8     -0.09      0.00
    8   10    8      0.93      0.00
    9   10    8      0.30      0.00
   10   10    8     -0.08      0.00
   11   10    8     -1.80      0.00
   12   10    8     -1.96      0.00
   13   10    8      1.62      0.00
  -10   11    8     -0.47      0.00
   -9   11    8      0.24      0.00
   -8   11    8      0.59      0.00
   -7   11    8      0.70      0.00
   -6   11    8     -0.62      0.00
   -5   11    8     -0.03      0.00
   -4   11    8     -0.92      0.00
   -3   11    8      0.65      0.00
   -2   11    8      0.92      0.00
   -1   11    8     -0.02      0.00
    0   11    8      0.40      0.00
    1   11    8      0.45      0.00
    2   11    8      0.54      0.00
    3   11    8      0.45      0.00
    4   11    8      0.23      0.00
    5   11    8      0.46      0.00
    6   11    8      0.00      0.00
    7   11    8     -0.29      0.00
    8   11    8     -0.93      0.00
    9   11    8      0.35      0.00
   10   11    8     -0.04      0.00
   11   11    8      2.30      0.00
   12   11    8      1.53      0.00
   13   11    8     -1.49      0.00
  -10   12    8      0.16      0.00
   -9   12    8     -0.78      0.00
   -8   12    8      0.53      0.00
   -7   12    8     -0.60      0.00
   -6   12    8      0.54      0.00
   -5   12    8     -0.70      0.00
   -4   12    8      0.79      0.00
   -3   12    8     -0.93      0.00
   -2   12    8     -1.03      0.00
   -1   12    8     -0.19      0.00
    0   12    8      0.02      0.00
    1   12    8      0.16      0.00
    2   12    8     -0.33      0.00
    3   12    8     -0.10      0.00
    4   12    8     -0.09      0.00
    5   12    8      0.00      0.00
    6   12    8     -0.04      0.00
    7   12    8      0.79      0.00
    8   12    8      1.37      0.00
    9   12    8     -0.22      0.00
   10   12    8      0.63      0.00
   11   12    8     -1.05      0.00
   12   12    8     -1.12      0.00
  -10   13    8      0.47      0.00
   -9   13    8      1.59      0.00
   -8   13    8     -1.04      0.00
   -7   13    8     -0.31      0.00
   -6   13    8     -0.37      0.00
   -5   13    8      0.44      0.00
   -4   13    8     -1.11      0.00
   -3   13    8      0.34      0.00
   -2   13    8      0.59      0.00
   -1   13    8      0.80      0.00
    0   13    8      0.22      0.00
    1   13    8     -0.13      0.00
    2   13    8      0.71      0.00
    3   13    8     -0.13      0.00
    4   13    8     -0.01      0.00
    5   13    8     -0.28      0.00
    6   13    8      0.62      0.00
    7   13    8     -0.23      0.00
    8   13    8     -1.13      0.00
    9   13    8      0.48      0.00
   10   13    8      0.56      0.00
   11   13    8      0.72      0.00
   12   13    8      1.22      0.00
  -10   14    8     -0.40      0.00
   -9   14    8     -0.91      0.00
   -8   14    8      0.83      0.00
   -7   14    8      0.71      0.00
   -6   14    8     -0.43      0.00
   -5   14    8     -0.97      0.00
   -4   14    8      0.31      0.00
   -3   14    8      0.18      0.00
   -2   14    8      0.15      0.00
   -1   14    8     -0.14      0.00
    0   14    8      0.13      0.00
    1   14    8      0.55      0.00
    2   14    8     -0.93      0.00
    3   14    8      0.28      0.00
    4   14    8     -0.28      0.00
    5   14    8      0.50      0.00
    6   14    8     -0.37      0.00
    7   14    8      0.49      0.00
    8   14    8      2.05      0.00
    9   14    8      0.88      0.00
   10   14    8      0.01      0.00
   11   14    8     -0.31      0.00
   -9   15    8      0.34      0.00
   -8   15    8      0.14      0.00
   -7   15    8     -0.34      0.00
   -6   15    8     -0.26      0.00
   -5   15    8      0.25      0.00
   -4   15    8     -0.27      0.00
   -3   15    8     -1.15      0.00
   -2   15    8     -0.48      0.00
   -1   15    8     -0.50      0.00
    0   15    8      0.55      0.00
    1   15    8     -0.44      0.00
    2   15    8      0.52      0.00
    3   15    8     -1.51      0.00
    4   15    8     -0.61      0.00
    5   15    8     -1.20      0.00
    6   15    8      0.03      0.00
    7   15    8     -0.27      0.00
    8   15    8     -1.29      0.00
    9   15    8     -0.41      0.00
   10   15    8     -0.03      0.00
   -8   16    8     -0.90      0.00
   -7   16    8     -0.69      0.00
   -6   16    8      0.55      0.00
   -5   16    8     -0.21      0.00
   -4   16    8     -0.63      0.00
   -3   16    8      0.45      0.00
   -2   16    8     -0.18      0.00
   -1   16    8      1.06      0.00
    0   16    8     -0.53      0.00
    1   16    8      0.65      0.00
    2   16    8     -0.22      0.00
    3   16    8      1.35      0.00
    4   16    8     -0.22      0.00
    5   16    8      1.11      0.00
    6   16    8      0.29      0.00
    7   16    8      1.52      0.00
    8   16    8      1.46      0.00
    9   16    8      1.06      0.00
   10   16    8      1.34      0.00
   -7   17    8      0.85      0.00
   -6   17    8     -0.89      0.00
   -5   17    8     -0.55      0.00
   -4   17    8     -0.22      0.00
   -3   17    8      0.07      0.00
   -2   17    8      0.41      0.00
   -1   17    8     -0.41      0.00
    0   17    8      1.26      0.00
    1   17    8      0.12      0.00
    2   17    8      0.36      0.00
    3   17    8     -1.81      0.00
    4   17    8      0.18      0.00
    5   17    8     -2.51      0.00
    6   17    8     -1.18      0.00
    7   17    8     -2.31      0.00
    8   17    8     -0.39      0.00
    9   17    8     -0.44      0.00
   -6   18    8      0.61      0.00
   -5   18    8      0.52      0.00
   -4   18    8      1.24      0.00
   -3   18    8     -0.82      0.00
   -2   18    8     -0.31      0.00
   -1   18    8     -0.46      0.00
    0   18    8     -1.18      0.00
    1   18    8     -0.08      0.00
    2   18    8     -0.78      0.00
    3   18    8      0.96      0.00
    4   18    8     -2.04      0.00
    5   18    8      1.37      0.00
    6   18    8      0.96      0.00
    7   18    8      2.19      0.00
   -2   19    8     -0.26      0.00
   -1   19    8      1.22      0.00
    0   19    8      1.58      0.00
    1   19    8      0.86      0.00
    2   19    8      1.32      0.00
    3   19    8     -0.22      0.00
    4   19    8      1.71      0.00
   -1  -14    9     -0.92      0.00
    0  -14    9      0.40      0.00
    1  -14    9      1.05      0.00
    2  -14    9      0.52      0.00
    3  -14    9      1.71      0.00
   -3  -13    9      0.81      0.00
   -2  -13    9     -0.81      0.00
   -1  -13    9      1.40      0.00
    0  -13    9     -0.31      0.00
    1  -13    9     -0.68      0.00
    2  -13    9     -0.24      0.00
    3  -13    9     -1.59      0.00
    4  -13    9     -1.38      0.00
    5  -13    9     -1.02      0.00
   -5  -12    9     -0.76      0.00
   -4  -12    9      2.28      0.00
   -3  -12    9     -1.31      0.00
   -2  -12    9     -0.13      0.00
   -1  -12    9     -0.82      0.00
    0  -12    9      0.36      0.00
    1  -12    9      0.51      0.00
    2  -12    9      0.32      0.00
    3  -12    9      0.43      0.00
    4  -12    9      0.37      0.00
    5  -12    9      0.23      0.00
    6  -12    9      0.61      0.00
    7  -12    9      1.13      0.00
   -7  -11    9      1.73      0.00
   -6  -11    9     -0.66      0.00
   -5  -11    9      0.12      0.00
   -4  -11    9     -1.57      0.00
   -3  -11    9      1.41      0.00
   -2  -11    9      1.73      0.00
   -1  -11    9      0.95      0.00
    0  -11    9      0.63      0.00
    1  -11    9      0.27      0.00
    2  -11    9      0.00      0.00
    3  -11    9      0.26      0.00
    4  -11    9      0.72      0.00
    5  -11    9     -0.41      0.00
    6  -11    9     -0.10      0.00
    7  -11    9     -1.18      0.00
    8  -11    9     -1.47      0.00
   -7  -10    9     -1.86      0.00
   -6  -10    9      0.55      0.00
   -5  -10    9      0.70      0.00
   -4  -10    9      0.29      0.00
   -3  -10    9     -1.01      0.00
   -2  -10    9     -2.27      0.00
   -1  -10    9     -0.93      0.00
    0  -10    9     -0.74      0.00
    1  -10    9      0.10      0.00
    2  -10    9      0.25      0.00
    3  -10    9     -0.05      0.00
    4  -10    9     -1.28      0.00
    5  -10    9      0.15      0.00
    6  -10    9     -0.54      0.00
    7  -10    9      0.61      0.00
    8  -10    9      0.76      0.00
    9  -10    9      0.87      0.00
   -8   -9    9     -0.21      0.00
   -7   -9    9      0.94      0.00
   -6   -9    9      0.87      0.00
   -5   -9    9     -0.76      0.00
   -4   -9    9      0.50      0.00
   -3   -9    9      0.59      0.00
   -2   -9    9      1.35      0.00
   -1   -9    9      0.77      0.00
    0   -9    9      0.49      0.00
    1   -9    9     -0.20      0.00
    2   -9    9     -0.29      0.00
    3   -9    9      0.05      0.00
    4   -9    9      0.57      0.00
    5   -9    9     -0.34      0.00
    6   -9    9     -0.02      0.00
    7   -9    9     -1.45      0.00
    8   -9    9     -0.86      0.00
    9   -9    9     -1.47      0.00
   -9   -8    9     -1.26      0.00
   -8   -8    9      0.39      0.00
   -7   -8    9      0.44      0.00
   -6   -8    9     -2.30      0.00
   -5   -8    9     -0.17      0.00
   -4   -8    9     -0.47      0.00
   -3   -8    9     -0.57      0.00
   -2   -8    9     -0.20      0.00
   -1   -8    9     -0.39      0.00
    0   -8    9      0.28      0.00
    1   -8    9      0.47      0.00
    2   -8    9      0.67      0.00
    3   -8    9      0.17      0.00
    4   -8    9      0.42      0.00
    5   -8    9      0.28      0.00
    6   -8    9      0.18      0.00
    7   -8    9      1.42      0.00
    8   -8    9      0.63      0.00
    9   -8    9      1.02      0.00
   10   -8    9      0.59      0.00
   -9   -7    9      0.93      0.00
   -8   -7    9     -0.20      0.00
   -7   -7    9     -0.47      0.00
   -6   -7    9      2.56      0.00
   -5   -7    9      1.17      0.00
   -4   -7    9     -0.04      0.00
   -3   -7    9      0.01      0.00
   -2   -7    9     -0.73      0.00
   -1   -7    9     -0.44      0.00
    0   -7    9     -0.76      0.00
    1   -7    9     -0.44      0.00
    2   -7    9      0.09      0.00
    3   -7    9      0.05      0.00
    4   -7    9     -0.40      0.00
    5   -7    9      0.21      0.00
    6   -7    9     -0.49      0.00
    7   -7    9     -0.89      0.00
    8   -7    9     -0.78      0.00
    9   -7    9     -0.50      0.00
   10   -7    9     -0.64      0.00
   11   -7    9      0.95      0.00
   -9   -6    9     -0.19      0.00
   -8   -6    9      1.38      0.00
   -7   -6    9      0.46      0.00
   -6   -6    9     -0.69      0.00
   -5   -6    9     -0.80      0.00
   -4   -6    9      0.13      0.00
   -3   -6    9      0.44      0.00
   -2   -6    9      0.29      0.00
   -1   -6    9      0.45      0.00
    0   -6    9      0.04      0.00
    1   -6    9      0.30      0.00
    2   -6    9     -0.76      0.00
    3   -6    9      0.05      0.00
    4   -6    9      0.39      0.00
    5   -6    9     -0.65      0.00
    6   -6    9      0.65      0.00
    7   -6    9      0.09      0.00
    8   -6    9      0.46      0.00
    9   -6    9      0.39      0.00
   10   -6    9      0.75      0.00
   11   -6    9     -0.70      0.00
  -10   -5    9      1.91      0.00
   -9   -5    9      0.69      0.00
   -8   -5    9     -1.70      0.00
   -7   -5    9      0.44      0.00
   -6   -5    9     -0.56      0.00
   -5   -5    9      0.36      0.00
   -4   -5    9      0.50      0.00
   -3   -5    9     -0.50      0.00
   -2   -5    9      0.15      0.00
   -1   -5    9     -0.51      0.00
    0   -5    9      0.44      0.00
    1   -5    9     -0.12      0.00
    2   -5    9      0.46      0.00
    3   -5    9      0.06      0.00
    4   -5    9     -0.22      0.00
    5   -5    9      0.77      0.00
    6   -5    9     -0.18      0.00
    7   -5    9      0.06      0.00
    8   -5    9      0.05      0.00
    9   -5    9     -0.12      0.00
   10   -5    9     -0.09      0.00
   11   -5    9      1.47      0.00
   12   -5    9      0.65      0.00
  -10   -4    9     -1.42      0.00
   -9   -4    9      0.05      0.00
   -8   -4    9      2.90      0.00
   -7   -4    9      0.21      0.00
   -6   -4    9      1.61      0.00
   -5   -4    9      0.20      0.00
   -4   -4    9     -0.61      0.00
   -3   -4    9      0.05      0.00
   -2   -4    9     -0.61      0.00
   -1   -4    9     -0.01      0.00
    0   -4    9     -0.44      0.00
    1   -4    9     -0.47      0.00
    2   -4    9      0.55      0.00
    3   -4    9      0.10      0.00
    4   -4    9      0.06      0.00
    5   -4    9     -0.12      0.00
    6   -4    9     -0.46      0.00
    7   -4    9      0.12      0.00
    8   -4    9     -0.13      0.00
    9   -4    9     -0.40      0.00
   10   -4    9     -0.40      0.00
   11   -4    9     -1.55      0.00
   12   -4    9      0.05      0.00
   13   -4    9      0.44      0.00
  -10   -3    9      1.32      0.00
   -9   -3    9      0.21      0.00
   -8   -3    9     -2.14      0.00
   -7   -3    9      0.00      0.00
   -6   -3    9     -0.91      0.00
   -5   -3    9      0.11      0.00
   -4   -3    9      0.22      0.00
   -3   -3    9      0.15      0.00
   -2   -3    9      0.48      0.00
   -1   -3    9      0.30      0.00
    0   -3    9     -0.56      0.00
    1   -3    9      0.75      0.00
    2   -3    9     -1.18      0.00
    3   -3    9     -0.73      0.00
    4   -3    9     -0.09      0.00
    5   -3    9     -0.80      0.00
    6   -3    9      0.40      0.00
    7   -3    9     -0.20      0.00
    8   -3    9     -0.55      0.00
    9   -3    9      0.57      0.00
   10   -3    9      0.81      0.00
   11   -3    9      1.26      0.00
   12   -3    9     -0.70      0.00
   13   -3    9     -1.33      0.00
  -10   -2    9     -0.03      0.00
   -9   -2    9      0.69      0.00
   -8   -2    9      1.72      0.00
   -7   -2    9      0.49      0.00
   -6   -2    9      0.35      0.00
   -5   -2    9     -0.24      0.00
   -4   -2    9      0.25      0.00
   -3   -2    9     -0.28      0.00
   -2   -2    9     -0.59      0.00
   -1   -2    9     -1.17      0.00
    0   -2    9      1.07      0.00
    1   -2    9     -0.87      0.00
    2   -2    9      0.63      0.00
    3   -2    9      1.13      0.00
    4   -2    9      0.02      0.00
    5   -2    9      1.00      0.00
    6   -2    9     -0.11      0.00
    7   -2    9     -0.29      0.00
    8   -2    9      0.61      0.00
    9   -2    9     -0.65      0.00
   10   -2    9     -1.39      0.00
   11   -2    9     -0.98      0.00
   12   -2    9      0.96      0.00
   13   -2    9      0.48      0.00
  -11   -1    9      1.23      0.00
  -10   -1    9      0.07      0.00
   -9   -1    9     -0.18      0.00
   -8   -1    9     -0.05      0.00
   -7   -1    9     -0.28      0.00
   -6   -1    9     -0.02      0.00
   -5   -1    9     -0.01      0.00
   -4   -1    9     -0.63      0.00
   -3   -1    9     -0.06      0.00
   -2   -1    9     -0.08      0.00
   -1   -1    9      1.59      0.00
    0   -1    9     -1.20      0.00
    1   -1    9      0.30      0.00
    2   -1    9     -0.07      0.00
    3   -1    9     -1.72      0.00
    4   -1    9     -0.53      0.00
    5   -1    9     -1.30      0.00
    6   -1    9     -0.27      0.00
    7   -1    9      0.24      0.00
    8   -1    9     -0.64      0.00
    9   -1    9     -0.54      0.00
   10   -1    9      0.22      0.00
   11   -1    9     -0.16      0.00
   12   -1    9     -1.54      0.00
   13   -1    9      1.32      0.00
   14   -1    9     -0.82      0.00
  -11    0    9     -1.95      0.00
  -10    0    9      0.50      0.00
   -9    0    9      0.68      0.00
   -8    0    9     -0.08      0.00
   -7    0    9      0.71      0.00
   -6    0    9      0.25      0.00
   -5    0    9      0.12      0.00
   -4    0    9      0.29      0.00
   -3    0    9      0.01      0.00
   -2    0    9      0.98      0.00
   -1    0    9     -1.88      0.00
    0    0    9      0.48      0.00
    1    0    9      0.50      0.00
    2    0    9     -0.21      0.00
    3    0    9      1.59      0.00
    4    0    9      0.49      0.00
    5    0    9      1.00      0.00
    6    0    9     -0.10      0.00
    7    0    9     -0.15      0.00
    8    0    9     -0.06      0.00
    9    0    9      0.58      0.00
   10    0    9     -0.08      0.00
   11    0    9     -0.34      0.00
   12    0    9      0.54      0.00
   13    0    9     -3.74      0.00
  -11    1    9      2.62      0.00
  -10    1    9      0.18      0.00
   -9    1    9     -0.34      0.00
   -8    1    9      0.03      0.00
   -7    1    9     -1.25      0.00
   -6    1    9     -0.82      0.00
   -5    1    9     -0.46      0.00
   -4    1    9     -0.19      0.00
   -3    1    9      0.09      0.00
   -2    1    9     -2.02      0.00
   -1    1    9      1.47      0.00
    0    1    9      0.26      0.00
    1    1    9     -1.46      0.00
    2    1    9     -0.59      0.00
    3    1    9     -1.59      0.00
    4    1    9     -1.12      0.00
    5    1    9     -1.22      0.00
    6    1    9      0.09      0.00
    7    1    9      0.03      0.00
    8    1    9      0.37      0.00
    9    1    9     -0.82      0.00
   10    1    9     -0.61      0.00
   11    1    9     -0.48      0.00
   12    1    9     -1.07      0.00
   13    1    9      3.25      0.00
  -11    2    9     -2.03      0.00
  -10    2    9     -0.28      0.00
   -9    2    9      1.02      0.00
   -8    2    9      0.67      0.00
   -7    2    9      1.49      0.00
   -6    2    9      0.73      0.00
   -5    2    9      0.24      0.00
   -4    2    9      0.43      0.00
   -3    2    9     -0.11      0.00
   -2    2    9      2.56      0.00
   -1    2    9     -0.59      0.00
    0    2    9     -0.54      0.00
    1    2    9      1.64      0.00
    2    2    9      1.40      0.00
    3    2    9      1.02      0.00
    4    2    9      0.99      0.00
    5    2    9      0.91      0.00
    6    2    9      0.38      0.00
    7    2    9      0.09      0.00
    8    2    9     -0.20      0.00
    9    2    9      0.69      0.00
   10    2    9     -0.19      0.00
   11    2    9     -0.36      0.00
   12    2    9      0.50      0.00
   13    2    9     -2.77      0.00
  -11    3    9      0.60      0.00
  -10    3    9      0.29      0.00
   -9    3    9     -1.44      0.00
   -8    3    9     -0.99      0.00
   -7    3    9     -1.28      0.00
   -6    3    9     -0.89      0.00
   -5    3    9     -0.21      0.00
   -4    3    9     -0.76      0.00
   -3    3    9      0.67      0.00
   -2    3    9     -1.34      0.00
   -1    3    9      0.25      0.00
    0    3    9      0.30      0.00
    1    3    9     -1.15      0.00
    2    3    9     -1.86      0.00
    3    3    9     -1.34      0.00
    4    3    9     -0.97      0.00
    5    3    9     -0.72      0.00
    6    3    9     -1.01      0.00
    7    3    9      0.30      0.00
    8    3    9      0.31      0.00
    9    3    9     -0.41      0.00
   10    3    9      0.25      0.00
   11    3    9      0.54      0.00
   12    3    9     -1.20      0.00
   13    3    9      0.97      0.00
  -11    4    9      0.43      0.00
  -10    4    9     -0.19      0.00
   -9    4    9      1.34      0.00
   -8    4    9      0.55      0.00
   -7    4    9     -0.15      0.00
   -6    4    9     -0.23      0.00
   -5    4    9     -0.41      0.00
   -4    4    9      0.79      0.00
   -3    4    9     -0.13      0.00
   -2    4    9      0.82      0.00
   -1    4    9      0.62      0.00
    0    4    9      0.70      0.00
    1    4    9      0.70      0.00
    2    4    9      1.21      0.00
    3    4    9      1.46      0.00
    4    4    9      0.10      0.00
    5    4    9     -0.28      0.00
    6    4    9      0.93      0.00
    7    4    9     -0.02      0.00
    8    4    9      0.37      0.00
    9    4    9      0.61      0.00
   10    4    9      0.47      0.00
   11    4    9     -0.90      0.00
   12    4    9      0.48      0.00
   13    4    9     -0.63      0.00
  -11    5    9     -1.38      0.00
  -10    5    9      0.27      0.00
   -9    5    9     -0.68      0.00
   -8    5    9      0.03      0.00
   -7    5    9      0.17      0.00
   -6    5    9      0.07      0.00
   -5    5    9     -0.23      0.00
   -4    5    9     -0.55      0.00
   -3    5    9      0.04      0.00
   -2    5    9      0.25      0.00
   -1    5    9      0.02      0.00
    0    5    9     -0.87      0.00
    1    5    9     -0.67      0.00
    2    5    9     -0.67      0.00
    3    5    9     -1.59      0.00
    4    5    9      0.00      0.00
    5    5    9      0.70      0.00
    6    5    9     -0.08      0.00
    7    5    9     -0.15      0.00
    8    5    9     -0.16      0.00
    9    5    9      0.06      0.00
   10    5    9     -0.73      0.00
   11    5    9      0.72      0.00
   12    5    9      0.33      0.00
   13    5    9      0.26      0.00
  -11    6    9      1.04      0.00
  -10    6    9     -0.91      0.00
   -9    6    9      0.40      0.00
   -8    6    9     -0.25      0.00
   -7    6    9      0.18      0.00
   -6    6    9     -0.38      0.00
   -5    6    9     -0.09      0.00
   -4    6    9      0.00      0.00
   -3    6    9      0.36      0.00
   -2    6    9      0.49      0.00
   -1    6    9     -0.27      0.00
    0    6    9      1.05      0.00
    1    6    9      0.85      0.00
    2    6    9      0.26      0.00
    3    6    9      0.78      0.00
    4    6    9     -0.11      0.00
    5    6    9     -0.71      0.00
    6    6    9     -0.67      0.00
    7    6    9      0.55      0.00
    8    6    9      0.23      0.00
    9    6    9     -0.11      0.00
   10    6    9      0.99      0.00
   11    6    9     -0.11      0.00
   12    6    9     -0.79      0.00
   13    6    9     -0.12      0.00
  -11    7    9      0.06      0.00
  -10    7    9      1.59      0.00
   -9    7    9      0.18      0.00
   -8    7    9      0.20      0.00
   -7    7    9     -0.72      0.00
   -6    7    9     -0.65      0.00
   -5    7    9     -0.47      0.00
   -4    7    9     -0.26      0.00
   -3    7    9     -0.13      0.00
   -2    7    9     -0.53      0.00
   -1    7    9      1.43      0.00
    0    7    9     -0.60      0.00
    1    7    9     -0.90      0.00
    2    7    9     -0.19      0.00
    3    7    9     -0.23      0.00
    4    7    9     -0.22      0.00
    5    7    9      0.28      0.00
    6    7    9      0.43      0.00
    7    7    9     -0.42      0.00
    8    7    9      0.03      0.00
    9    7    9      0.35      0.00
   10    7    9     -0.42      0.00
   11    7    9      0.37      0.00
   12    7    9      1.48      0.00
   13    7    9     -0.34      0.00
  -11    8    9     -1.15      0.00
  -10    8    9     -0.69      0.00
   -9    8    9      0.19      0.00
   -8    8    9      0.88      0.00
   -7    8    9      0.82      0.00
   -6    8    9      0.59      0.00
   -5    8    9     -0.13      0.00
   -4    8    9     -0.18      0.00
   -3    8    9     -0.19      0.00
   -2    8    9      0.82      0.00
   -1    8    9     -1.18      0.00
    0    8    9      0.56      0.00
    1    8    9      0.58      0.00
    2    8    9     -0.46      0.00
    3    8    9     -0.39      0.00
    4    8    9      0.30      0.00
    5    8    9     -0.25      0.00
    6    8    9      0.37      0.00
    7    8    9     -0.01      0.00
    8    8    9     -0.01      0.00
    9    8    9     -0.28      0.00
   10    8    9     -0.25      0.00
   11    8    9     -0.83      0.00
   12    8    9     -2.37      0.00
   13    8    9      1.07      0.00
  -10    9    9     -0.51      0.00
   -9    9    9      0.27      0.00
   -8    9    9     -0.13      0.00
   -7    9    9      0.35      0.00
   -6    9    9      0.14      0.00
   -5    9    9      0.05      0.00
   -4    9    9     -0.21      0.00
   -3    9    9      0.06      0.00
   -2    9    9     -0.67      0.00
   -1    9    9      0.45      0.00
    0    9    9     -0.40      0.00
    1    9    9     -0.16      0.00
    2    9    9      0.70      0.00
    3    9    9      0.50      0.00
    4    9    9     -0.10      0.00
    5    9    9      0.54      0.00
    6    9    9     -0.68      0.00
    7    9    9      0.44      0.00
    8    9    9     -0.56      0.00
    9    9    9     -0.39      0.00
   10    9    9      0.37      0.00
   11    9    9      1.44      0.00
   12    9    9      3.43      0.00
   13    9    9     -0.80      0.00
  -10   10    9      1.41      0.00
   -9   10    9     -0.17      0.00
   -8   10    9     -0.19      0.00
   -7   10    9     -0.78      0.00
   -6   10    9     -0.27      0.00
   -5   10    9     -0.21      0.00
   -4   10    9      0.34      0.00
   -3   10    9     -0.44      0.00
   -2   10    9     -0.01      0.00
   -1   10    9      0.10      0.00
    0   10    9     -0.07      0.00
    1   10    9     -0.59      0.00
    2   10    9     -0.70      0.00
    3   10    9     -0.43      0.00
    4   10    9     -0.30      0.00
    5   10    9     -0.45      0.00
    6   10    9      0.71      0.00
    7   10    9     -0.50      0.00
    8   10    9      1.03      0.00
    9   10    9      0.25      0.00
   10   10    9     -0.58      0.00
   11   10    9     -2.65      0.00
   12   10    9     -3.60      0.00
   13   10    9      0.17      0.00
  -10   11    9     -1.57      0.00
   -9   11    9      0.37      0.00
   -8   11    9      0.35      0.00
   -7   11    9      1.69      0.00
   -6   11    9      0.18      0.00
   -5   11    9      0.34      0.00
   -4   11    9     -0.88      0.00
   -3   11    9      0.51      0.00
   -2   11    9      0.57      0.00
   -1   11    9     -0.19      0.00
    0   11    9      0.09      0.00
    1   11    9      0.50      0.00
    2   11    9      0.12      0.00
    3   11    9      0.16      0.00
    4   11    9      0.52      0.00
    5   11    9      0.29      0.00
    6   11    9     -0.39      0.00
    7   11    9      0.21      0.00
    8   11    9     -1.64      0.00
    9   11    9     -0.17      0.00
   10   11    9     -0.49      0.00
   11   11    9      2.67      0.00
   12   11    9      2.70      0.00
  -10   12    9      0.71      0.00
   -9   12    9     -1.13      0.00
   -8   12    9      0.54      0.00
   -7   12    9     -1.22      0.00
   -6   12    9      0.53      0.00
   -5   12    9      0.24      0.00
   -4   12    9      1.26      0.00
   -3   12    9     -0.53      0.00
   -2   12    9     -1.22      0.00
   -1   12    9     -0.77      0.00
    0   12    9     -0.39      0.00
    1   12    9     -0.39      0.00
    2   12    9     -0.06      0.00
    3   12    9     -0.35      0.00
    4   12    9     -0.44      0.00
    5   12    9     -0.02      0.00
    6   12    9     -0.26      0.00
    7   12    9     -0.09      0.00
    8   12    9      1.65      0.00
    9   12    9     -0.77      0.00
   10   12    9      0.21      0.00
   11   12    9     -2.38      0.00
   12   12    9     -2.12      0.00
  -10   13    9     -0.47      0.00
   -9   13    9      0.81      0.00
   -8   13    9     -1.72      0.00
   -7   13    9      0.14      0.00
   -6   13    9      0.00      0.00
   -5   13    9     -0.10      0.00
   -4   13    9     -0.81      0.00
   -3   13    9      0.26      0.00
   -2   13    9      0.62      0.00
   -1   13    9      0.62      0.00
    0   13    9     -0.27      0.00
    1   13    9     -0.28      0.00
    2   13    9      0.30      0.00
    3   13    9      0.86      0.00
    4   13    9      0.62      0.00
    5   13    9     -0.42      0.00
    6   13    9      0.73      0.00
    7   13    9     -0.01      0.00
    8   13    9     -2.18      0.00
    9   13    9      0.29      0.00
   10   13    9     -0.21      0.00
   11   13    9      0.85      0.00
   -9   14    9     -0.75      0.00
   -8   14    9      1.75      0.00
   -7   14    9      0.90      0.00
   -6   14    9      0.13      0.00
   -5   14    9      0.46      0.00
   -4   14    9      0.81      0.00
   -3   14    9      0.48      0.00
   -2   14    9      0.34      0.00
   -1   14    9     -0.11      0.00
    0   14    9     -0.05      0.00
    1   14    9      0.20      0.00
    2   14    9     -0.32      0.00
    3   14    9     -0.05      0.00
    4   14    9     -0.02      0.00
    5   14    9      1.10      0.00
    6   14    9     -0.89      0.00
    7   14    9     -0.88      0.00
    8   14    9      1.67      0.00
    9   14    9     -0.16      0.00
   10   14    9     -0.68      0.00
   11   14    9     -1.11      0.00
   -7   15    9     -0.55      0.00
   -6   15    9     -0.11      0.00
   -5   15    9      0.33      0.00
   -4   15    9      0.44      0.00
   -3   15    9     -0.21      0.00
   -2   15    9     -0.61      0.00
   -1   15    9     -1.23      0.00
    0   15    9      0.18      0.00
    1   15    9     -0.01      0.00
    2   15    9      0.47      0.00
    3   15    9     -0.31      0.00
    4   15    9      0.15      0.00
    5   15    9     -0.97      0.00
    6   15    9      0.12      0.00
    7   15    9      0.37      0.00
    8   15    9     -1.91      0.00
    9   15    9     -1.14      0.00
   10   15    9     -0.31      0.00
   -8   16    9      0.79      0.00
   -7   16    9     -0.48      0.00
   -6   16    9      0.73      0.00
   -5   16    9      0.22      0.00
   -4   16    9     -0.37      0.00
   -3   16    9      0.19      0.00
   -2   16    9      0.13      0.00
   -1   16    9      1.27      0.00
    0   16    9     -1.27      0.00
    1   16    9     -0.61      0.00
    2   16    9     -0.04      0.00
    3   16    9      1.95      0.00
    4   16    9      1.36      0.00
    5   16    9      2.09      0.00
    6   16    9      0.90      0.00
    7   16    9      0.55      0.00
    8   16    9      0.78      0.00
    9   16    9      0.84      0.00
   10   16    9      0.20      0.00
   -7   17    9      1.34      0.00
   -6   17    9     -0.25      0.00
   -5   17    9     -0.27      0.00
   -4   17    9      0.18      0.00
   -3   17    9      0.83      0.00
   -2   17    9      0.72      0.00
   -1   17    9     -0.51      0.00
    0   17    9      1.48      0.00
    1   17    9      0.32      0.00
    2   17    9      0.66      0.00
    3   17    9     -1.24      0.00
    4   17    9      0.32      0.00
    5   17    9     -1.41      0.00
    6   17    9     -0.69      0.00
    7   17    9     -1.91      0.00
    8   17    9     -0.72      0.00
    9   17    9     -1.36      0.00
   -6   18    9     -0.14      0.00
   -4   18    9      1.34      0.00
   -3   18    9     -1.03      0.00
   -2   18    9     -0.91      0.00
   -1   18    9     -1.14      0.00
    0   18    9     -2.47      0.00
    1   18    9     -0.28      0.00
    2   18    9     -1.43      0.00
    3   18    9      1.34      0.00
    4   18    9     -0.44      0.00
    5   18    9      2.14      0.00
    6   18    9      1.29      0.00
    7   18    9      2.19      0.00
    8   18    9      0.13      0.00
   -1   19    9      1.79      0.00
    0   19    9      2.08      0.00
    1   19    9     -0.71      0.00
    2   19    9      1.21      0.00
    3   19    9     -0.47      0.00
    4   19    9      1.63      0.00
    6   19    9     -0.36      0.00
   -1  -13   10      0.58      0.00
    0  -13   10     -1.22      0.00
    1  -13   10     -0.34      0.00
    2  -13   10     -0.26      0.00
    3  -13   10     -0.91      0.00
   -2  -12   10     -0.16      0.00
   -1  -12   10     -0.49      0.00
    0  -12   10      0.79      0.00
    1  -12   10     -0.51      0.00
    2  -12   10      0.26      0.00
    3  -12   10      0.25      0.00
    4  -12   10      1.31      0.00
    5  -12   10      1.27      0.00
   -5  -11   10     -1.00      0.00
   -4  -11   10     -1.70      0.00
   -3  -11   10     -0.42      0.00
   -2  -11   10      0.80      0.00
   -1  -11   10      0.09      0.00
    0  -11   10     -0.44      0.00
    1  -11   10      0.62      0.00
    2  -11   10     -0.38      0.00
    3  -11   10      0.23      0.00
    4  -11   10      0.09      0.00
    5  -11   10     -1.36      0.00
    6  -11   10      1.41      0.00
    7  -11   10      0.18      0.00
   -6  -10   10      0.62      0.00
   -5  -10   10      1.87      0.00
   -4  -10   10      0.33      0.00
   -3  -10   10      0.73      0.00
   -2  -10   10     -1.22      0.00
   -1  -10   10     -0.41      0.00
    0  -10   10     -0.11      0.00
    1  -10   10     -0.42      0.00
    2  -10   10      0.29      0.00
    3  -10   10     -0.06      0.00
    4  -10   10     -0.92      0.00
    5  -10   10      1.88      0.00
    6  -10   10     -1.47      0.00
    7  -10   10      0.77      0.00
    8  -10   10      0.85      0.00
   -7   -9   10     -0.20      0.00
   -6   -9   10      0.06      0.00
   -5   -9   10     -1.78      0.00
   -4   -9   10      0.86      0.00
   -3   -9   10     -0.52      0.00
   -2   -9   10      0.95      0.00
   -1   -9   10      0.58      0.00
    0   -9   10     -0.38      0.00
    1   -9   10     -0.66      0.00
    2   -9   10     -1.08      0.00
    3   -9   10     -0.45      0.00
    4   -9   10      0.76      0.00
    5   -9   10     -1.28      0.00
    6   -9   10      1.41      0.00
    7   -9   10     -1.15      0.00
    8   -9   10     -0.44      0.00
   -8   -8   10     -0.41      0.00
   -7   -8   10      1.50      0.00
   -6   -8   10     -1.23      0.00
   -5   -8   10      0.36      0.00
   -4   -8   10     -1.08      0.00
   -3   -8   10      0.34      0.00
   -2   -8   10     -0.19      0.00
   -1   -8   10     -0.12      0.00
    0   -8   10      1.19      0.00
    1   -8   10      1.10      0.00
    2   -8   10      1.25      0.00
    3   -8   10      0.27      0.00
    4   -8   10     -0.13      0.00
    5   -8   10      0.47      0.00
    6   -8   10     -0.41      0.00
    7   -8   10      1.89      0.00
    8   -8   10      0.86      0.00
    9   -8   10      1.26      0.00
   -8   -7   10      0.22      0.00
   -7   -7   10     -2.15      0.00
   -6   -7   10      1.46      0.00
   -5   -7   10      0.98      0.00
   -4   -7   10      0.68      0.00
   -3   -7   10     -0.35      0.00
   -2   -7   10      0.28      0.00
   -1   -7   10     -0.16      0.00
    0   -7   10     -1.13      0.00
    1   -7   10     -1.11      0.00
    2   -7   10     -1.01      0.00
    3   -7   10     -0.56      0.00
    4   -7   10     -0.65      0.00
    5   -7   10      0.37      0.00
    6   -7   10     -0.29      0.00
    7   -7   10     -1.26      0.00
    8   -7   10     -0.78      0.00
    9   -7   10     -0.64      0.00
   10   -7   10     -0.78      0.00
   -9   -6   10     -0.95      0.00
   -8   -6   10      0.01      0.00
   -7   -6   10      1.10      0.00
   -6   -6   10     -1.09      0.00
   -5   -6   10     -1.41      0.00
   -4   -6   10     -0.47      0.00
   -3   -6   10      0.87      0.00
   -2   -6   10     -0.28      0.00
   -1   -6   10      0.84      0.00
    0   -6   10      0.54      0.00
    1   -6   10      0.82      0.00
    2   -6   10     -0.06      0.00
    3   -6   10      0.21      0.00
    4   -6   10      0.49      0.00
    5   -6   10     -1.23      0.00
    6   -6   10      0.47      0.00
    7   -6   10      0.41      0.00
    8   -6   10      0.65      0.00
    9   -6   10      0.11      0.00
   10   -6   10      0.00      0.00
   11   -6   10     -1.19      0.00
   -9   -5   10      0.36      0.00
   -8   -5   10     -1.58      0.00
   -7   -5   10     -0.67      0.00
   -6   -5   10     -0.36      0.00
   -5   -5   10      0.46      0.00
   -4   -5   10      0.48      0.00
   -3   -5   10     -0.76      0.00
   -2   -5   10      0.68      0.00
   -1   -5   10     -0.53      0.00
    0   -5   10      0.55      0.00
    1   -5   10     -0.23      0.00
    2   -5   10      0.36      0.00
    3   -5   10     -0.18      0.00
    4   -5   10     -0.67      0.00
    5   -5   10      0.82      0.00
    6   -5   10     -0.35      0.00
    7   -5   10     -0.20      0.00
    8   -5   10     -0.70      0.00
    9   -5   10      0.15      0.00
   10   -5   10      0.41      0.00
   11   -5   10      0.80      0.00
   12   -5   10      0.85      0.00
   -9   -4   10     -0.37      0.00
   -8   -4   10      2.00      0.00
   -7   -4   10     -0.03      0.00
   -6   -4   10      0.78      0.00
   -5   -4   10     -0.12      0.00
   -4   -4   10     -0.56      0.00
   -3   -4   10      0.28      0.00
   -2   -4   10     -0.37      0.00
   -1   -4   10      0.45      0.00
    0   -4   10     -0.14      0.00
    1   -4   10      0.06      0.00
    2   -4   10      0.13      0.00
    3   -4   10     -0.09      0.00
    4   -4   10      0.31      0.00
    5   -4   10     -0.12      0.00
    6   -4   10     -0.25      0.00
    7   -4   10      0.18      0.00
    8   -4   10      1.06      0.00
    9   -4   10     -0.78      0.00
   10   -4   10     -1.20      0.00
   11   -4   10     -1.05      0.00
   12   -4   10     -1.17      0.00
  -10   -3   10      0.36      0.00
   -9   -3   10     -0.72      0.00
   -8   -3   10     -2.67      0.00
   -7   -3   10     -0.87      0.00
   -6   -3   10     -1.26      0.00
   -5   -3   10     -0.11      0.00
   -4   -3   10      0.00      0.00
   -3   -3   10      0.10      0.00
   -2   -3   10      0.28      0.00
   -1   -3   10      0.46      0.00
    0   -3   10     -0.50      0.00
    1   -3   10      0.18      0.00
    2   -3   10     -0.46      0.00
    3   -3   10      0.17      0.00
    4   -3   10     -0.02      0.00
    5   -3   10     -0.66      0.00
    6   -3   10      0.23      0.00
    7   -3   10     -0.19      0.00
    8   -3   10     -1.68      0.00
    9   -3   10      1.04      0.00
   10   -3   10      1.64      0.00
   11   -3   10      0.70      0.00
   12   -3   10      0.82      0.00
   13   -3   10     -1.17      0.00
  -10   -2   10     -0.50      0.00
   -9   -2   10      0.47      0.00
   -8   -2   10      0.92      0.00
   -7   -2   10      0.78      0.00
   -6   -2   10      0.58      0.00
   -5   -2   10     -0.21      0.00
   -4   -2   10      0.64      0.00
   -3   -2   10      0.19      0.00
   -2   -2   10      0.10      0.00
   -1   -2   10     -1.12      0.00
    0   -2   10      1.31      0.00
    1   -2   10      0.03      0.00
    2   -2   10      0.38      0.00
    3   -2   10      0.10      0.00
    4   -2   10     -0.17      0.00
    5   -2   10      0.90      0.00
    6   -2   10      0.14      0.00
    7   -2   10      0.02      0.00
    8   -2   10      1.81      0.00
    9   -2   10     -0.35      0.00
   10   -2   10     -1.27      0.00
   11   -2   10      0.02      0.00
   12   -2   10     -0.09      0.00
   13   -2   10      1.05      0.00
  -10   -1   10      0.00      0.00
   -9   -1   10     -1.30      0.00
   -8   -1   10     -0.03      0.00
   -7   -1   10     -1.08      0.00
   -6   -1   10     -0.25      0.00
   -5   -1   10      0.39      0.00
   -4   -1   10     -0.75      0.00
   -3   -1   10     -0.27      0.00
   -2   -1   10     -0.08      0.00
   -1   -1   10      2.12      0.00
    0   -1   10     -0.85      0.00
    1   -1   10      0.10      0.00
    2   -1   10      0.23      0.00
    3   -1   10     -0.45      0.00
    4   -1   10      0.50      0.00
    5   -1   10     -0.59      0.00
    6   -1   10     -0.15      0.00
    7   -1   10      0.26      0.00
    8   -1   10     -0.79      0.00
    9   -1   10     -0.17      0.00
   10   -1   10      0.80      0.00
   11   -1   10      0.06      0.00
   12   -1   10     -0.18      0.00
   13   -1   10      0.97      0.00
  -10    0   10     -0.95      0.00
   -9    0   10      0.42      0.00
   -8    0   10     -1.21      0.00
   -7    0   10      0.44      0.00
   -6    0   10     -0.01      0.00
   -5    0   10     -0.32      0.00
   -4    0   10      0.66      0.00
   -3    0   10      0.51      0.00
   -2    0   10      0.84      0.00
   -1    0   10     -1.96      0.00
    0    0   10      0.38      0.00
    1    0   10      0.25      0.00
    2    0   10     -0.15      0.00
    3    0   10      1.26      0.00
    4    0   10     -0.07      0.00
    5    0   10      0.71      0.00
    6    0   10      0.10      0.00
    7    0   10     -0.14      0.00
    8    0   10     -0.07      0.00
    9    0   10      1.09      0.00
   10    0   10      0.82      0.00
   11    0   10      0.87      0.00
   12    0   10      1.20      0.00
   13    0   10     -2.21      0.00
  -10    1   10      1.10      0.00
   -9    1   10     -0.52      0.00
   -8    1   10      0.18      0.00
   -7    1   10     -0.88      0.00
   -6    1   10     -0.29      0.00
   -5    1   10      0.25      0.00
   -4    1   10     -0.34      0.00
   -3    1   10     -0.28      0.00
   -2    1   10     -1.42      0.00
   -1    1   10      1.58      0.00
    0    1   10      0.48      0.00
    1    1   10     -0.25      0.00
    2    1   10     -0.09      0.00
    3    1   10     -1.18      0.00
    4    1   10     -0.36      0.00
    5    1   10     -0.65      0.00
    6    1   10     -0.02      0.00
    7    1   10      0.02      0.00
    8    1   10      0.76      0.00
    9    1   10     -0.90      0.00
   10    1   10     -0.50      0.00
   11    1   10     -0.35      0.00
   12    1   10     -0.54      0.00
  -11    2   10     -2.29      0.00
  -10    2   10     -1.68      0.00
   -9    2   10      0.03      0.00
   -8    2   10      0.50      0.00
   -7    2   10      1.29      0.00
   -6    2   10      0.91      0.00
   -5    2   10     -0.10      0.00
   -4    2   10      0.49      0.00
   -3    2   10     -0.07      0.00
   -2    2   10      1.63      0.00
   -1    2   10     -0.78      0.00
    0    2   10     -0.55      0.00
    1    2   10      0.41      0.00
    2    2   10      0.82      0.00
    3    2   10      1.09      0.00
    4    2   10      1.25      0.00
    5    2   10      1.03      0.00
    6    2   10      0.59      0.00
    7    2   10      0.08      0.00
    8    2   10     -0.84      0.00
    9    2   10      0.99      0.00
   10    2   10      0.33      0.00
   11    2   10      0.71      0.00
   12    2   10      1.11      0.00
  -10    3   10      1.57      0.00
   -9    3   10     -0.58      0.00
   -8    3   10     -1.08      0.00
   -7    3   10     -1.03      0.00
   -6    3   10     -0.95      0.00
   -5    3   10      0.51      0.00
   -4    3   10     -0.81      0.00
   -3    3   10      0.07      0.00
   -2    3   10     -1.38      0.00
   -1    3   10     -0.01      0.00
    0    3   10      0.21      0.00
    1    3   10     -0.13      0.00
    2    3   10     -0.65      0.00
    3    3   10     -0.74      0.00
    4    3   10     -1.01      0.00
    5    3   10     -0.58      0.00
    6    3   10     -1.14      0.00
    7    3   10     -0.31      0.00
    8    3   10      0.40      0.00
    9    3   10     -0.96      0.00
   10    3   10      0.19      0.00
   11    3   10      0.38      0.00
   12    3   10     -0.28      0.00
   13    3   10      2.15      0.00
  -11    4   10      0.12      0.00
  -10    4   10     -0.94      0.00
   -9    4   10      0.97      0.00
   -8    4   10      1.01      0.00
   -7    4   10      0.51      0.00
   -6    4   10      1.09      0.00
   -5    4   10     -0.24      0.00
   -4    4   10      0.86      0.00
   -3    4   10     -0.29      0.00
   -2    4   10      0.16      0.00
   -1    4   10      0.15      0.00
    0    4   10      0.21      0.00
    1    4   10      0.14      0.00
    2    4   10      0.20      0.00
    3    4   10      1.12      0.00
    4    4   10      0.71      0.00
    5    4   10     -0.10      0.00
    6    4   10      1.01      0.00
    7    4   10      0.23      0.00
    8    4   10     -0.51      0.00
    9    4   10      0.42      0.00
   10    4   10     -0.07      0.00
   11    4   10     -0.71      0.00
   12    4   10     -0.42      0.00
   13    4   10     -1.15      0.00
  -11    5   10     -1.03      0.00
  -10    5   10      0.60      0.00
   -9    5   10     -0.86      0.00
   -8    5   10     -0.32      0.00
   -7    5   10      0.36      0.00
   -6    5   10      0.12      0.00
   -5    5   10      0.27      0.00
   -4    5   10     -0.51      0.00
   -3    5   10     -0.27      0.00
   -2    5   10     -0.21      0.00
   -1    5   10     -0.57      0.00
    0    5   10     -0.57      0.00
    1    5   10     -0.24      0.00
    2    5   10      0.31      0.00
    3    5   10     -0.99      0.00
    4    5   10     -0.10      0.00
    5    5   10      0.88      0.00
    6    5   10      0.02      0.00
    7    5   10     -0.58      0.00
    8    5   10      0.20      0.00
    9    5   10     -0.47      0.00
   10    5   10     -0.46      0.00
   11    5   10      0.25      0.00
   12    5   10      1.66      0.00
   13    5   10      0.65      0.00
  -10    6   10     -0.62      0.00
   -9    6   10      0.19      0.00
   -8    6   10     -0.13      0.00
   -7    6   10      0.36      0.00
   -6    6   10      0.37      0.00
   -5    6   10      1.03      0.00
   -4    6   10      0.60      0.00
   -3    6   10      0.20      0.00
   -2    6   10     -0.06      0.00
   -1    6   10     -0.27      0.00
    0    6   10      0.15      0.00
    1    6   10      0.24      0.00
    2    6   10     -0.08      0.00
    3    6   10      0.66      0.00
    4    6   10     -0.03      0.00
    5    6   10     -0.54      0.00
    6    6   10     -0.92      0.00
    7    6   10      0.59      0.00
    8    6   10     -0.53      0.00
    9    6   10      0.03      0.00
   10    6   10      0.02      0.00
   11    6   10     -0.04      0.00
   12    6   10     -2.40      0.00
   13    6   10      0.00      0.00
  -10    7   10      0.45      0.00
   -9    7   10     -0.03      0.00
   -8    7   10     -0.34      0.00
   -7    7   10     -0.88      0.00
   -6    7   10     -0.43      0.00
   -5    7   10     -0.82      0.00
   -4    7   10     -0.05      0.00
   -3    7   10     -0.03      0.00
   -2    7   10     -0.57      0.00
   -1    7   10      0.48      0.00
    0    7   10     -0.11      0.00
    1    7   10     -0.17      0.00
    2    7   10      0.00      0.00
    3    7   10     -0.01      0.00
    4    7   10      0.29      0.00
    5    7   10      0.04      0.00
    6    7   10      0.94      0.00
    7    7   10     -0.28      0.00
    8    7   10      0.55      0.00
    9    7   10     -0.24      0.00
   10    7   10      0.01      0.00
   11    7   10     -0.19      0.00
   12    7   10      2.19      0.00
   13    7   10     -0.86      0.00
  -10    8   10     -0.15      0.00
   -9    8   10     -0.75      0.00
   -8    8   10      0.28      0.00
   -7    8   10      0.57      0.00
   -6    8   10      0.83      0.00
   -5    8   10      1.17      0.00
   -4    8   10      0.01      0.00
   -3    8   10     -0.09      0.00
   -2    8   10      0.65      0.00
   -1    8   10     -0.67      0.00
    0    8   10      0.14      0.00
    1    8   10      0.18      0.00
    2    8   10     -0.17      0.00
    3    8   10     -0.24      0.00
    4    8   10     -0.39      0.00
    5    8   10      0.10      0.00
    6    8   10     -0.11      0.00
    7    8   10     -0.17      0.00
    8    8   10     -0.34      0.00
    9    8   10      0.48      0.00
   10    8   10     -0.27      0.00
   11    8   10     -0.47      0.00
   12    8   10     -2.78      0.00
   13    8   10      1.02      0.00
  -10    9   10     -1.18      0.00
   -9    9   10      0.13      0.00
   -8    9   10     -0.82      0.00
   -7    9   10     -0.25      0.00
   -6    9   10     -0.31      0.00
   -5    9   10     -0.50      0.00
   -4    9   10      0.72      0.00
   -3    9   10      0.38      0.00
   -2    9   10     -0.74      0.00
   -1    9   10      0.03      0.00
    0    9   10     -0.30      0.00
    1    9   10      0.02      0.00
    2    9   10      0.63      0.00
    3    9   10      0.27      0.00
    4    9   10      0.50      0.00
    5    9   10      0.22      0.00
    6    9   10     -0.49      0.00
    7    9   10      0.71      0.00
    8    9   10      0.09      0.00
    9    9   10     -0.49      0.00
   10    9   10      0.54      0.00
   11    9   10      1.14      0.00
   12    9   10      3.35      0.00
   13    9   10     -0.37      0.00
  -10   10   10      1.69      0.00
   -9   10   10     -0.32      0.00
   -8   10   10     -0.26      0.00
   -7   10   10     -1.28      0.00
   -6   10   10     -0.53      0.00
   -5   10   10      0.09      0.00
   -4   10   10     -0.35      0.00
   -3   10   10     -0.08      0.00
   -2   10   10      0.69      0.00
   -1   10   10      0.66      0.00
    0   10   10      0.27      0.00
    1   10   10     -0.15      0.00
    2   10   10     -0.45      0.00
    3   10   10      0.05      0.00
    4   10   10     -0.66      0.00
    5   10   10     -0.58      0.00
    6   10   10      0.67      0.00
    7   10   10     -0.77      0.00
    8   10   10      0.76      0.00
    9   10   10      0.84      0.00
   10   10   10      0.07      0.00
   11   10   10     -1.64      0.00
   12   10   10     -3.43      0.00
   13   10   10     -0.96      0.00
  -10   11   10     -1.55      0.00
   -9   11   10      0.29      0.00
   -8   11   10      0.03      0.00
   -7   11   10      1.52      0.00
   -6   11   10      0.05      0.00
   -5   11   10     -0.19      0.00
   -4   11   10     -0.16      0.00
   -3   11   10     -0.11      0.00
   -2   11   10      0.15      0.00
   -1   11   10     -0.36      0.00
    0   11   10      0.30      0.00
    1   11   10      0.51      0.00
    2   11   10      0.12      0.00
    3   11   10     -0.10      0.00
    4   11   10      0.65      0.00
    5   11   10      0.72      0.00
    6   11   10     -0.41      0.00
    7   11   10      0.65      0.00
    8   11   10     -1.15      0.00
    9   11   10     -0.14      0.00
   10   11   10     -0.29      0.00
   11   11   10      2.38      0.00
   12   11   10      3.14      0.00
  -10   12   10      1.36      0.00
   -9   12   10     -0.16      0.00
   -8   12   10      0.57      0.00
   -7   12   10     -1.58      0.00
   -6   12   10     -0.18      0.00
   -5   12   10      0.32      0.00
   -4   12   10      0.44      0.00
   -3   12   10      0.61      0.00
   -2   12   10     -0.56      0.00
   -1   12   10      0.08      0.00
    0   12   10      0.03      0.00
    1   12   10     -0.12      0.00
    2   12   10      0.23      0.00
    3   12   10     -0.56      0.00
    4   12   10     -0.73      0.00
    5   12   10     -0.60      0.00
    6   12   10     -0.31      0.00
    7   12   10     -0.28      0.00
    8   12   10      1.67      0.00
    9   12   10     -0.04      0.00
   10   12   10      1.02      0.00
   11   12   10     -1.51      0.00
   12   12   10     -2.25      0.00
   -9   13   10      0.21      0.00
   -8   13   10     -1.21      0.00
   -7   13   10      0.17      0.00
   -6   13   10     -0.16      0.00
   -5   13   10     -1.16      0.00
   -4   13   10     -0.91      0.00
   -3   13   10     -0.97      0.00
   -2   13   10      0.45      0.00
   -1   13   10      0.42      0.00
    0   13   10     -0.22      0.00
    1   13   10     -0.06      0.00
    2   13   10     -0.36      0.00
    3   13   10      0.96      0.00
    4   13   10      0.63      0.00
    5   13   10     -0.18      0.00
    6   13   10      1.22      0.00
    7   13   10      0.62      0.00
    8   13   10     -1.61      0.00
    9   13   10      0.38      0.00
   10   13   10     -0.19      0.00
   11   13   10      1.09      0.00
   -9   14   10      0.67      0.00
   -8   14   10      1.94      0.00
   -7   14   10      1.12      0.00
   -6   14   10      0.03      0.00
   -5   14   10      0.53      0.00
   -4   14   10      0.38      0.00
   -3   14   10      0.45      0.00
   -2   14   10      0.35      0.00
   -1   14   10      0.49      0.00
    0   14   10      0.78      0.00
    1   14   10     -0.07      0.00
    2   14   10     -0.02      0.00
    3   14   10     -1.27      0.00
    4   14   10     -1.08      0.00
    5   14   10      0.79      0.00
    6   14   10     -0.99      0.00
    7   14   10     -0.89      0.00
    8   14   10      1.87      0.00
    9   14   10      0.54      0.00
   10   14   10     -0.01      0.00
   -7   15   10     -1.30      0.00
   -6   15   10     -0.84      0.00
   -5   15   10     -0.46      0.00
   -4   15   10     -0.44      0.00
   -3   15   10     -0.25      0.00
   -2   15   10     -0.81      0.00
   -1   15   10     -1.34      0.00
    0   15   10     -0.18      0.00
    1   15   10      0.96      0.00
    2   15   10     -0.31      0.00
    3   15   10     -0.51      0.00
    4   15   10     -0.38      0.00
    5   15   10     -1.64      0.00
    6   15   10     -0.47      0.00
    7   15   10      0.90      0.00
    8   15   10     -1.16      0.00
    9   15   10     -1.01      0.00
   10   15   10      0.46      0.00
   -6   16   10      0.81      0.00
   -5   16   10     -0.09      0.00
   -4   16   10     -0.35      0.00
   -3   16   10     -0.53      0.00
   -2   16   10      0.40      0.00
   -1   16   10      1.85      0.00
    0   16   10     -0.17      0.00
    1   16   10     -1.57      0.00
    2   16   10     -0.41      0.00
    3   16   10      0.47      0.00
    4   16   10      0.10      0.00
    5   16   10      0.79      0.00
    6   16   10      1.50      0.00
    7   16   10      0.76      0.00
    8   16   10      1.00      0.00
    9   16   10      1.93      0.00
   -7   17   10      0.57      0.00
   -6   17   10     -0.54      0.00
   -5   17   10     -0.54      0.00
   -4   17   10     -0.52      0.00
   -3   17   10      0.45      0.00
   -2   17   10      0.15      0.00
   -1   17   10     -0.57      0.00
    0   17   10      1.33      0.00
    1   17   10      1.16      0.00
    2   17   10      0.76      0.00
    3   17   10     -1.67      0.00
    4   17   10     -1.32      0.00
    5   17   10     -1.71      0.00
    6   17   10     -2.24      0.00
    7   17   10     -2.31      0.00
    8   17   10     -0.31      0.00
    9   17   10     -1.40      0.00
   -3   18   10     -0.71      0.00
   -2   18   10     -0.59      0.00
   -1   18   10     -0.64      0.00
    0   18   10     -1.57      0.00
    1   18   10      1.06      0.00
    2   18   10     -1.57      0.00
    3   18   10      0.57      0.00
    4   18   10     -0.61      0.00
    5   18   10      0.22      0.00
    6   18   10      1.04      0.00
    7   18   10      2.31      0.00
    8   18   10      0.51      0.00
   -2   19   10      0.81      0.00
   -1   19   10      1.82      0.00
    0   19   10      2.49      0.00
    1   19   10     -1.95      0.00
    2   19   10      1.54      0.00
    3   19   10     -0.62      0.00
    6   19   10     -1.04      0.00
   -1  -12   11      0.22      0.00
    0  -12   11      0.84      0.00
    1  -12   11     -1.07      0.00
   -2  -11   11      0.35      0.00
   -1  -11   11     -0.34      0.00
    0  -11   11     -0.13      0.00
    1  -11   11      1.37      0.00
    2  -11   11      0.23      0.00
    3  -11   11      0.59      0.00
    4  -11   11     -0.02      0.00
    5  -11   11     -3.12      0.00
   -5  -10   11      2.29      0.00
   -3  -10   11      1.48      0.00
   -2  -10   11     -0.16      0.00
   -1  -10   11      0.19      0.00
    0  -10   11     -0.12      0.00
    1  -10   11     -0.57      0.00
    2  -10   11     -0.02      0.00
    3  -10   11     -0.11      0.00
    4  -10   11     -1.13      0.00
    5  -10   11      3.37      0.00
    6  -10   11     -2.40      0.00
   -6   -9   11     -0.67      0.00
   -5   -9   11     -2.23      0.00
   -4   -9   11      0.85      0.00
   -3   -9   11     -1.25      0.00
   -2   -9   11     -0.33      0.00
   -1   -9   11      0.00      0.00
    0   -9   11     -0.43      0.00
    1   -9   11     -0.54      0.00
    2   -9   11     -0.59      0.00
    3   -9   11     -0.33      0.00
    4   -9   11      1.11      0.00
    5   -9   11     -2.90      0.00
    6   -9   11      1.64      0.00
    7   -9   11     -0.99      0.00
   -6   -8   11      0.58      0.00
   -5   -8   11      1.19      0.00
   -4   -8   11     -1.15      0.00
   -3   -8   11      0.75      0.00
   -2   -8   11      0.34      0.00
   -1   -8   11     -0.21      0.00
    0   -8   11      1.31      0.00
    1   -8   11      1.50      0.00
    2   -8   11      1.63      0.00
    3   -8   11      0.80      0.00
    4   -8   11     -0.28      0.00
    5   -8   11      1.17      0.00
    6   -8   11     -1.07      0.00
    7   -8   11      1.06      0.00
    8   -8   11      0.04      0.00
   -7   -7   11     -2.93      0.00
   -6   -7   11     -0.17      0.00
   -5   -7   11      0.32      0.00
   -4   -7   11      0.80      0.00
   -3   -7   11     -0.91      0.00
   -2   -7   11     -0.31      0.00
   -1   -7   11     -0.31      0.00
    0   -7   11     -1.84      0.00
    1   -7   11     -1.54      0.00
    2   -7   11     -1.27      0.00
    3   -7   11     -0.52      0.00
    4   -7   11     -0.15      0.00
    5   -7   11      0.53      0.00
    6   -7   11      0.21      0.00
    7   -7   11     -1.26      0.00
    8   -7   11     -0.27      0.00
    9   -7   11     -0.81      0.00
   10   -7   11     -0.69      0.00
   -8   -6   11     -0.36      0.00
   -7   -6   11      2.50      0.00
   -6   -6   11      0.18      0.00
   -5   -6   11     -0.80      0.00
   -4   -6   11     -0.43      0.00
   -3   -6   11      1.01      0.00
   -2   -6   11     -0.55      0.00
   -1   -6   11      0.08      0.00
    0   -6   11      0.85      0.00
    1   -6   11      0.83      0.00
    2   -6   11      0.46      0.00
    3   -6   11      0.80      0.00
    4   -6   11      0.78      0.00
    5   -6   11     -1.01      0.00
    6   -6   11      0.26      0.00
    7   -6   11      1.08      0.00
    8   -6   11      0.34      0.00
    9   -6   11      0.33      0.00
   10   -6   11      0.16      0.00
   11   -6   11     -0.22      0.00
   -8   -5   11     -0.23      0.00
   -7   -5   11     -1.04      0.00
   -6   -5   11     -0.03      0.00
   -5   -5   11      0.62      0.00
   -4   -5   11      0.50      0.00
   -3   -5   11     -0.86      0.00
   -2   -5   11      0.60      0.00
   -1   -5   11     -0.37      0.00
    0   -5   11     -0.35      0.00
    1   -5   11     -0.07      0.00
    2   -5   11      0.41      0.00
    3   -5   11     -0.30      0.00
    4   -5   11     -0.42      0.00
    5   -5   11      0.84      0.00
    6   -5   11     -0.02      0.00
    7   -5   11     -0.98      0.00
    8   -5   11     -0.80      0.00
    9   -5   11      0.32      0.00
   10   -5   11      0.91      0.00
   11   -5   11      0.50      0.00
   -8   -4   11      1.77      0.00
   -7   -4   11      0.86      0.00
   -6   -4   11      0.71      0.00
   -5   -4   11      0.22      0.00
   -4   -4   11     -0.34      0.00
   -3   -4   11      0.26      0.00
   -2   -4   11     -0.58      0.00
   -1   -4   11     -0.08      0.00
    0   -4   11      0.20      0.00
    1   -4   11     -0.58      0.00
    2   -4   11     -0.27      0.00
    3   -4   11      0.13      0.00
    4   -4   11      0.59      0.00
    5   -4   11      0.57      0.00
    6   -4   11      0.26      0.00
    7   -4   11      1.24      0.00
    8   -4   11      2.07      0.00
    9   -4   11     -0.63      0.00
   10   -4   11     -1.58      0.00
   11   -4   11     -0.38      0.00
   12   -4   11     -1.44      0.00
   -9   -3   11     -0.19      0.00
   -8   -3   11     -1.68      0.00
   -7   -3   11     -0.83      0.00
   -6   -3   11     -0.74      0.00
   -5   -3   11     -0.26      0.00
   -4   -3   11      0.15      0.00
   -3   -3   11     -0.03      0.00
   -2   -3   11     -0.04      0.00
   -1   -3   11      0.14      0.00
    0   -3   11     -1.26      0.00
    1   -3   11      0.40      0.00
    2   -3   11     -0.13      0.00
    3   -3   11      0.52      0.00
    4   -3   11     -0.18      0.00
    5   -3   11     -1.00      0.00
    6   -3   11     -0.20      0.00
    7   -3   11     -0.74      0.00
    8   -3   11     -2.76      0.00
    9   -3   11      0.85      0.00
   10   -3   11      2.33      0.00
   11   -3   11      0.52      0.00
   12   -3   11      2.13      0.00
   -9   -2   11      0.96      0.00
   -8   -2   11      1.29      0.00
   -7   -2   11      1.90      0.00
   -6   -2   11      0.96      0.00
   -5   -2   11      0.14      0.00
   -4   -2   11      0.30      0.00
   -3   -2   11      0.27      0.00
   -2   -2   11      0.23      0.00
   -1   -2   11     -0.99      0.00
    0   -2   11      1.47      0.00
    1   -2   11     -0.27      0.00
    2   -2   11      0.22      0.00
    3   -2   11     -0.81      0.00
    4   -2   11     -0.13      0.00
    5   -2   11      0.93      0.00
    6   -2   11      0.47      0.00
    7   -2   11      0.40      0.00
    8   -2   11      2.63      0.00
    9   -2   11     -0.34      0.00
   10   -2   11     -2.33      0.00
   11   -2   11     -0.50      0.00
   12   -2   11     -2.12      0.00
   -9   -1   11     -0.50      0.00
   -8   -1   11      0.86      0.00
   -7   -1   11     -1.35      0.00
   -6   -1   11     -0.24      0.00
   -5   -1   11      0.46      0.00
   -4   -1   11     -0.48      0.00
   -3   -1   11     -0.76      0.00
   -2   -1   11     -0.63      0.00
   -1   -1   11      1.36      0.00
    0   -1   11     -1.28      0.00
    1   -1   11     -0.04      0.00
    2   -1   11     -0.09      0.00
    3   -1   11      0.40      0.00
    4   -1   11      0.59      0.00
    5   -1   11     -0.37      0.00
    6   -1   11     -0.18      0.00
    7   -1   11      0.10      0.00
    8   -1   11     -1.26      0.00
    9   -1   11     -0.35      0.00
   10   -1   11      1.15      0.00
   11   -1   11      0.03      0.00
   12   -1   11      0.87      0.00
  -10    0   11     -0.77      0.00
   -9    0   11      1.08      0.00
   -8    0   11     -0.76      0.00
   -7    0   11      1.11      0.00
   -6    0   11     -0.13      0.00
   -5    0   11     -0.71      0.00
   -4    0   11      0.31      0.00
   -3    0   11      0.65      0.00
   -2    0   11      0.65      0.00
   -1    0   11     -1.85      0.00
    0    0   11      0.09      0.00
    1    0   11     -0.22      0.00
    2    0   11     -0.30      0.00
    3    0   11      0.28      0.00
    4    0   11     -0.85      0.00
    5    0   11     -0.07      0.00
    6    0   11     -0.24      0.00
    7    0   11     -0.25      0.00
    8    0   11     -0.23      0.00
    9    0   11      0.50      0.00
   10    0   11     -0.28      0.00
   11    0   11     -0.06      0.00
   12    0   11     -0.05      0.00
  -10    1   11      2.09      0.00
   -9    1   11      0.32      0.00
   -8    1   11      0.75      0.00
   -7    1   11     -0.30      0.00
   -6    1   11      0.60      0.00
   -5    1   11      0.58      0.00
   -4    1   11     -0.36      0.00
   -3    1   11     -0.49      0.00
   -2    1   11     -1.18      0.00
   -1    1   11      1.24      0.00
    0    1   11      0.43      0.00
    1    1   11      0.19      0.00
    2    1   11      0.09      0.00
    3    1   11     -0.79      0.00
    4    1   11      0.18      0.00
    5    1   11     -0.25      0.00
    6    1   11      0.20      0.00
    7    1   11      0.12      0.00
    8    1   11      0.89      0.00
    9    1   11     -0.80      0.00
   10    1   11     -0.56      0.00
   11    1   11     -1.07      0.00
   12    1   11     -1.46      0.00
  -10    2   11     -2.46      0.00
   -9    2   11     -0.49      0.00
   -8    2   11      0.71      0.00
   -7    2   11      0.88      0.00
   -6    2   11     -0.16      0.00
   -5    2   11     -0.29      0.00
   -4    2   11      0.68      0.00
   -3    2   11      0.10      0.00
   -2    2   11      1.28      0.00
   -1    2   11     -0.83      0.00
    0    2   11     -0.87      0.00
    1    2   11     -0.62      0.00
    2    2   11     -0.01      0.00
    3    2   11      0.25      0.00
    4    2   11      0.26      0.00
    5    2   11      0.55      0.00
    6    2   11      0.15      0.00
    7    2   11      0.18      0.00
    8    2   11     -0.74      0.00
    9    2   11      0.89      0.00
   10    2   11     -0.01      0.00
   11    2   11      0.84      0.00
   12    2   11      1.47      0.00
  -10    3   11      2.67      0.00
   -9    3   11      0.61      0.00
   -8    3   11     -0.87      0.00
   -7    3   11     -0.89      0.00
   -6    3   11     -0.49      0.00
   -5    3   11      0.26      0.00
   -4    3   11     -0.89      0.00
   -3    3   11      0.35      0.00
   -2    3   11     -0.93      0.00
   -1    3   11      0.31      0.00
    0    3   11      0.42      0.00
    1    3   11      0.59      0.00
    2    3   11     -0.10      0.00
    3    3   11     -0.07      0.00
    4    3   11     -0.57      0.00
    5    3   11     -0.82      0.00
    6    3   11     -0.76      0.00
    7    3   11     -0.38      0.00
    8    3   11      0.49      0.00
    9    3   11     -0.91      0.00
   10    3   11      0.20      0.00
   11    3   11     -0.70      0.00
   12    3   11     -1.64      0.00
  -10    4   11     -2.17      0.00
   -9    4   11      0.27      0.00
   -8    4   11      0.73      0.00
   -7    4   11      0.31      0.00
   -6    4   11      0.39      0.00
   -5    4   11     -0.42      0.00
   -4    4   11      0.81      0.00
   -3    4   11     -0.11      0.00
   -2    4   11      0.75      0.00
   -1    4   11      0.14      0.00
    0    4   11      0.11      0.00
    1    4   11     -0.56      0.00
    2    4   11     -0.33      0.00
    3    4   11      0.19      0.00
    4    4   11      0.20      0.00
    5    4   11      0.12      0.00
    6    4   11      0.65      0.00
    7    4   11      0.69      0.00
    8    4   11     -0.15      0.00
    9    4   11      0.97      0.00
   10    4   11     -0.10      0.00
   11    4   11      0.18      0.00
   12    4   11      0.19      0.00
  -11    5   11     -0.71      0.00
  -10    5   11      1.04      0.00
   -9    5   11     -0.83      0.00
   -8    5   11     -0.36      0.00
   -7    5   11     -0.34      0.00
   -6    5   11     -0.36      0.00
   -5    5   11     -0.40      0.00
   -4    5   11     -0.54      0.00
   -3    5   11      0.15      0.00
   -2    5   11     -0.23      0.00
   -1    5   11      0.08      0.00
    0    5   11     -0.27      0.00
    1    5   11      0.47      0.00
    2    5   11      0.51      0.00
    3    5   11     -0.51      0.00
    4    5   11     -0.10      0.00
    5    5   11      0.26      0.00
    6    5   11      0.13      0.00
    7    5   11     -0.80      0.00
    8    5   11      0.53      0.00
    9    5   11     -0.47      0.00
   10    5   11      0.46      0.00
   11    5   11     -0.07      0.00
   12    5   11      1.57      0.00
  -11    6   11      1.37      0.00
  -10    6   11     -0.23      0.00
   -9    6   11      0.65      0.00
   -8    6   11      0.01      0.00
   -7    6   11      0.50      0.00
   -6    6   11     -0.41      0.00
   -5    6   11      0.73      0.00
   -4    6   11      0.26      0.00
   -3    6   11      0.16      0.00
   -2    6   11      0.74      0.00
   -1    6   11     -0.06      0.00
    0    6   11      0.27      0.00
    1    6   11     -0.52      0.00
    2    6   11     -0.21      0.00
    3    6   11      0.45      0.00
    4    6   11     -0.11      0.00
    5    6   11      0.02      0.00
    6    6   11     -1.07      0.00
    7    6   11      0.74      0.00
    8    6   11     -0.48      0.00
    9    6   11      0.89      0.00
   10    6   11     -0.26      0.00
   11    6   11      0.52      0.00
   12    6   11     -2.27      0.00
   13    6   11     -0.80      0.00
  -11    7   11     -1.05      0.00
  -10    7   11     -0.30      0.00
   -9    7   11      0.31      0.00
   -8    7   11      0.00      0.00
   -7    7   11     -1.26      0.00
   -6    7   11     -0.46      0.00
   -5    7   11     -1.85      0.00
   -4    7   11     -0.39      0.00
   -3    7   11      0.05      0.00
   -2    7   11     -0.52      0.00
   -1    7   11      0.71      0.00
    0    7   11      0.13      0.00
    1    7   11      0.67      0.00
    2    7   11     -0.05      0.00
    3    7   11     -0.12      0.00
    4    7   11      0.46      0.00
    5    7   11     -0.80      0.00
    6    7   11      0.96      0.00
    7    7   11     -0.24      0.00
    8    7   11      0.63      0.00
    9    7   11     -0.92      0.00
   10    7   11      0.56      0.00
   11    7   11      0.30      0.00
   12    7   11      2.56      0.00
   13    7   11      0.12      0.00
  -11    8   11     -0.31      0.00
  -10    8   11      1.35      0.00
   -9    8   11     -0.18      0.00
   -8    8   11      0.83      0.00
   -7    8   11      1.31      0.00
   -6    8   11      0.58      0.00
   -5    8   11      1.58      0.00
   -4    8   11     -0.48      0.00
   -3    8   11     -0.34      0.00
   -2    8   11      0.62      0.00
   -1    8   11     -0.51      0.00
    0    8   11      0.06      0.00
    1    8   11     -0.33      0.00
    2    8   11     -0.03      0.00
    3    8   11      0.00      0.00
    4    8   11     -0.69      0.00
    5    8   11      0.85      0.00
    6    8   11     -0.37      0.00
    7    8   11     -0.56      0.00
    8    8   11     -0.72      0.00
    9    8   11      1.08      0.00
   10    8   11     -0.15      0.00
   11    8   11     -0.62      0.00
   12    8   11     -2.12      0.00
   13    8   11      0.76      0.00
  -11    9   11      1.62      0.00
  -10    9   11     -1.59      0.00
   -9    9   11      0.46      0.00
   -8    9   11     -0.26      0.00
   -7    9   11     -0.12      0.00
   -6    9   11     -0.29      0.00
   -5    9   11     -1.58      0.00
   -4    9   11      0.76      0.00
   -3    9   11      0.28      0.00
   -2    9   11     -0.67      0.00
   -1    9   11      0.03      0.00
    0    9   11     -0.24      0.00
    1    9   11     -0.11      0.00
    2    9   11      0.42      0.00
    3    9   11      0.04      0.00
    4    9   11      0.73      0.00
    5    9   11     -0.22      0.00
    6    9   11     -0.31      0.00
    7    9   11      0.71      0.00
    8    9   11      0.38      0.00
    9    9   11     -1.04      0.00
   10    9   11      0.06      0.00
   11    9   11      1.04      0.00
   12    9   11      2.42      0.00
  -10   10   11      1.92      0.00
   -9   10   11      0.50      0.00
   -8   10   11      0.59      0.00
   -7   10   11     -0.32      0.00
   -6   10   11      0.22      0.00
   -5   10   11      1.08      0.00
   -4   10   11     -0.91      0.00
   -3   10   11     -0.08      0.00
   -2   10   11      0.67      0.00
   -1   10   11      0.63      0.00
    0   10   11      0.00      0.00
    1   10   11      0.16      0.00
    2   10   11     -0.57      0.00
    3   10   11      0.15      0.00
    4   10   11     -0.46      0.00
    5   10   11     -0.65      0.00
    6   10   11      0.34      0.00
    7   10   11     -0.81      0.00
    8   10   11     -0.19      0.00
    9   10   11      0.38      0.00
   10   10   11     -0.27      0.00
   11   10   11     -1.22      0.00
   12   10   11     -2.27      0.00
   -9   11   11     -0.28      0.00
   -8   11   11      0.08      0.00
   -7   11   11      1.59      0.00
   -6   11   11      0.19      0.00
   -5   11   11     -0.50      0.00
   -4   11   11      0.52      0.00
   -3   11   11     -0.80      0.00
   -2   11   11     -0.51      0.00
   -1   11   11     -1.14      0.00
    0   11   11      0.19      0.00
    1   11   11     -0.11      0.00
    2   11   11      0.33      0.00
    3   11   11     -0.01      0.00
    4   11   11      0.27      0.00
    5   11   11      1.29      0.00
    6   11   11     -0.09      0.00
    7   11   11      0.38      0.00
    8   11   11     -0.49      0.00
    9   11   11     -0.17      0.00
   10   11   11     -0.39      0.00
   11   11   11      0.85      0.00
   12   11   11      1.75      0.00
   -9   12   11      0.22      0.00
   -8   12   11      0.35      0.00
   -7   12   11     -0.95      0.00
   -6   12   11      0.48      0.00
   -5   12   11      0.86      0.00
   -4   12   11      0.06      0.00
   -3   12   11      1.63      0.00
   -2   12   11     -0.04      0.00
   -1   12   11      0.67      0.00
    0   12   11     -0.32      0.00
    1   12   11     -0.06      0.00
    2   12   11      0.06      0.00
    3   12   11     -0.35      0.00
    4   12   11     -0.14      0.00
    5   12   11     -1.22      0.00
    6   12   11     -0.84      0.00
    7   12   11     -0.26      0.00
    8   12   11      0.55      0.00
    9   12   11     -0.54      0.00
   10   12   11      0.44      0.00
   11   12   11     -0.72      0.00
   12   12   11     -1.74      0.00
   -9   13   11     -0.93      0.00
   -8   13   11     -0.74      0.00
   -7   13   11      0.02      0.00
   -6   13   11     -0.22      0.00
   -5   13   11     -0.39      0.00
   -4   13   11     -0.05      0.00
   -3   13   11     -1.46      0.00
   -2   13   11      0.01      0.00
   -1   13   11     -0.45      0.00
    0   13   11     -0.56      0.00
    1   13   11     -0.11      0.00
    2   13   11     -0.15      0.00
    3   13   11      1.04      0.00
    4   13   11      0.79      0.00
    5   13   11      0.31      0.00
    6   13   11      1.74      0.00
    7   13   11      0.45      0.00
    8   13   11     -0.73      0.00
    9   13   11      0.43      0.00
   10   13   11     -0.74      0.00
   -8   14   11      0.75      0.00
   -7   14   11      1.26      0.00
   -6   14   11      0.94      0.00
   -5   14   11      0.38      0.00
   -4   14   11      0.87      0.00
   -3   14   11      0.86      0.00
   -2   14   11      0.42      0.00
   -1   14   11      0.44      0.00
    0   14   11      0.93      0.00
    1   14   11     -0.23      0.00
    2   14   11      0.44      0.00
    3   14   11     -0.27      0.00
    4   14   11     -0.86      0.00
    5   14   11      1.12      0.00
    6   14   11     -1.40      0.00
    7   14   11     -1.06      0.00
    8   14   11      0.72      0.00
    9   14   11      0.03      0.00
   10   14   11      0.21      0.00
   -6   15   11     -1.37      0.00
   -5   15   11      0.57      0.00
   -4   15   11     -0.54      0.00
   -3   15   11      0.42      0.00
   -2   15   11     -0.57      0.00
   -1   15   11     -1.30      0.00
    0   15   11     -1.15      0.00
    1   15   11      1.30      0.00
    2   15   11      0.16      0.00
    3   15   11      0.10      0.00
    4   15   11      1.44      0.00
    5   15   11     -1.02      0.00
    6   15   11     -0.34      0.00
    7   15   11      0.60      0.00
    8   15   11     -0.76      0.00
    9   15   11     -1.22      0.00
   -6   16   11      1.68      0.00
   -5   16   11     -0.16      0.00
   -4   16   11      0.84      0.00
   -3   16   11     -0.33      0.00
   -2   16   11      0.55      0.00
   -1   16   11      1.49      0.00
    0   16   11      0.61      0.00
    1   16   11     -1.85      0.00
    2   16   11     -0.05      0.00
    3   16   11      1.65      0.00
    4   16   11      0.25      0.00
    5   16   11      1.20      0.00
    6   16   11      2.46      0.00
    7   16   11      1.28      0.00
    8   16   11      0.37      0.00
    9   16   11      1.97      0.00
   -4   17   11     -0.64      0.00
   -3   17   11      0.24      0.00
   -2   17   11     -0.36      0.00
   -1   17   11     -1.20      0.00
    0   17   11     -0.45      0.00
    1   17   11      0.40      0.00
    2   17   11      1.20      0.00
    3   17   11     -0.92      0.00
    4   17   11      0.49      0.00
    5   17   11      0.39      0.00
    6   17   11     -2.38      0.00
    7   17   11     -3.19      0.00
    8   17   11     -0.43      0.00
    9   17   11     -2.12      0.00
   -3   18   11      0.47      0.00
   -2   18   11      0.17      0.00
   -1   18   11     -0.12      0.00
    0   18   11     -0.89      0.00
    1   18   11      2.30      0.00
    2   18   11     -1.32      0.00
    3   18   11      1.62      0.00
    4   18   11      0.85      0.00
    5   18   11      0.39      0.00
    6   18   11      2.35      0.00
    7   18   11      3.41      0.00
   -4   19   11     -1.74      0.00
   -3   19   11     -0.65      0.00
   -2   19   11      0.15      0.00
   -1   19   11      0.50      0.00
    0   19   11      1.11      0.00
    1   19   11     -4.99      0.00
    2   19   11      0.78      0.00
    6   19   11     -0.77      0.00
   -1  -11   12     -0.60      0.00
    0  -11   12      0.93      0.00
    1  -11   12      1.55      0.00
   -1  -10   12      0.45      0.00
    0  -10   12     -1.19      0.00
    1  -10   12     -1.01      0.00
    2  -10   12     -1.09      0.00
    3  -10   12     -0.65      0.00
    4  -10   12     -1.34      0.00
   -3   -9   12     -0.92      0.00
   -2   -9   12     -0.56      0.00
   -1   -9   12      0.03      0.00
    0   -9   12      0.67      0.00
    1   -9   12     -0.10      0.00
    2   -9   12      0.24      0.00
    3   -9   12      0.02      0.00
    4   -9   12      1.38      0.00
    5   -9   12     -2.92      0.00
    6   -9   12      1.40      0.00
   -5   -8   12      1.44      0.00
   -4   -8   12     -0.87      0.00
   -3   -8   12      0.84      0.00
   -2   -8   12      1.18      0.00
   -1   -8   12      0.24      0.00
    0   -8   12      0.76      0.00
    1   -8   12      1.15      0.00
    2   -8   12      0.76      0.00
    3   -8   12      0.31      0.00
    4   -8   12     -0.71      0.00
    5   -8   12      1.37      0.00
    6   -8   12     -0.46      0.00
    7   -8   12      0.56      0.00
   -6   -7   12     -1.64      0.00
   -5   -7   12     -0.77      0.00
   -4   -7   12      0.56      0.00
   -3   -7   12     -0.92      0.00
   -2   -7   12     -0.64      0.00
   -1   -7   12     -0.02      0.00
    0   -7   12     -1.14      0.00
    1   -7   12     -1.47      0.00
    2   -7   12     -1.20      0.00
    3   -7   12     -0.89      0.00
    4   -7   12     -0.10      0.00
    5   -7   12      0.32      0.00
    6   -7   12      0.28      0.00
    7   -7   12     -0.69      0.00
    8   -7   12      0.90      0.00
   -7   -6   12      2.55      0.00
   -6   -6   12      1.16      0.00
   -5   -6   12     -0.02      0.00
   -4   -6   12     -0.34      0.00
   -3   -6   12      1.28      0.00
   -2   -6   12      0.20      0.00
   -1   -6   12      0.39      0.00
    0   -6   12      1.03      0.00
    1   -6   12      1.08      0.00
    2   -6   12      0.23      0.00
    3   -6   12      0.74      0.00
    4   -6   12      0.00      0.00
    5   -6   12     -1.15      0.00
    6   -6   12     -0.28      0.00
    7   -6   12      1.37      0.00
    8   -6   12     -0.68      0.00
    9   -6   12      0.06      0.00
   -7   -5   12     -1.63      0.00
   -6   -5   12     -0.83      0.00
   -5   -5   12     -0.05      0.00
   -4   -5   12      0.22      0.00
   -3   -5   12     -1.00      0.00
   -2   -5   12      0.70      0.00
   -1   -5   12      0.16      0.00
    0   -5   12     -0.11      0.00
    1   -5   12     -0.06      0.00
    2   -5   12      0.50      0.00
    3   -5   12     -1.09      0.00
    4   -5   12     -0.36      0.00
    5   -5   12      0.21      0.00
    6   -5   12      0.11      0.00
    7   -5   12     -2.02      0.00
    8   -5   12     -0.36      0.00
    9   -5   12      0.43      0.00
   10   -5   12      0.46      0.00
   11   -5   12     -0.11      0.00
   -8   -4   12      1.08      0.00
   -7   -4   12      0.62      0.00
   -6   -4   12      0.43      0.00
   -5   -4   12      0.18      0.00
   -4   -4   12     -0.48      0.00
   -3   -4   12      0.40      0.00
   -2   -4   12     -0.66      0.00
   -1   -4   12      0.04      0.00
    0   -4   12      0.58      0.00
    1   -4   12     -0.61      0.00
    2   -4   12     -0.83      0.00
    3   -4   12      0.47      0.00
    4   -4   12     -0.01      0.00
    5   -4   12      0.55      0.00
    6   -4   12     -0.08      0.00
    7   -4   12      1.82      0.00
    8   -4   12      1.79      0.00
    9   -4   12     -0.82      0.00
   10   -4   12     -1.62      0.00
   11   -4   12     -0.38      0.00
   -8   -3   12     -1.69      0.00
   -7   -3   12     -1.13      0.00
   -6   -3   12     -0.83      0.00
   -5   -3   12     -0.71      0.00
   -4   -3   12      0.34      0.00
   -3   -3   12     -0.16      0.00
   -2   -3   12      0.42      0.00
   -1   -3   12      0.19      0.00
    0   -3   12     -1.15      0.00
    1   -3   12      0.88      0.00
    2   -3   12      0.29      0.00
    3   -3   12     -0.06      0.00
    4   -3   12     -0.43      0.00
    5   -3   12     -1.50      0.00
    6   -3   12     -0.84      0.00
    7   -3   12     -1.59      0.00
    8   -3   12     -3.27      0.00
    9   -3   12      0.30      0.00
   10   -3   12      2.45      0.00
   11   -3   12      0.66      0.00
   12   -3   12      2.12      0.00
   -8   -2   12      0.33      0.00
   -7   -2   12      1.65      0.00
   -6   -2   12      0.76      0.00
   -5   -2   12      0.38      0.00
   -4   -2   12     -0.46      0.00
   -3   -2   12      0.28      0.00
   -2   -2   12      0.18      0.00
   -1   -2   12     -0.19      0.00
    0   -2   12      1.75      0.00
    1   -2   12     -0.57      0.00
    2   -2   12      0.14      0.00
    3   -2   12     -0.72      0.00
    4   -2   12      0.06      0.00
    5   -2   12      0.94      0.00
    6   -2   12      0.66      0.00
    7   -2   12      0.42      0.00
    8   -2   12      2.74      0.00
    9   -2   12      0.05      0.00
   10   -2   12     -2.86      0.00
   11   -2   12     -1.09      0.00
   12   -2   12     -2.74      0.00
   -9   -1   12     -0.68      0.00
   -8   -1   12      0.53      0.00
   -7   -1   12     -2.37      0.00
   -6   -1   12     -0.79      0.00
   -5   -1   12      0.08      0.00
   -4   -1   12      0.43      0.00
   -3   -1   12     -0.48      0.00
   -2   -1   12     -0.49      0.00
   -1   -1   12      0.75      0.00
    0   -1   12     -1.07      0.00
    1   -1   12      0.38      0.00
    2   -1   12     -0.27      0.00
    3   -1   12      0.48      0.00
    4   -1   12      0.29      0.00
    5   -1   12     -0.48      0.00
    6   -1   12     -0.46      0.00
    7   -1   12     -0.13      0.00
    8   -1   12     -1.66      0.00
    9   -1   12     -0.47      0.00
   10   -1   12      2.21      0.00
   11   -1   12      1.46      0.00
   -9    0   12      0.33      0.00
   -8    0   12     -1.59      0.00
   -7    0   12      1.32      0.00
   -6    0   12     -0.15      0.00
   -5    0   12     -0.59      0.00
   -4    0   12     -0.42      0.00
   -3    0   12      0.52      0.00
   -2    0   12      0.96      0.00
   -1    0   12     -0.79      0.00
    0    0   12      0.22      0.00
    1    0   12     -0.13      0.00
    2    0   12      0.03      0.00
    3    0   12      0.26      0.00
    4    0   12     -0.66      0.00
    5    0   12     -0.06      0.00
    6    0   12     -0.32      0.00
    7    0   12     -0.39      0.00
    8    0   12      0.03      0.00
    9    0   12      0.13      0.00
   10    0   12     -1.12      0.00
   11    0   12     -0.86      0.00
   -9    1   12     -0.69      0.00
   -8    1   12      0.05      0.00
   -7    1   12     -1.30      0.00
   -6    1   12      0.67      0.00
   -5    1   12      0.25      0.00
   -4    1   12      0.02      0.00
   -3    1   12     -0.24      0.00
   -2    1   12     -1.05      0.00
   -1    1   12      0.93      0.00
    0    1   12      0.89      0.00
    1    1   12      0.30      0.00
    2    1   12      0.24      0.00
    3    1   12     -0.57      0.00
    4    1   12      0.56      0.00
    5    1   12      0.07      0.00
    6    1   12      0.51      0.00
    7    1   12      0.21      0.00
    8    1   12      0.27      0.00
    9    1   12     -0.07      0.00
   10    1   12      0.58      0.00
   11    1   12      0.14      0.00
   12    1   12     -0.91      0.00
  -10    2   12     -2.66      0.00
   -9    2   12     -0.69      0.00
   -8    2   12      0.21      0.00
   -7    2   12      0.86      0.00
   -6    2   12     -1.24      0.00
   -5    2   12      0.02      0.00
   -4    2   12      0.59      0.00
   -3    2   12     -0.06      0.00
   -2    2   12      1.29      0.00
   -1    2   12     -0.46      0.00
    0    2   12     -0.98      0.00
    1    2   12     -0.32      0.00
    2    2   12     -0.06      0.00
    3    2   12      0.23      0.00
    4    2   12     -0.16      0.00
    5    2   12      0.56      0.00
    6    2   12     -0.22      0.00
    7    2   12     -0.17      0.00
    8    2   12     -0.14      0.00
    9    2   12      0.12      0.00
   10    2   12     -0.45      0.00
   11    2   12      0.89      0.00
   12    2   12      2.67      0.00
  -10    3   12      2.90      0.00
   -9    3   12      0.31      0.00
   -8    3   12     -0.88      0.00
   -7    3   12     -1.28      0.00
   -6    3   12      0.61      0.00
   -5    3   12     -0.18      0.00
   -4    3   12     -1.06      0.00
   -3    3   12      0.26      0.00
   -2    3   12     -1.16      0.00
   -1    3   12      0.33      0.00
    0    3   12      0.78      0.00
    1    3   12      0.51      0.00
    2    3   12     -0.04      0.00
    3    3   12      0.22      0.00
    4    3   12      0.36      0.00
    5    3   12     -0.73      0.00
    6    3   12     -0.11      0.00
    7    3   12     -0.04      0.00
    8    3   12     -0.47      0.00
    9    3   12     -0.55      0.00
   10    3   12      0.36      0.00
   11    3   12     -0.86      0.00
   12    3   12     -3.04      0.00
  -10    4   12     -2.51      0.00
   -9    4   12      0.35      0.00
   -8    4   12      0.31      0.00
   -7    4   12      0.73      0.00
   -6    4   12     -0.22      0.00
   -5    4   12     -0.05      0.00
   -4    4   12      0.53      0.00
   -3    4   12     -0.56      0.00
   -2    4   12      0.81      0.00
   -1    4   12     -0.23      0.00
    0    4   12     -0.03      0.00
    1    4   12     -0.38      0.00
    2    4   12     -0.10      0.00
    3    4   12     -0.01      0.00
    4    4   12     -0.44      0.00
    5    4   12      0.56      0.00
    6    4   12      0.28      0.00
    7    4   12      0.32      0.00
    8    4   12      0.28      0.00
    9    4   12      0.27      0.00
   10    4   12     -0.57      0.00
   11    4   12      0.46      0.00
   12    4   12      2.32      0.00
  -10    5   12      1.60      0.00
   -9    5   12     -1.13      0.00
   -8    5   12      0.13      0.00
   -7    5   12     -0.27      0.00
   -6    5   12      0.51      0.00
   -5    5   12      0.01      0.00
   -4    5   12     -0.07      0.00
   -3    5   12      0.13      0.00
   -2    5   12     -1.11      0.00
   -1    5   12      0.08      0.00
    0    5   12     -0.55      0.00
    1    5   12      0.26      0.00
    2    5   12      0.18      0.00
    3    5   12     -0.50      0.00
    4    5   12      0.30      0.00
    5    5   12     -0.05      0.00
    6    5   12      0.39      0.00
    7    5   12     -0.80      0.00
    8    5   12     -0.18      0.00
    9    5   12     -0.62      0.00
   10    5   12      0.38      0.00
   11    5   12     -0.61      0.00
   12    5   12     -0.89      0.00
  -10    6   12     -0.27      0.00
   -9    6   12      0.85      0.00
   -8    6   12     -0.35      0.00
   -7    6   12      0.78      0.00
   -6    6   12     -0.35      0.00
   -5    6   12      0.69      0.00
   -4    6   12     -0.11      0.00
   -3    6   12     -0.18      0.00
   -2    6   12      0.90      0.00
   -1    6   12     -0.50      0.00
    0    6   12      0.37      0.00
    1    6   12     -0.62      0.00
    2    6   12     -0.32      0.00
    3    6   12      0.43      0.00
    4    6   12     -0.16      0.00
    5    6   12      0.47      0.00
    6    6   12     -0.83      0.00
    7    6   12      0.95      0.00
    8    6   12     -0.22      0.00
    9    6   12      0.59      0.00
   10    6   12     -0.91      0.00
   11    6   12     -0.10      0.00
   12    6   12     -0.56      0.00
  -10    7   12     -0.90      0.00
   -9    7   12      0.05      0.00
   -8    7   12      0.17      0.00
   -7    7   12     -1.12      0.00
   -6    7   12      0.40      0.00
   -5    7   12     -0.77      0.00
   -4    7   12      0.21      0.00
   -3    7   12      0.01      0.00
   -2    7   12     -0.98      0.00
   -1    7   12      0.45      0.00
    0    7   12     -0.25      0.00
    1    7   12      0.60      0.00
    2    7   12     -0.05      0.00
    3    7   12     -0.49      0.00
    4    7   12      0.21      0.00
    5    7   12     -1.15      0.00
    6    7   12      0.81      0.00
    7    7   12     -0.29      0.00
    8    7   12      0.30      0.00
    9    7   12     -1.39      0.00
   10    7   12     -0.06      0.00
   11    7   12      0.35      0.00
   12    7   12      0.45      0.00
  -10    8   12      1.55      0.00
   -9    8   12     -1.01      0.00
   -8    8   12     -0.06      0.00
   -7    8   12      1.10      0.00
   -6    8   12      0.26      0.00
   -5    8   12      1.40      0.00
   -4    8   12     -0.24      0.00
   -3    8   12     -0.26      0.00
   -2    8   12      0.34      0.00
   -1    8   12     -0.74      0.00
    0    8   12     -0.09      0.00
    1    8   12     -0.48      0.00
    2    8   12     -0.22      0.00
    3    8   12      0.09      0.00
    4    8   12     -0.63      0.00
    5    8   12      1.30      0.00
    6    8   12      0.01      0.00
    7    8   12     -0.29      0.00
    8    8   12     -0.56      0.00
    9    8   12      1.41      0.00
   10    8   12      0.43      0.00
   11    8   12     -1.50      0.00
   12    8   12     -1.03      0.00
  -10    9   12     -2.31      0.00
   -9    9   12      0.03      0.00
   -8    9   12     -0.73      0.00
   -7    9   12     -0.77      0.00
   -6    9   12     -0.27      0.00
   -5    9   12     -1.33      0.00
   -4    9   12      0.58      0.00
   -3    9   12      0.49      0.00
   -2    9   12     -0.30      0.00
   -1    9   12      0.32      0.00
    0    9   12     -0.04      0.00
    1    9   12     -0.24      0.00
    2    9   12      0.30      0.00
    3    9   12     -0.17      0.00
    4    9   12      0.49      0.00
    5    9   12     -0.57      0.00
    6    9   12     -0.19      0.00
    7    9   12      0.70      0.00
    8    9   12      0.92      0.00
    9    9   12     -0.97      0.00
   10    9   12     -0.62      0.00
   11    9   12      1.32      0.00
   12    9   12      0.97      0.00
   -9   10   12      0.15      0.00
   -8   10   12      0.02      0.00
   -7   10   12     -0.64      0.00
   -6   10   12     -0.08      0.00
   -5   10   12      1.13      0.00
   -4   10   12     -0.24      0.00
   -3   10   12     -0.25      0.00
   -2   10   12      0.51      0.00
   -1   10   12      0.33      0.00
    0   10   12     -0.15      0.00
    1   10   12      0.48      0.00
    2   10   12     -0.70      0.00
    3   10   12     -0.19      0.00
    4   10   12     -0.26      0.00
    5   10   12     -0.40      0.00
    6   10   12      0.15      0.00
    7   10   12     -0.10      0.00
    8   10   12     -0.44      0.00
    9   10   12      0.36      0.00
   10   10   12      0.02      0.00
   11   10   12     -1.01      0.00
   12   10   12     -0.98      0.00
   -9   11   12     -0.67      0.00
   -8   11   12     -0.49      0.00
   -7   11   12      0.57      0.00
   -6   11   12     -0.62      0.00
   -5   11   12     -1.05      0.00
   -4   11   12     -0.22      0.00
   -3   11   12     -0.53      0.00
   -2   11   12     -0.58      0.00
   -1   11   12     -0.88      0.00
    0   11   12      0.58      0.00
    1   11   12     -0.27      0.00
    2   11   12      0.66      0.00
    3   11   12      0.31      0.00
    4   11   12     -0.29      0.00
    5   11   12      1.15      0.00
    6   11   12      0.49      0.00
    7   11   12     -0.18      0.00
    8   11   12      0.20      0.00
    9   11   12      0.70      0.00
   10   11   12      0.78      0.00
   11   11   12      0.70      0.00
   12   11   12      0.62      0.00
   -9   12   12      0.33      0.00
   -8   12   12      0.07      0.00
   -7   12   12     -0.84      0.00
   -6   12   12      0.48      0.00
   -5   12   12      0.28      0.00
   -4   12   12     -0.04      0.00
   -3   12   12      1.14      0.00
   -2   12   12      0.46      0.00
   -1   12   12      1.08      0.00
    0   12   12     -0.37      0.00
    1   12   12      0.06      0.00
    2   12   12     -0.56      0.00
    3   12   12     -0.64      0.00
    4   12   12      0.35      0.00
    5   12   12     -1.04      0.00
    6   12   12     -1.33      0.00
    7   12   12      0.42      0.00
    8   12   12      0.03      0.00
    9   12   12     -1.20      0.00
   10   12   12     -0.48      0.00
   -9   13   12     -0.39      0.00
   -8   13   12     -0.09      0.00
   -7   13   12     -0.42      0.00
   -6   13   12     -1.38      0.00
   -5   13   12     -0.25      0.00
   -4   13   12     -0.35      0.00
   -3   13   12     -1.23      0.00
   -2   13   12     -0.43      0.00
   -1   13   12     -0.52      0.00
    0   13   12     -0.09      0.00
    1   13   12      0.02      0.00
    2   13   12      0.27      0.00
    3   13   12      0.26      0.00
    4   13   12      0.07      0.00
    5   13   12     -0.20      0.00
    6   13   12      2.32      0.00
    7   13   12      0.14      0.00
    8   13   12      0.19      0.00
    9   13   12      1.71      0.00
   10   13   12      0.28      0.00
   -7   14   12      1.19      0.00
   -6   14   12      1.68      0.00
   -5   14   12     -0.96      0.00
   -4   14   12      0.28      0.00
   -3   14   12     -0.06      0.00
   -2   14   12      0.34      0.00
   -1   14   12      0.34      0.00
    0   14   12      0.84      0.00
    1   14   12     -0.23      0.00
    2   14   12     -0.46      0.00
    3   14   12      0.09      0.00
    4   14   12     -1.44      0.00
    5   14   12      1.40      0.00
    6   14   12     -2.14      0.00
    7   14   12     -0.99      0.00
    8   14   12     -0.33      0.00
    9   14   12     -1.40      0.00
   -6   15   12     -2.49      0.00
   -5   15   12      0.98      0.00
   -4   15   12     -1.17      0.00
   -3   15   12      0.40      0.00
   -2   15   12     -0.35      0.00
   -1   15   12     -0.56      0.00
    0   15   12     -0.98      0.00
    1   15   12      0.82      0.00
    2   15   12      0.12      0.00
    3   15   12     -1.59      0.00
    4   15   12      1.59      0.00
    5   15   12     -1.86      0.00
    6   15   12      0.31      0.00
    7   15   12      0.71      0.00
    8   15   12      0.23      0.00
    9   15   12      0.05      0.00
   -5   16   12     -0.98      0.00
   -4   16   12      0.71      0.00
   -3   16   12     -0.57      0.00
   -2   16   12      0.07      0.00
   -1   16   12      1.08      0.00
    0   16   12      1.24      0.00
    1   16   12     -0.97      0.00
    2   16   12     -0.76      0.00
    3   16   12      1.53      0.00
    4   16   12     -2.26      0.00
    5   16   12      0.24      0.00
    6   16   12      1.25      0.00
    7   16   12      1.26      0.00
    8   16   12     -0.37      0.00
   -4   17   12     -0.93      0.00
   -3   17   12     -0.54      0.00
   -2   17   12     -0.31      0.00
   -1   17   12     -0.97      0.00
    0   17   12     -0.80      0.00
    1   17   12     -0.98      0.00
    2   17   12      0.64      0.00
    3   17   12     -2.80      0.00
    4   17   12      0.53      0.00
    5   17   12      0.02      0.00
    6   17   12     -2.20      0.00
    7   17   12     -3.79      0.00
    8   17   12      0.13      0.00
   -3   18   12      1.03      0.00
   -2   18   12      0.45      0.00
   -1   18   12      0.98      0.00
    0   18   12      0.42      0.00
    1   18   12      4.74      0.00
    2   18   12     -0.96      0.00
    3   18   12      1.77      0.00
    4   18   12     -0.74      0.00
    5   18   12     -1.28      0.00
    6   18   12      1.18      0.00
    7   18   12      3.98      0.00
   -4   19   12     -1.08      0.00
   -3   19   12     -1.45      0.00
   -2   19   12     -0.21      0.00
   -1   19   12     -0.36      0.00
    0   19   12      1.09      0.00
    1   19   12     -6.66      0.00
    2   19   12      0.09      0.00
    3   19   12     -1.74      0.00
    0   20   12     -0.71      0.00
    1   20   12      6.34      0.00
    2   20   12      1.03      0.00
    0  -10   13     -1.99      0.00
    1  -10   13     -1.33      0.00
    0   -9   13      1.25      0.00
    1   -9   13      0.54      0.00
    2   -9   13      1.16      0.00
    3   -9   13      0.70      0.00
   -2   -8   13      0.75      0.00
   -1   -8   13     -0.16      0.00
    0   -8   13     -0.51      0.00
    1   -8   13      0.28      0.00
    2   -8   13     -0.19      0.00
    3   -8   13      0.01      0.00
    4   -8   13     -0.78      0.00
    5   -8   13      0.54      0.00
   -4   -7   13      0.49      0.00
   -3   -7   13     -0.91      0.00
   -2   -7   13     -1.13      0.00
   -1   -7   13     -0.73      0.00
    0   -7   13     -0.38      0.00
    1   -7   13     -1.16      0.00
    2   -7   13     -0.23      0.00
    3   -7   13     -0.58      0.00
    4   -7   13      0.51      0.00
    5   -7   13      0.45      0.00
    6   -7   13     -0.11      0.00
    7   -7   13     -0.53      0.00
   -5   -6   13      0.83      0.00
   -4   -6   13     -0.31      0.00
   -3   -6   13      1.18      0.00
   -2   -6   13      0.22      0.00
   -1   -6   13      0.58      0.00
    0   -6   13     -0.31      0.00
    1   -6   13      1.21      0.00
    2   -6   13      0.01      0.00
    3   -6   13      1.43      0.00
    4   -6   13     -0.27      0.00
    5   -6   13     -0.72      0.00
    6   -6   13     -0.48      0.00
    7   -6   13      1.27      0.00
    8   -6   13     -1.62      0.00
   -6   -5   13     -1.04      0.00
   -5   -5   13     -0.17      0.00
   -4   -5   13      0.48      0.00
   -3   -5   13     -1.19      0.00
   -2   -5   13      0.32      0.00
   -1   -5   13     -0.91      0.00
    0   -5   13      0.41      0.00
    1   -5   13     -0.93      0.00
    2   -5   13      0.77      0.00
    3   -5   13     -1.51      0.00
    4   -5   13      0.57      0.00
    5   -5   13      0.34      0.00
    6   -5   13      0.90      0.00
    7   -5   13     -1.99      0.00
    8   -5   13      0.72      0.00
   -6   -4   13      0.94      0.00
   -5   -4   13      0.34      0.00
   -4   -4   13     -0.37      0.00
   -3   -4   13      0.88      0.00
   -2   -4   13     -0.89      0.00
   -1   -4   13      0.44      0.00
    0   -4   13     -0.35      0.00
    1   -4   13      0.27      0.00
    2   -4   13     -0.88      0.00
    3   -4   13      1.79      0.00
    4   -4   13      0.02      0.00
    5   -4   13      0.79      0.00
    6   -4   13     -0.25      0.00
    7   -4   13      2.14      0.00
    8   -4   13      1.06      0.00
    9   -4   13     -1.13      0.00
   11   -4   13     -0.10      0.00
   -7   -3   13     -0.54      0.00
   -6   -3   13     -0.77      0.00
   -5   -3   13     -0.39      0.00
   -4   -3   13      0.70      0.00
   -3   -3   13     -0.41      0.00
   -2   -3   13      0.66      0.00
   -1   -3   13     -0.52      0.00
    0   -3   13     -0.75      0.00
    1   -3   13      0.09      0.00
    2   -3   13      0.76      0.00
    3   -3   13     -0.88      0.00
    4   -3   13      0.00      0.00
    5   -3   13     -0.72      0.00
    6   -3   13     -0.20      0.00
    7   -3   13     -0.97      0.00
    8   -3   13     -2.04      0.00
    9   -3   13      0.54      0.00
   10   -3   13      2.12      0.00
   11   -3   13      0.57      0.00
   -7   -2   13      1.55      0.00
   -6   -2   13      1.14      0.00
   -5   -2   13      0.62      0.00
   -4   -2   13     -0.64      0.00
   -3   -2   13      0.31      0.00
   -2   -2   13     -0.04      0.00
   -1   -2   13      0.20      0.00
    0   -2   13      1.16      0.00
    1   -2   13     -0.28      0.00
    2   -2   13     -0.10      0.00
    3   -2   13      0.37      0.00
    4   -2   13      0.39      0.00
    5   -2   13      0.88      0.00
    6   -2   13      1.02      0.00
    7   -2   13      0.54      0.00
    8   -2   13      2.53      0.00
    9   -2   13      0.68      0.00
   10   -2   13     -2.40      0.00
   11   -2   13     -1.25      0.00
   -8   -1   13      1.54      0.00
   -7   -1   13     -1.85      0.00
   -6   -1   13     -1.07      0.00
   -5   -1   13     -0.06      0.00
   -4   -1   13      1.05      0.00
   -3   -1   13      0.12      0.00
   -2   -1   13     -0.59      0.00
   -1   -1   13      0.12      0.00
    0   -1   13     -0.88      0.00
    1   -1   13      0.30      0.00
    2   -1   13     -0.03      0.00
    3   -1   13      0.05      0.00
    4   -1   13      0.28      0.00
    5   -1   13     -0.15      0.00
    6   -1   13     -0.18      0.00
    7   -1   13      0.48      0.00
    8   -1   13     -1.19      0.00
    9   -1   13     -0.50      0.00
   10   -1   13      2.13      0.00
   -8    0   13     -1.31      0.00
   -7    0   13      1.95      0.00
   -6    0   13      0.88      0.00
   -5    0   13     -0.06      0.00
   -4    0   13     -0.98      0.00
   -3    0   13     -0.31      0.00
   -2    0   13      1.04      0.00
   -1    0   13     -0.49      0.00
    0    0   13     -0.12      0.00
    1    0   13     -0.12      0.00
    2    0   13     -0.05      0.00
    3    0   13      0.50      0.00
    4    0   13     -0.40      0.00
    5    0   13      0.05      0.00
    6    0   13     -0.13      0.00
    7    0   13     -0.09      0.00
    8    0   13      0.96      0.00
    9    0   13      0.35      0.00
   10    0   13     -1.20      0.00
   11    0   13     -1.91      0.00
   -9    1   13     -0.80      0.00
   -8    1   13      1.02      0.00
   -7    1   13     -1.02      0.00
   -6    1   13      0.36      0.00
   -5    1   13     -0.07      0.00
   -4    1   13      0.54      0.00
   -3    1   13      0.36      0.00
   -2    1   13     -1.32      0.00
   -1    1   13      0.36      0.00
    0    1   13      0.87      0.00
    1    1   13     -0.13      0.00
    2    1   13      0.31      0.00
    3    1   13     -0.60      0.00
    4    1   13      0.21      0.00
    5    1   13      0.10      0.00
    6    1   13      0.70      0.00
    7    1   13      0.46      0.00
    8    1   13     -0.38      0.00
    9    1   13      0.57      0.00
   10    1   13      0.93      0.00
   11    1   13      0.93      0.00
   -9    2   13      1.08      0.00
   -8    2   13      0.67      0.00
   -7    2   13      1.61      0.00
   -6    2   13     -0.70      0.00
   -5    2   13      0.60      0.00
   -4    2   13      0.44      0.00
   -3    2   13     -0.31      0.00
   -2    2   13      1.20      0.00
   -1    2   13     -0.31      0.00
    0    2   13     -1.31      0.00
    1    2   13      0.23      0.00
    2    2   13     -0.07      0.00
    3    2   13      0.26      0.00
    4    2   13      0.05      0.00
    5    2   13      0.22      0.00
    6    2   13     -0.48      0.00
    7    2   13     -0.25      0.00
    8    2   13      1.21      0.00
    9    2   13     -0.13      0.00
   10    2   13     -0.51      0.00
   11    2   13      0.11      0.00
   -9    3   13     -0.42      0.00
   -8    3   13     -0.27      0.00
   -7    3   13     -1.15      0.00
   -6    3   13      0.90      0.00
   -5    3   13     -0.14      0.00
   -4    3   13     -0.70      0.00
   -3    3   13      0.47      0.00
   -2    3   13     -0.95      0.00
   -1    3   13      0.05      0.00
    0    3   13      0.91      0.00
    1    3   13     -0.33      0.00
    2    3   13     -0.29      0.00
    3    3   13      0.02      0.00
    4    3   13      0.08      0.00
    5    3   13     -0.68      0.00
    6    3   13      0.10      0.00
    7    3   13      0.61      0.00
    8    3   13     -1.00      0.00
    9    3   13      0.38      0.00
   10    3   13      0.75      0.00
   11    3   13     -0.26      0.00
   -9    4   13      1.36      0.00
   -8    4   13      0.34      0.00
   -7    4   13      0.99      0.00
   -6    4   13     -0.13      0.00
   -5    4   13     -0.15      0.00
   -4    4   13      0.42      0.00
   -3    4   13     -0.44      0.00
   -2    4   13      0.78      0.00
   -1    4   13     -0.07      0.00
    0    4   13     -0.19      0.00
    1    4   13      0.53      0.00
    2    4   13      0.56      0.00
    3    4   13      0.37      0.00
    4    4   13     -0.46      0.00
    5    4   13      0.29      0.00
    6    4   13     -0.11      0.00
    7    4   13     -0.30      0.00
    8    4   13      1.01      0.00
    9    4   13      0.11      0.00
   10    4   13     -0.36      0.00
   11    4   13      0.29      0.00
   12    4   13      3.69      0.00
  -10    5   13      1.38      0.00
   -9    5   13     -1.73      0.00
   -8    5   13      0.34      0.00
   -7    5   13     -0.16      0.00
   -6    5   13      0.15      0.00
   -5    5   13      0.54      0.00
   -4    5   13      0.57      0.00
   -3    5   13      0.66      0.00
   -2    5   13     -0.68      0.00
   -1    5   13      0.20      0.00
    0    5   13     -0.48      0.00
    1    5   13     -0.44      0.00
    2    5   13     -0.10      0.00
    3    5   13     -0.56      0.00
    4    5   13      0.30      0.00
    5    5   13     -0.05      0.00
    6    5   13      0.32      0.00
    7    5   13     -0.51      0.00
    8    5   13     -0.31      0.00
    9    5   13      0.34      0.00
   10    5   13      1.14      0.00
   11    5   13      0.45      0.00
   12    5   13     -2.68      0.00
  -10    6   13     -0.51      0.00
   -9    6   13      1.02      0.00
   -8    6   13     -0.78      0.00
   -7    6   13     -0.07      0.00
   -6    6   13     -0.47      0.00
   -5    6   13     -0.48      0.00
   -4    6   13     -0.67      0.00
   -3    6   13     -0.20      0.00
   -2    6   13      1.09      0.00
   -1    6   13     -0.10      0.00
    0    6   13      0.84      0.00
    1    6   13      0.43      0.00
    2    6   13      0.12      0.00
    3    6   13      0.76      0.00
    4    6   13      0.16      0.00
    5    6   13      0.10      0.00
    6    6   13     -0.93      0.00
    7    6   13      1.04      0.00
    8    6   13      0.33      0.00
    9    6   13      0.43      0.00
   10    6   13     -0.47      0.00
   11    6   13     -0.27      0.00
   12    6   13      2.55      0.00
  -10    7   13     -0.55      0.00
   -9    7   13      0.59      0.00
   -8    7   13      0.87      0.00
   -7    7   13     -0.43      0.00
   -6    7   13      0.24      0.00
   -5    7   13      0.26      0.00
   -4    7   13      0.57      0.00
   -3    7   13      0.26      0.00
   -2    7   13     -0.58      0.00
   -1    7   13      0.46      0.00
    0    7   13     -0.29      0.00
    1    7   13      0.20      0.00
    2    7   13      0.35      0.00
    3    7   13     -0.18      0.00
    4    7   13     -0.08      0.00
    5    7   13     -0.81      0.00
    6    7   13      0.41      0.00
    7    7   13     -0.91      0.00
    8    7   13     -0.08      0.00
    9    7   13     -0.60      0.00
   10    7   13      0.07      0.00
   11    7   13      1.47      0.00
   12    7   13     -1.77      0.00
  -10    8   13      1.54      0.00
   -9    8   13     -1.39      0.00
   -8    8   13     -0.42      0.00
   -7    8   13      0.72      0.00
   -6    8   13     -0.26      0.00
   -5    8   13     -0.28      0.00
   -4    8   13     -0.40      0.00
   -3    8   13     -0.24      0.00
   -2    8   13      0.33      0.00
   -1    8   13     -0.41      0.00
    0    8   13      0.18      0.00
    1    8   13      0.13      0.00
    2    8   13      0.08      0.00
    3    8   13      0.49      0.00
    4    8   13      0.07      0.00
    5    8   13      1.03      0.00
    6    8   13      0.12      0.00
    7    8   13      0.06      0.00
    8    8   13     -0.50      0.00
    9    8   13      1.13      0.00
   10    8   13      1.62      0.00
   11    8   13     -1.27      0.00
   12    8   13      1.60      0.00
   -9    9   13      1.32      0.00
   -8    9   13      0.38      0.00
   -7    9   13     -0.44      0.00
   -6    9   13      0.30      0.00
   -5    9   13     -0.05      0.00
   -4    9   13     -0.10      0.00
   -3    9   13      0.72      0.00
   -2    9   13     -0.03      0.00
   -1    9   13      0.64      0.00
    0    9   13      0.13      0.00
    1    9   13     -0.23      0.00
    2    9   13      0.33      0.00
    3    9   13     -0.09      0.00
    4    9   13      0.27      0.00
    5    9   13     -0.72      0.00
    6    9   13     -0.60      0.00
    7    9   13     -0.16      0.00
    8    9   13      0.94      0.00
    9    9   13     -0.74      0.00
   10    9   13     -1.55      0.00
   11    9   13      1.45      0.00
   12    9   13     -0.16      0.00
   -9   10   13      0.21      0.00
   -8   10   13      0.33      0.00
   -7   10   13      0.35      0.00
   -6   10   13     -0.15      0.00
   -5   10   13      0.28      0.00
   -4   10   13      1.02      0.00
   -3   10   13     -0.83      0.00
   -2   10   13      0.40      0.00
   -1   10   13     -0.26      0.00
    0   10   13     -0.18      0.00
    1   10   13      0.71      0.00
    2   10   13     -0.25      0.00
    3   10   13      0.11      0.00
    4   10   13      0.03      0.00
    5   10   13      0.09      0.00
    6   10   13     -0.01      0.00
    7   10   13      0.37      0.00
    8   10   13     -0.86      0.00
    9   10   13     -0.01      0.00
   10   10   13      0.49      0.00
   11   10   13     -0.77      0.00
   12   10   13     -0.12      0.00
   -9   11   13     -0.07      0.00
   -8   11   13      0.23      0.00
   -7   11   13      0.64      0.00
   -6   11   13      0.29      0.00
   -5   11   13     -0.06      0.00
   -4   11   13     -1.42      0.00
   -3   11   13      0.56      0.00
   -2   11   13     -0.60      0.00
   -1   11   13     -0.33      0.00
    0   11   13      0.45      0.00
    1   11   13     -0.50      0.00
    2   11   13      0.66      0.00
    3   11   13      0.59      0.00
    4   11   13     -0.29      0.00
    5   11   13      0.28      0.00
    6   11   13      0.52      0.00
    7   11   13     -1.03      0.00
    8   11   13     -0.16      0.00
    9   11   13      0.61      0.00
   10   11   13      1.01      0.00
   11   11   13      0.49      0.00
   -8   12   13      0.08      0.00
   -7   12   13      0.04      0.00
   -6   12   13      0.79      0.00
   -5   12   13      0.42      0.00
   -4   12   13      1.33      0.00
   -3   12   13      0.05      0.00
   -2   12   13      0.64      0.00
   -1   12   13      0.61      0.00
    0   12   13     -0.57      0.00
    1   12   13      0.19      0.00
    2   12   13     -0.64      0.00
    3   12   13     -0.67      0.00
    4   12   13      0.65      0.00
    5   12   13     -0.03      0.00
    6   12   13     -1.49      0.00
    7   12   13      0.92      0.00
    8   12   13      0.44      0.00
    9   12   13     -1.52      0.00
   10   12   13     -1.99      0.00
   -8   13   13      0.23      0.00
   -7   13   13     -0.34      0.00
   -6   13   13     -1.06      0.00
   -5   13   13      0.42      0.00
   -4   13   13     -0.19      0.00
   -3   13   13      0.39      0.00
   -2   13   13     -0.50      0.00
   -1   13   13     -0.51      0.00
    0   13   13      0.12      0.00
    1   13   13     -0.05      0.00
    2   13   13      0.80      0.00
    3   13   13      0.45      0.00
    4   13   13     -0.14      0.00
    5   13   13     -1.15      0.00
    6   13   13      2.33      0.00
    7   13   13     -0.25      0.00
    8   13   13     -0.10      0.00
    9   13   13      2.33      0.00
   -6   14   13      2.36      0.00
   -5   14   13     -0.49      0.00
   -4   14   13      0.53      0.00
   -3   14   13     -0.56      0.00
   -2   14   13      0.51      0.00
   -1   14   13      0.19      0.00
    0   14   13      0.10      0.00
    1   14   13     -0.13      0.00
    2   14   13     -0.69      0.00
    3   14   13      0.64      0.00
    4   14   13     -0.90      0.00
    5   14   13      2.34      0.00
    6   14   13     -2.41      0.00
    7   14   13     -0.81      0.00
    8   14   13     -0.27      0.00
    9   14   13     -2.56      0.00
   -5   15   13      1.15      0.00
   -4   15   13     -0.25      0.00
   -3   15   13      1.02      0.00
   -2   15   13      0.07      0.00
   -1   15   13     -0.27      0.00
    0   15   13     -0.43      0.00
    1   15   13      0.42      0.00
    2   15   13      0.75      0.00
    3   15   13     -1.21      0.00
    4   15   13      2.44      0.00
    5   15   13     -1.96      0.00
    6   15   13      1.41      0.00
    7   15   13      1.23      0.00
    8   15   13      0.90      0.00
   -4   16   13      0.71      0.00
   -3   16   13      0.14      0.00
   -2   16   13     -0.17      0.00
   -1   16   13      0.52      0.00
    0   16   13      0.54      0.00
    1   16   13     -0.02      0.00
    2   16   13     -0.19      0.00
    3   16   13      2.55      0.00
    4   16   13     -2.34      0.00
    5   16   13      0.84      0.00
    6   16   13      0.02      0.00
    7   16   13      0.58      0.00
    8   16   13     -0.90      0.00
   -3   17   13     -0.63      0.00
   -2   17   13      0.27      0.00
   -1   17   13     -0.85      0.00
    0   17   13     -0.72      0.00
    1   17   13     -2.23      0.00
    2   17   13      0.41      0.00
    3   17   13     -2.51      0.00
    4   17   13      2.48      0.00
    5   17   13      1.04      0.00
    6   17   13      0.00      0.00
    7   17   13     -2.75      0.00
    8   17   13      1.03      0.00
   -3   18   13      1.34      0.00
   -2   18   13      0.07      0.00
   -1   18   13      0.90      0.00
    0   18   13     -0.24      0.00
    1   18   13      5.49      0.00
    2   18   13      0.09      0.00
    3   18   13      3.23      0.00
    4   18   13     -0.30      0.00
    5   18   13     -0.59      0.00
    6   18   13      0.18      0.00
   -3   19   13     -1.10      0.00
   -2   19   13     -0.04      0.00
   -1   19   13     -1.24      0.00
    0   19   13      0.63      0.00
    1   19   13     -7.77      0.00
    2   19   13     -0.75      0.00
    3   19   13     -1.76      0.00
    0   20   13     -1.27      0.00
    1   20   13      5.94      0.00
    2   20   13      1.31      0.00
   -2   -7   14     -0.73      0.00
   -1   -7   14     -0.38      0.00
    0   -7   14      0.55      0.00
    1   -7   14     -0.58      0.00
    2   -7   14      0.44      0.00
    3   -7   14     -0.77      0.00
    4   -7   14      0.65      0.00
    5   -7   14      0.54      0.00
   -3   -6   14      0.88      0.00
   -2   -6   14      0.70      0.00
   -1   -6   14      1.60      0.00
    0   -6   14     -0.69      0.00
    1   -6   14      1.33      0.00
    2   -6   14     -0.32      0.00
    3   -6   14      1.53      0.00
    4   -6   14     -0.80      0.00
    5   -6   14     -0.47      0.00
    6   -6   14     -0.62      0.00
   -4   -5   14      0.56      0.00
   -3   -5   14     -1.00      0.00
   -2   -5   14      0.26      0.00
   -1   -5   14     -1.49      0.00
    0   -5   14      1.45      0.00
    1   -5   14     -1.29      0.00
    2   -5   14      0.33      0.00
    3   -5   14     -2.35      0.00
    4   -5   14      0.47      0.00
    5   -5   14      0.01      0.00
    6   -5   14      1.25      0.00
    7   -5   14     -1.57      0.00
   -5   -4   14     -0.28      0.00
   -4   -4   14     -0.73      0.00
   -3   -4   14      0.95      0.00
   -2   -4   14     -0.57      0.00
   -1   -4   14      1.67      0.00
    0   -4   14     -0.73      0.00
    1   -4   14      1.27      0.00
    2   -4   14     -0.53      0.00
    3   -4   14      2.33      0.00
    4   -4   14     -0.16      0.00
    5   -4   14      0.15      0.00
    6   -4   14     -1.15      0.00
    7   -4   14      1.26      0.00
    8   -4   14     -0.40      0.00
   -6   -3   14     -1.30      0.00
   -5   -3   14     -0.20      0.00
   -4   -3   14      0.22      0.00
   -3   -3   14     -1.00      0.00
   -2   -3   14      0.43      0.00
   -1   -3   14     -1.10      0.00
    0   -3   14     -0.01      0.00
    1   -3   14     -0.91      0.00
    2   -3   14      0.41      0.00
    3   -3   14     -2.10      0.00
    4   -3   14     -0.62      0.00
    5   -3   14     -0.34      0.00
    6   -3   14      0.00      0.00
    7   -3   14     -0.64      0.00
    8   -3   14     -0.72      0.00
    9   -3   14      0.74      0.00
   -6   -2   14      1.44      0.00
   -5   -2   14      0.15      0.00
   -4   -2   14     -0.45      0.00
   -3   -2   14      0.21      0.00
   -2   -2   14      0.13      0.00
   -1   -2   14      0.55      0.00
    0   -2   14      0.71      0.00
    1   -2   14      0.43      0.00
    2   -2   14     -0.39      0.00
    3   -2   14      0.94      0.00
    4   -2   14      0.18      0.00
    5   -2   14     -0.32      0.00
    6   -2   14      0.15      0.00
    7   -2   14     -0.68      0.00
    8   -2   14      0.50      0.00
    9   -2   14      0.13      0.00
   -7   -1   14     -1.43      0.00
   -6   -1   14     -1.84      0.00
   -5   -1   14     -0.26      0.00
   -4   -1   14      0.41      0.00
   -3   -1   14      0.40      0.00
   -2   -1   14     -1.05      0.00
   -1   -1   14      0.12      0.00
    0   -1   14     -0.57      0.00
    1   -1   14     -0.04      0.00
    2   -1   14      0.11      0.00
    3   -1   14     -0.56      0.00
    4   -1   14      0.20      0.00
    5   -1   14      0.13      0.00
    6   -1   14     -0.40      0.00
    7   -1   14      0.36      0.00
    8   -1   14     -0.92      0.00
    9   -1   14     -0.97      0.00
   10   -1   14      0.79      0.00
   -7    0   14      0.83      0.00
   -6    0   14      1.50      0.00
   -5    0   14      0.09      0.00
   -4    0   14     -0.91      0.00
   -3    0   14     -1.24      0.00
   -2    0   14      1.39      0.00
   -1    0   14     -0.59      0.00
    0    0   14     -0.08      0.00
    1    0   14     -0.17      0.00
    2    0   14     -0.41      0.00
    3    0   14      0.17      0.00
    4    0   14     -0.76      0.00
    5    0   14     -0.57      0.00
    6    0   14     -0.74      0.00
    7    0   14     -0.79      0.00
    8    0   14      0.31      0.00
    9    0   14      0.03      0.00
   10    0   14     -0.34      0.00
   -8    1   14      0.58      0.00
   -7    1   14     -0.63      0.00
   -6    1   14     -0.90      0.00
   -5    1   14     -0.58      0.00
   -4    1   14      0.59      0.00
   -3    1   14      1.09      0.00
   -2    1   14     -1.46      0.00
   -1    1   14      0.51      0.00
    0    1   14      0.66      0.00
    1    1   14     -0.16      0.00
    2    1   14      0.36      0.00
    3    1   14     -0.08      0.00
    4    1   14     -0.02      0.00
    5    1   14      0.35      0.00
    6    1   14      0.72      0.00
    7    1   14     -0.18      0.00
    8    1   14     -1.50      0.00
    9    1   14     -0.27      0.00
   10    1   14     -0.36      0.00
   -8    2   14     -0.24      0.00
   -7    2   14      0.14      0.00
   -6    2   14     -0.08      0.00
   -5    2   14      0.48      0.00
   -4    2   14     -0.09      0.00
   -3    2   14     -0.76      0.00
   -2    2   14      1.01      0.00
   -1    2   14     -0.15      0.00
    0    2   14     -1.00      0.00
    1    2   14      0.33      0.00
    2    2   14     -0.22      0.00
    3    2   14     -0.44      0.00
    4    2   14      0.79      0.00
    5    2   14     -0.17      0.00
    6    2   14     -0.93      0.00
    7    2   14     -0.44      0.00
    8    2   14      1.07      0.00
    9    2   14     -0.44      0.00
   10    2   14     -0.15      0.00
   11    2   14     -0.07      0.00
   -9    3   14     -1.78      0.00
   -8    3   14     -0.75      0.00
   -7    3   14     -0.89      0.00
   -6    3   14     -0.54      0.00
   -5    3   14     -0.12      0.00
   -4    3   14     -0.39      0.00
   -3    3   14      0.45      0.00
   -2    3   14     -0.31      0.00
   -1    3   14     -0.03      0.00
    0    3   14      0.94      0.00
    1    3   14     -0.61      0.00
    2    3   14     -0.46      0.00
    3    3   14      0.32      0.00
    4    3   14     -0.86      0.00
    5    3   14     -0.14      0.00
    6    3   14      0.40      0.00
    7    3   14      0.42      0.00
    8    3   14     -1.48      0.00
    9    3   14     -0.49      0.00
   10    3   14     -0.36      0.00
   11    3   14     -0.48      0.00
   -9    4   14      1.71      0.00
   -8    4   14      0.06      0.00
   -7    4   14      0.09      0.00
   -6    4   14      0.82      0.00
   -5    4   14     -0.94      0.00
   -4    4   14     -0.24      0.00
   -3    4   14     -0.62      0.00
   -2    4   14     -0.14      0.00
   -1    4   14      0.07      0.00
    0    4   14     -0.43      0.00
    1    4   14      0.67      0.00
    2    4   14      0.53      0.00
    3    4   14      0.16      0.00
    4    4   14      0.44      0.00
    5    4   14      0.22      0.00
    6    4   14     -0.06      0.00
    7    4   14     -0.61      0.00
    8    4   14      0.28      0.00
    9    4   14     -0.24      0.00
   10    4   14     -0.56      0.00
   11    4   14     -0.44      0.00
   -9    5   14     -2.03      0.00
   -8    5   14      0.15      0.00
   -7    5   14      0.34      0.00
   -6    5   14     -1.14      0.00
   -5    5   14      0.97      0.00
   -4    5   14      0.64      0.00
   -3    5   14      0.58      0.00
   -2    5   14     -0.01      0.00
   -1    5   14      0.07      0.00
    0    5   14     -0.37      0.00
    1    5   14     -1.05      0.00
    2    5   14     -0.60      0.00
    3    5   14     -0.74      0.00
    4    5   14     -0.14      0.00
    5    5   14      0.36      0.00
    6    5   14      0.57      0.00
    7    5   14     -0.21      0.00
    8    5   14     -0.28      0.00
    9    5   14     -0.23      0.00
   10    5   14      0.24      0.00
   11    5   14      0.48      0.00
   -9    6   14      1.00      0.00
   -8    6   14     -0.94      0.00
   -7    6   14     -0.90      0.00
   -6    6   14      0.39      0.00
   -5    6   14     -1.04      0.00
   -4    6   14     -0.99      0.00
   -3    6   14     -0.69      0.00
   -2    6   14      0.20      0.00
   -1    6   14     -0.27      0.00
    0    6   14      0.61      0.00
    1    6   14      0.68      0.00
    2    6   14     -0.19      0.00
    3    6   14      0.19      0.00
    4    6   14      0.19      0.00
    5    6   14     -0.14      0.00
    6    6   14     -0.74      0.00
    7    6   14      1.13      0.00
    8    6   14      0.31      0.00
    9    6   14     -0.42      0.00
   10    6   14     -0.93      0.00
   11    6   14     -1.71      0.00
   -9    7   14      0.90      0.00
   -8    7   14      1.39      0.00
   -7    7   14      0.58      0.00
   -6    7   14      0.16      0.00
   -5    7   14      0.92      0.00
   -4    7   14      0.59      0.00
   -3    7   14      0.26      0.00
   -2    7   14     -0.43      0.00
   -1    7   14      0.18      0.00
    0    7   14     -0.63      0.00
    1    7   14     -0.70      0.00
    2    7   14     -0.07      0.00
    3    7   14     -0.21      0.00
    4    7   14     -0.45      0.00
    5    7   14     -0.15      0.00
    6    7   14      0.76      0.00
    7    7   14     -0.99      0.00
    8    7   14     -0.70      0.00
    9    7   14     -0.15      0.00
   10    7   14     -0.71      0.00
   11    7   14      1.35      0.00
   12    7   14     -3.87      0.00
   -9    8   14     -2.14      0.00
   -8    8   14     -1.26      0.00
   -7    8   14      0.36      0.00
   -6    8   14     -0.33      0.00
   -5    8   14     -0.96      0.00
   -4    8   14     -0.42      0.00
   -3    8   14     -0.49      0.00
   -2    8   14      0.08      0.00
   -1    8   14     -0.47      0.00
    0    8   14      0.01      0.00
    1    8   14      0.06      0.00
    2    8   14     -0.33      0.00
    3    8   14     -0.07      0.00
    4    8   14      0.27      0.00
    5    8   14      0.62      0.00
    6    8   14      0.41      0.00
    7    8   14      0.83      0.00
    8    8   14      0.06      0.00
    9    8   14     -0.12      0.00
   10    8   14      1.52      0.00
   11    8   14     -1.78      0.00
   12    8   14      2.73      0.00
   -8    9   14      0.61      0.00
   -7    9   14     -1.21      0.00
   -6    9   14      0.52      0.00
   -5    9   14      0.98      0.00
   -4    9   14     -0.35      0.00
   -3    9   14      0.78      0.00
   -2    9   14     -0.31      0.00
   -1    9   14      0.48      0.00
    0    9   14     -0.01      0.00
    1    9   14     -0.51      0.00
    2    9   14     -0.26      0.00
    3    9   14     -0.81      0.00
    4    9   14     -0.40      0.00
    5    9   14     -0.58      0.00
    6    9   14     -0.58      0.00
    7    9   14     -0.54      0.00
    8    9   14      0.92      0.00
    9    9   14      0.10      0.00
   10    9   14     -2.48      0.00
   11    9   14      0.45      0.00
   12    9   14     -1.71      0.00
   -8   10   14     -0.57      0.00
   -7   10   14      0.99      0.00
   -6   10   14     -0.83      0.00
   -5   10   14     -1.01      0.00
   -4   10   14      1.48      0.00
   -3   10   14     -1.26      0.00
   -2   10   14      0.46      0.00
   -1   10   14     -0.52      0.00
    0   10   14     -0.25      0.00
    1   10   14      0.59      0.00
    2   10   14     -0.19      0.00
    3   10   14      0.50      0.00
    4   10   14      0.17      0.00
    5   10   14      0.56      0.00
    6   10   14      0.54      0.00
    7   10   14      1.11      0.00
    8   10   14     -0.64      0.00
    9   10   14     -0.41      0.00
   10   10   14      1.26      0.00
   11   10   14     -0.13      0.00
   12   10   14      0.12      0.00
   -8   11   14      0.07      0.00
   -7   11   14     -0.87      0.00
   -6   11   14      0.44      0.00
   -5   11   14      0.50      0.00
   -4   11   14     -2.46      0.00
   -3   11   14      0.98      0.00
   -2   11   14     -0.58      0.00
   -1   11   14      0.08      0.00
    0   11   14      0.35      0.00
    1   11   14     -1.02      0.00
    2   11   14      0.05      0.00
    3   11   14     -0.27      0.00
    4   11   14     -0.46      0.00
    5   11   14     -0.51      0.00
    6   11   14      0.24      0.00
    7   11   14     -0.99      0.00
    8   11   14     -0.45      0.00
    9   11   14      0.54      0.00
   10   11   14      0.53      0.00
   -8   12   14     -0.55      0.00
   -7   12   14      0.11      0.00
   -6   12   14     -0.52      0.00
   -5   12   14     -0.37      0.00
   -4   12   14      1.66      0.00
   -3   12   14     -0.91      0.00
   -2   12   14      0.32      0.00
   -1   12   14      0.40      0.00
    0   12   14     -0.37      0.00
    1   12   14      0.91      0.00
    2   12   14     -0.25      0.00
    3   12   14     -0.49      0.00
    4   12   14      0.64      0.00
    5   12   14      0.97      0.00
    6   12   14     -0.79      0.00
    7   12   14      0.90      0.00
    8   12   14      1.52      0.00
    9   12   14     -0.64      0.00
   -7   13   14     -0.64      0.00
   -6   13   14     -0.62      0.00
   -5   13   14     -0.44      0.00
   -4   13   14     -0.87      0.00
   -3   13   14      0.75      0.00
   -2   13   14     -0.38      0.00
   -1   13   14     -0.59      0.00
    0   13   14      0.33      0.00
    1   13   14     -0.56      0.00
    2   13   14      0.23      0.00
    3   13   14      0.47      0.00
    4   13   14     -0.46      0.00
    5   13   14     -1.82      0.00
    6   13   14      1.72      0.00
    7   13   14     -0.22      0.00
    8   13   14     -1.47      0.00
    9   13   14      1.42      0.00
   -6   14   14      1.30      0.00
   -5   14   14     -0.01      0.00
   -4   14   14     -0.32      0.00
   -3   14   14     -1.26      0.00
   -2   14   14      0.30      0.00
   -1   14   14      0.75      0.00
    0   14   14     -0.02      0.00
    1   14   14      0.12      0.00
    2   14   14     -0.30      0.00
    3   14   14     -0.14      0.00
    4   14   14     -0.59      0.00
    5   14   14      2.52      0.00
    6   14   14     -2.13      0.00
    7   14   14     -0.92      0.00
    8   14   14      0.61      0.00
   -5   15   14     -0.37      0.00
   -4   15   14     -0.08      0.00
   -3   15   14      0.36      0.00
   -2   15   14     -0.33      0.00
   -1   15   14     -0.76      0.00
    0   15   14      0.05      0.00
    1   15   14      0.54      0.00
    2   15   14      0.05      0.00
    3   15   14     -0.60      0.00
    4   15   14      1.77      0.00
    5   15   14     -1.99      0.00
    6   15   14      1.60      0.00
    7   15   14      1.32      0.00
   -4   16   14     -0.39      0.00
   -3   16   14      0.19      0.00
   -2   16   14     -0.23      0.00
   -1   16   14      0.67      0.00
    0   16   14      0.24      0.00
    1   16   14     -0.20      0.00
    2   16   14      0.30      0.00
    3   16   14      1.17      0.00
    4   16   14     -2.72      0.00
    5   16   14      0.24      0.00
    6   16   14     -1.10      0.00
    7   16   14     -0.68      0.00
   -3   17   14     -1.24      0.00
   -2   17   14      0.15      0.00
   -1   17   14     -0.52      0.00
    0   17   14      0.07      0.00
    1   17   14     -1.63      0.00
    2   17   14     -0.75      0.00
    3   17   14     -2.50      0.00
    4   17   14      1.94      0.00
    5   17   14      0.72      0.00
    6   17   14      0.84      0.00
    7   17   14     -1.38      0.00
   -2   18   14     -0.40      0.00
   -1   18   14      0.69      0.00
    0   18   14     -0.46      0.00
    1   18   14      4.66      0.00
    2   18   14      0.82      0.00
    3   18   14      2.51      0.00
    4   18   14     -1.20      0.00
   -1   19   14     -0.73      0.00
    0   19   14      1.43      0.00
    1   19   14     -5.75      0.00
    2   19   14     -1.18      0.00
    3   19   14     -2.11      0.00
   -1   -6   15      1.08      0.00
    0   -6   15     -0.88      0.00
    1   -6   15      0.86      0.00
    2   -6   15     -0.06      0.00
    3   -6   15      1.57      0.00
    4   -6   15     -0.50      0.00
   -2   -5   15     -0.28      0.00
   -1   -5   15     -2.10      0.00
    0   -5   15      0.85      0.00
    1   -5   15     -1.11      0.00
    2   -5   15     -0.41      0.00
    3   -5   15     -2.12      0.00
    4   -5   15      0.14      0.00
    5   -5   15      0.02      0.00
   -4   -4   15     -0.53      0.00
   -3   -4   15      0.85      0.00
   -2   -4   15     -0.33      0.00
   -1   -4   15      1.85      0.00
    0   -4   15     -0.84      0.00
    1   -4   15      0.90      0.00
    2   -4   15      0.39      0.00
    3   -4   15      2.41      0.00
    4   -4   15      0.71      0.00
    5   -4   15     -0.03      0.00
    6   -4   15     -1.24      0.00
    7   -4   15      0.70      0.00
   -5   -3   15      0.43      0.00
   -4   -3   15      0.30      0.00
   -3   -3   15     -0.97      0.00
   -2   -3   15      0.27      0.00
   -1   -3   15     -1.61      0.00
    0   -3   15     -0.05      0.00
    1   -3   15     -0.94      0.00
    2   -3   15      0.00      0.00
    3   -3   15     -1.89      0.00
    4   -3   15     -1.12      0.00
    5   -3   15      0.54      0.00
    6   -3   15      0.58      0.00
    7   -3   15      0.21      0.00
   -5   -2   15      0.16      0.00
   -4   -2   15      0.60      0.00
   -3   -2   15      0.91      0.00
   -2   -2   15      0.45      0.00
   -1   -2   15      0.72      0.00
    0   -2   15      0.30      0.00
    1   -2   15      0.52      0.00
    2   -2   15     -0.26      0.00
    3   -2   15      1.14      0.00
    4   -2   15      0.84      0.00
    5   -2   15     -0.74      0.00
    6   -2   15      0.43      0.00
    7   -2   15     -0.56      0.00
    8   -2   15     -0.74      0.00
   -6   -1   15     -2.08      0.00
   -5   -1   15     -0.07      0.00
   -4   -1   15     -0.30      0.00
   -3   -1   15      0.49      0.00
   -2   -1   15     -1.02      0.00
   -1   -1   15      0.27      0.00
    0   -1   15     -0.22      0.00
    1   -1   15      0.05      0.00
    2   -1   15      0.43      0.00
    3   -1   15     -0.21      0.00
    4   -1   15      0.55      0.00
    5   -1   15      1.16      0.00
    6   -1   15      0.05      0.00
    7   -1   15      1.32      0.00
    8   -1   15      1.12      0.00
    9   -1   15     -0.04      0.00
   -6    0   15      1.96      0.00
   -5    0   15      0.56      0.00
   -4    0   15      0.19      0.00
   -3    0   15     -1.16      0.00
   -2    0   15      1.70      0.00
   -1    0   15     -0.67      0.00
    0    0   15      0.05      0.00
    1    0   15     -0.23      0.00
    2    0   15     -0.27      0.00
    3    0   15     -0.12      0.00
    4    0   15     -0.97      0.00
    5    0   15     -0.78      0.00
    6    0   15     -0.16      0.00
    7    0   15     -0.27      0.00
    8    0   15      0.24      0.00
    9    0   15      0.61      0.00
   -6    1   15     -1.05      0.00
   -5    1   15     -0.84      0.00
   -4    1   15      0.37      0.00
   -3    1   15      1.59      0.00
   -2    1   15     -1.28      0.00
   -1    1   15      0.69      0.00
    0    1   15      0.24      0.00
    1    1   15      0.26      0.00
    2    1   15      0.38      0.00
    3    1   15      0.87      0.00
    4    1   15      0.39      0.00
    5    1   15      0.96      0.00
    6    1   15      1.29      0.00
    7    1   15      0.50      0.00
    8    1   15     -0.15      0.00
    9    1   15      0.14      0.00
   10    1   15     -1.12      0.00
   -7    2   15     -0.79      0.00
   -6    2   15      0.83      0.00
   -5    2   15      0.92      0.00
   -4    2   15     -0.21      0.00
   -3    2   15     -0.95      0.00
   -2    2   15      0.55      0.00
   -1    2   15     -0.13      0.00
    0    2   15     -0.32      0.00
    1    2   15      0.07      0.00
    2    2   15     -0.03      0.00
    3    2   15     -1.32      0.00
    4    2   15      1.03      0.00
    5    2   15     -0.40      0.00
    6    2   15     -0.96      0.00
    7    2   15      0.48      0.00
    8    2   15      1.38      0.00
    9    2   15      0.99      0.00
   10    2   15      1.71      0.00
   -8    3   15     -0.17      0.00
   -7    3   15      0.90      0.00
   -6    3   15     -1.23      0.00
   -5    3   15      0.12      0.00
   -4    3   15      0.36      0.00
   -3    3   15      0.48      0.00
   -2    3   15      0.47      0.00
   -1    3   15     -0.18      0.00
    0    3   15      0.61      0.00
    1    3   15      0.05      0.00
    2    3   15      0.00      0.00
    3    3   15      1.30      0.00
    4    3   15     -1.56      0.00
    5    3   15     -0.08      0.00
    6    3   15      0.74      0.00
    7    3   15      0.34      0.00
    8    3   15      0.05      0.00
    9    3   15     -0.31      0.00
   10    3   15     -0.89      0.00
   -8    4   15      0.64      0.00
   -7    4   15     -0.33      0.00
   -6    4   15      2.61      0.00
   -5    4   15     -0.77      0.00
   -4    4   15     -0.64      0.00
   -3    4   15     -0.34      0.00
   -2    4   15     -1.02      0.00
   -1    4   15      0.11      0.00
    0    4   15     -0.46      0.00
    1    4   15      0.27      0.00
    2    4   15      0.26      0.00
    3    4   15     -0.34      0.00
    4    4   15      1.00      0.00
    5    4   15      0.12      0.00
    6    4   15     -0.16      0.00
    7    4   15     -0.08      0.00
    8    4   15     -0.15      0.00
    9    4   15      1.24      0.00
   10    4   15      1.54      0.00
   11    4   15      0.85      0.00
   -8    5   15      0.25      0.00
   -7    5   15      1.13      0.00
   -6    5   15     -2.23      0.00
   -5    5   15      1.13      0.00
   -4    5   15      1.03      0.00
   -3    5   15      0.50      0.00
   -2    5   15      0.68      0.00
   -1    5   15      0.15      0.00
    0    5   15      0.08      0.00
    1    5   15     -0.34      0.00
    2    5   15      0.26      0.00
    3    5   15     -0.12      0.00
    4    5   15     -0.31      0.00
    5    5   15     -0.16      0.00
    6    5   15      0.09      0.00
    7    5   15     -0.09      0.00
    8    5   15      0.87      0.00
    9    5   15     -0.04      0.00
   10    5   15     -0.36      0.00
   11    5   15      0.71      0.00
   -9    6   15      0.70      0.00
   -8    6   15     -0.93      0.00
   -7    6   15     -1.28      0.00
   -6    6   15      1.25      0.00
   -5    6   15     -0.49      0.00
   -4    6   15     -0.59      0.00
   -3    6   15     -0.46      0.00
   -2    6   15     -0.10      0.00
   -1    6   15     -0.47      0.00
    0    6   15      0.47      0.00
    1    6   15      0.88      0.00
    2    6   15     -0.14      0.00
    3    6   15      0.18      0.00
    4    6   15     -0.13      0.00
    5    6   15     -0.16      0.00
    6    6   15     -0.84      0.00
    7    6   15      0.48      0.00
    8    6   15      0.54      0.00
    9    6   15      0.24      0.00
   10    6   15      1.11      0.00
   11    6   15     -0.89      0.00
   -9    7   15      0.80      0.00
   -8    7   15      1.60      0.00
   -7    7   15      1.00      0.00
   -6    7   15      0.10      0.00
   -5    7   15      0.31      0.00
   -4    7   15      0.36      0.00
   -3    7   15      0.33      0.00
   -2    7   15     -0.26      0.00
   -1    7   15      0.53      0.00
    0    7   15     -0.34      0.00
    1    7   15     -0.44      0.00
    2    7   15      0.64      0.00
    3    7   15      0.56      0.00
    4    7   15      0.09      0.00
    5    7   15     -0.34      0.00
    6    7   15      0.40      0.00
    7    7   15     -0.60      0.00
    8    7   15     -1.40      0.00
    9    7   15      0.82      0.00
   10    7   15     -0.79      0.00
   11    7   15      2.19      0.00
   -8    8   15     -1.55      0.00
   -7    8   15      0.36      0.00
   -6    8   15     -0.56      0.00
   -5    8   15     -0.24      0.00
   -4    8   15     -0.20      0.00
   -3    8   15     -0.19      0.00
   -2    8   15      0.40      0.00
   -1    8   15     -0.40      0.00
    0    8   15      0.15      0.00
    1    8   15      0.39      0.00
    2    8   15     -0.02      0.00
    3    8   15      0.06      0.00
    4    8   15      0.37      0.00
    5    8   15      0.30      0.00
    6    8   15     -0.06      0.00
    7    8   15      0.28      0.00
    8    8   15      1.22      0.00
    9    8   15     -0.79      0.00
   10    8   15      2.25      0.00
   11    8   15     -1.14      0.00
   -8    9   15      0.97      0.00
   -7    9   15     -1.89      0.00
   -6    9   15      0.56      0.00
   -5    9   15      0.62      0.00
   -4    9   15      0.07      0.00
   -3    9   15      0.58      0.00
   -2    9   15     -0.58      0.00
   -1    9   15      0.27      0.00
    0    9   15      0.30      0.00
    1    9   15      0.18      0.00
    2    9   15      0.41      0.00
    3    9   15     -0.41      0.00
    4    9   15     -0.52      0.00
    5    9   15     -0.52      0.00
    6    9   15     -0.80      0.00
    7    9   15     -0.96      0.00
    8    9   15     -0.09      0.00
    9    9   15      1.42      0.00
   10    9   15     -2.14      0.00
   11    9   15      0.63      0.00
   -8   10   15     -0.31      0.00
   -7   10   15      2.59      0.00
   -6   10   15     -0.34      0.00
   -5   10   15     -0.86      0.00
   -4   10   15      0.96      0.00
   -3   10   15     -0.65      0.00
   -2   10   15      0.76      0.00
   -1   10   15     -0.05      0.00
    0   10   15     -0.41      0.00
    1   10   15      0.40      0.00
    2   10   15     -0.11      0.00
    3   10   15      1.25      0.00
    4   10   15      0.73      0.00
    5   10   15      0.47      0.00
    6   10   15      0.44      0.00
    7   10   15      1.06      0.00
    8   10   15     -0.32      0.00
    9   10   15     -1.33      0.00
   10   10   15      1.93      0.00
   11   10   15      0.77      0.00
   -7   11   15     -1.73      0.00
   -6   11   15      0.57      0.00
   -5   11   15      0.98      0.00
   -4   11   15     -1.53      0.00
   -3   11   15      0.45      0.00
   -2   11   15     -0.37      0.00
   -1   11   15     -0.22      0.00
    0   11   15      0.59      0.00
    1   11   15     -0.94      0.00
    2   11   15      0.36      0.00
    3   11   15     -0.70      0.00
    4   11   15     -0.68      0.00
    5   11   15     -0.80      0.00
    6   11   15     -0.48      0.00
    7   11   15     -1.04      0.00
    8   11   15     -0.88      0.00
    9   11   15      0.79      0.00
   -7   12   15      1.08      0.00
   -6   12   15     -0.40      0.00
   -5   12   15      0.05      0.00
   -4   12   15      1.46      0.00
   -3   12   15      0.13      0.00
   -2   12   15     -0.10      0.00
   -1   12   15      0.48      0.00
    0   12   15     -0.61      0.00
    1   12   15      1.48      0.00
    2   12   15      0.20      0.00
    3   12   15      0.19      0.00
    4   12   15      0.89      0.00
    5   12   15      1.17      0.00
    6   12   15     -0.09      0.00
    7   12   15      0.23      0.00
    8   12   15      1.98      0.00
    9   12   15     -0.07      0.00
   -6   13   15      0.57      0.00
   -5   13   15     -0.62      0.00
   -4   13   15     -0.11      0.00
   -3   13   15      0.17      0.00
   -2   13   15      0.15      0.00
   -1   13   15     -1.01      0.00
    0   13   15      0.18      0.00
    1   13   15     -1.31      0.00
    2   13   15     -0.66      0.00
    3   13   15      0.29      0.00
    4   13   15     -0.75      0.00
    5   13   15     -1.96      0.00
    6   13   15      0.76      0.00
    7   13   15      0.33      0.00
    8   13   15     -2.26      0.00
   -5   14   15      1.40      0.00
   -4   14   15     -0.25      0.00
   -3   14   15     -0.13      0.00
   -2   14   15      0.45      0.00
   -1   14   15      1.46      0.00
    0   14   15      0.06      0.00
    1   14   15      0.16      0.00
    2   14   15      0.86      0.00
    3   14   15     -0.36      0.00
    4   14   15     -0.09      0.00
    5   14   15      2.14      0.00
    6   14   15     -1.52      0.00
    7   14   15     -0.92      0.00
   -4   15   15      0.79      0.00
   -3   15   15      0.10      0.00
   -2   15   15     -0.71      0.00
   -1   15   15     -1.79      0.00
    0   15   15     -0.65      0.00
    1   15   15      0.90      0.00
    2   15   15     -1.11      0.00
    3   15   15      0.19      0.00
    4   15   15      1.19      0.00
    5   15   15     -1.31      0.00
    6   15   15      1.57      0.00
    7   15   15      1.56      0.00
   -3   16   15      1.00      0.00
   -2   16   15      0.84      0.00
   -1   16   15      1.29      0.00
    0   16   15      0.54      0.00
    1   16   15     -1.53      0.00
    2   16   15      1.18      0.00
    3   16   15      0.33      0.00
    4   16   15     -1.88      0.00
    5   16   15     -0.19      0.00
   -2   17   15     -0.25      0.00
   -1   17   15     -0.59      0.00
    0   17   15     -0.37      0.00
    1   17   15      0.04      0.00
    2   17   15     -1.33      0.00
    3   17   15     -1.26      0.00
    4   17   15      1.82      0.00
    0   18   15     -0.73      0.00
    1   18   15      1.86      0.00
    2   18   15      1.13      0.00
    3   18   15      2.09      0.00
   -1   -4   16      1.82      0.00
    0   -4   16     -0.09      0.00
    1   -4   16      0.14      0.00
    2   -4   16      1.04      0.00
    3   -4   16      1.58      0.00
    4   -4   16      1.34      0.00
    5   -4   16     -0.26      0.00
   -3   -3   16     -1.21      0.00
   -2   -3   16      0.58      0.00
   -1   -3   16     -1.41      0.00
    0   -3   16      0.18      0.00
    1   -3   16      0.07      0.00
    2   -3   16     -0.11      0.00
    3   -3   16     -0.99      0.00
    4   -3   16     -1.73      0.00
    5   -3   16      0.80      0.00
    6   -3   16      0.23      0.00
   -4   -2   16      0.49      0.00
   -3   -2   16      1.09      0.00
   -2   -2   16     -0.34      0.00
   -1   -2   16      0.83      0.00
    0   -2   16     -0.15      0.00
    1   -2   16     -0.05      0.00
    2   -2   16     -0.58      0.00
    3   -2   16      0.16      0.00
    4   -2   16      1.13      0.00
    5   -2   16     -1.35      0.00
    6   -2   16      0.48      0.00
    7   -2   16     -0.75      0.00
   -5   -1   16     -0.36      0.00
   -4   -1   16     -1.37      0.00
   -3   -1   16     -0.65      0.00
   -2   -1   16     -0.58      0.00
   -1   -1   16      0.01      0.00
    0   -1   16      0.48      0.00
    1   -1   16      0.43      0.00
    2   -1   16      0.70      0.00
    3   -1   16      0.39      0.00
    4   -1   16      0.24      0.00
    5   -1   16      1.34      0.00
    6   -1   16     -1.08      0.00
    7   -1   16      0.60      0.00
    8   -1   16      1.47      0.00
   -5    0   16      0.62      0.00
   -4    0   16      0.89      0.00
   -3    0   16     -0.80      0.00
   -2    0   16      0.87      0.00
   -1    0   16     -0.62      0.00
    0    0   16     -0.45      0.00
    1    0   16     -0.56      0.00
    2    0   16     -0.32      0.00
    3    0   16     -0.65      0.00
    4    0   16     -1.24      0.00
    5    0   16     -1.41      0.00
    6    0   16      0.26      0.00
    7    0   16     -1.11      0.00
    8    0   16     -1.43      0.00
    9    0   16     -0.31      0.00
   10    0   16      1.13      0.00
   -5    1   16     -1.43      0.00
   -4    1   16     -0.71      0.00
   -3    1   16      1.02      0.00
   -2    1   16     -0.95      0.00
   -1    1   16      0.37      0.00
    0    1   16      0.02      0.00
    1    1   16      0.35      0.00
    2    1   16     -0.16      0.00
    3    1   16      1.02      0.00
    4    1   16      0.62      0.00
    5    1   16      0.87      0.00
    6    1   16     -0.02      0.00
    7    1   16     -0.07      0.00
    8    1   16     -0.28      0.00
    9    1   16     -0.58      0.00
   10    1   16     -1.94      0.00
   -6    2   16      0.32      0.00
   -5    2   16      1.40      0.00
   -4    2   16      0.11      0.00
   -3    2   16     -0.97      0.00
   -2    2   16     -0.12      0.00
   -1    2   16     -0.07      0.00
    0    2   16      0.08      0.00
    1    2   16     -0.37      0.00
    2    2   16      0.17      0.00
    3    2   16     -1.70      0.00
    4    2   16      0.61      0.00
    5    2   16     -0.51      0.00
    6    2   16     -0.92      0.00
    7    2   16     -0.26      0.00
    8    2   16     -0.32      0.00
    9    2   16      0.01      0.00
   10    2   16      1.66      0.00
   -6    3   16     -1.68      0.00
   -5    3   16     -0.77      0.00
   -4    3   16      0.35      0.00
   -3    3   16      0.32      0.00
   -2    3   16      1.06      0.00
   -1    3   16     -0.32      0.00
    0    3   16     -0.04      0.00
    1    3   16      0.30      0.00
    2    3   16     -0.06      0.00
    3    3   16      1.70      0.00
    4    3   16     -1.26      0.00
    5    3   16     -0.26      0.00
    6    3   16      0.30      0.00
    7    3   16     -0.70      0.00
    8    3   16     -0.18      0.00
    9    3   16     -1.21      0.00
   10    3   16     -2.63      0.00
   -6    4   16      3.01      0.00
   -5    4   16     -0.08      0.00
   -4    4   16     -0.98      0.00
   -3    4   16      0.07      0.00
   -2    4   16     -1.25      0.00
   -1    4   16      0.25      0.00
    0    4   16     -0.33      0.00
    1    4   16     -0.52      0.00
    2    4   16     -0.60      0.00
    3    4   16     -1.05      0.00
    4    4   16      0.88      0.00
    5    4   16      0.69      0.00
    6    4   16      0.18      0.00
    7    4   16      0.14      0.00
    8    4   16     -1.63      0.00
    9    4   16      0.13      0.00
   10    4   16      2.01      0.00
   -6    5   16     -3.32      0.00
   -5    5   16     -0.02      0.00
   -4    5   16      1.11      0.00
   -3    5   16      0.03      0.00
   -2    5   16      0.69      0.00
   -1    5   16      0.21      0.00
    0    5   16      0.15      0.00
    1    5   16     -0.10      0.00
    2    5   16      0.70      0.00
    3    5   16      0.20      0.00
    4    5   16      0.14      0.00
    5    5   16     -0.48      0.00
    6    5   16     -0.36      0.00
    7    5   16     -0.39      0.00
    8    5   16      0.96      0.00
    9    5   16     -0.78      0.00
   10    5   16     -3.07      0.00
   -8    6   16     -0.89      0.00
   -7    6   16     -1.25      0.00
   -6    6   16      1.45      0.00
   -5    6   16      0.39      0.00
   -4    6   16     -0.44      0.00
   -3    6   16      0.12      0.00
   -2    6   16      0.47      0.00
   -1    6   16     -0.49      0.00
    0    6   16      0.16      0.00
    1    6   16      0.40      0.00
    2    6   16     -1.06      0.00
    3    6   16     -0.29      0.00
    4    6   16     -0.59      0.00
    5    6   16      0.82      0.00
    6    6   16      0.35      0.00
    7    6   16     -0.09      0.00
    8    6   16     -0.10      0.00
    9    6   16     -0.60      0.00
   10    6   16      2.22      0.00
   -8    7   16      1.40      0.00
   -7    7   16      0.85      0.00
   -6    7   16      0.18      0.00
   -5    7   16     -0.92      0.00
   -4    7   16     -0.13      0.00
   -3    7   16     -0.15      0.00
   -2    7   16     -0.67      0.00
   -1    7   16      0.82      0.00
    0    7   16     -0.37      0.00
    1    7   16     -0.86      0.00
    2    7   16      0.41      0.00
    3    7   16      0.32      0.00
    4    7   16      0.51      0.00
    5    7   16     -0.58      0.00
    6    7   16      0.15      0.00
    7    7   16      0.78      0.00
    8    7   16     -1.91      0.00
    9    7   16      0.48      0.00
   10    7   16     -2.98      0.00
   11    7   16      0.71      0.00
   -7    8   16      0.35      0.00
   -6    8   16     -0.97      0.00
   -5    8   16      0.90      0.00
   -4    8   16     -0.09      0.00
   -3    8   16      0.37      0.00
   -2    8   16      0.94      0.00
   -1    8   16     -0.35      0.00
    0    8   16      0.21      0.00
    1    8   16      0.09      0.00
    2    8   16     -0.53      0.00
    3    8   16     -0.53      0.00
    4    8   16      0.18      0.00
    5    8   16      0.83      0.00
    6    8   16      0.42      0.00
    7    8   16     -0.48      0.00
    8    8   16      2.10      0.00
    9    8   16     -1.45      0.00
   10    8   16      2.10      0.00
   11    8   16     -1.57      0.00
   -7    9   16     -2.09      0.00
   -6    9   16      0.49      0.00
   -5    9   16     -0.61      0.00
   -4    9   16      0.56      0.00
   -3    9   16     -0.13      0.00
   -2    9   16     -0.84      0.00
   -1    9   16     -0.05      0.00
    0    9   16      0.10      0.00
    1    9   16      0.44      0.00
    2    9   16      0.23      0.00
    3    9   16     -0.28      0.00
    4    9   16     -0.81      0.00
    5    9   16     -0.28      0.00
    6    9   16      0.07      0.00
    7    9   16     -0.23      0.00
    8    9   16     -1.05      0.00
    9    9   16      1.59      0.00
   10    9   16     -2.36      0.00
   11    9   16      0.22      0.00
   -7   10   16      2.90      0.00
   -6   10   16      0.14      0.00
   -5   10   16     -0.12      0.00
   -4   10   16     -0.54      0.00
   -3   10   16      0.25      0.00
   -2   10   16      0.95      0.00
   -1   10   16      0.77      0.00
    0   10   16     -0.39      0.00
    1   10   16     -0.75      0.00
    2   10   16     -0.93      0.00
    3   10   16      0.38      0.00
    4   10   16      0.92      0.00
    5   10   16      0.31      0.00
    6   10   16      0.04      0.00
    7   10   16      1.41      0.00
    8   10   16      0.41      0.00
    9   10   16     -2.02      0.00
   10   10   16      1.48      0.00
   -7   11   16     -2.39      0.00
   -6   11   16     -0.54      0.00
   -5   11   16      0.20      0.00
   -4   11   16      0.04      0.00
   -3   11   16     -0.99      0.00
   -2   11   16     -0.29      0.00
   -1   11   16     -0.77      0.00
    0   11   16      0.84      0.00
    1   11   16     -0.01      0.00
    2   11   16      0.84      0.00
    3   11   16     -0.38      0.00
    4   11   16     -0.88      0.00
    5   11   16     -0.18      0.00
    6   11   16      0.21      0.00
    7   11   16     -0.91      0.00
    8   11   16     -0.80      0.00
   -6   12   16      0.02      0.00
   -5   12   16      0.27      0.00
   -4   12   16     -0.26      0.00
   -3   12   16      1.68      0.00
   -2   12   16     -0.31      0.00
   -1   12   16      0.85      0.00
    0   12   16     -0.82      0.00
    1   12   16      0.93      0.00
    2   12   16     -0.25      0.00
    3   12   16     -0.13      0.00
    4   12   16      0.91      0.00
    5   12   16      0.87      0.00
    6   12   16      0.24      0.00
    7   12   16      0.19      0.00
    8   12   16      1.71      0.00
   -5   13   16     -1.50      0.00
   -4   13   16      0.43      0.00
   -3   13   16     -1.77      0.00
   -2   13   16      0.24      0.00
   -1   13   16     -0.92      0.00
    0   13   16      0.65      0.00
    1   13   16     -0.92      0.00
    2   13   16     -0.82      0.00
    3   13   16      0.20      0.00
    4   13   16     -0.69      0.00
    5   13   16     -1.50      0.00
    6   13   16      0.29      0.00
    7   13   16      0.61      0.00
   -5   14   16      1.73      0.00
   -4   14   16     -0.82      0.00
   -3   14   16      1.03      0.00
   -2   14   16      0.63      0.00
   -1   14   16      1.85      0.00
    0   14   16      0.45      0.00
    1   14   16      0.08      0.00
    2   14   16      1.69      0.00
    3   14   16      0.13      0.00
    4   14   16      0.18      0.00
    5   14   16      1.86      0.00
    6   14   16     -0.98      0.00
   -4   15   16      0.48      0.00
   -3   15   16     -0.92      0.00
   -2   15   16     -1.47      0.00
   -1   15   16     -2.22      0.00
    0   15   16     -1.06      0.00
    1   15   16      1.82      0.00
    2   15   16     -1.65      0.00
    3   15   16     -0.18      0.00
    4   15   16      0.75      0.00
    5   15   16     -0.89      0.00
   -2   16   16      1.57      0.00
   -1   16   16      1.95      0.00
    0   16   16      1.78      0.00
    1   16   16     -2.38      0.00
    2   16   16      1.68      0.00
    3   16   16      0.52      0.00
    4   16   16     -1.19      0.00
    1   17   16      2.03      0.00
    2   17   16     -1.05      0.00
    0   -3   17      0.31      0.00
    1   -3   17      0.55      0.00
    2   -3   17      0.00      0.00
    3   -3   17     -0.12      0.00
   -2   -2   17     -1.15      0.00
   -1   -2   17      0.59      0.00
    0   -2   17     -1.04      0.00
    1   -2   17     -0.76      0.00
    2   -2   17     -1.09      0.00
    3   -2   17     -1.07      0.00
    4   -2   17      0.99      0.00
    5   -2   17     -1.39      0.00
   -3   -1   17     -0.93      0.00
   -2   -1   17      0.66      0.00
   -1   -1   17     -0.03      0.00
    0   -1   17      1.26      0.00
    1   -1   17      0.71      0.00
    2   -1   17      0.91      0.00
    3   -1   17      1.34      0.00
    4   -1   17      0.03      0.00
    5   -1   17      1.61      0.00
    6   -1   17     -1.45      0.00
   -4    0   17      1.78      0.00
   -3    0   17      0.38      0.00
   -2    0   17      0.23      0.00
   -1    0   17     -0.37      0.00
    0    0   17     -1.15      0.00
    1    0   17     -0.86      0.00
    2    0   17     -0.28      0.00
    3    0   17     -1.19      0.00
    4    0   17     -0.91      0.00
    5    0   17     -1.40      0.00
    6    0   17      1.84      0.00
    7    0   17     -0.41      0.00
   -4    1   17     -1.49      0.00
   -3    1   17      0.65      0.00
   -2    1   17     -0.09      0.00
   -1    1   17      0.42      0.00
    0    1   17      0.38      0.00
    1    1   17      0.56      0.00
    2    1   17     -0.62      0.00
    3    1   17      0.92      0.00
    4    1   17      0.63      0.00
    5    1   17      1.13      0.00
    6    1   17     -0.97      0.00
    7    1   17      0.94      0.00
    8    1   17      0.81      0.00
    9    1   17      0.30      0.00
   10    1   17     -1.01      0.00
   -4    2   17      1.35      0.00
   -3    2   17     -0.53      0.00
   -2    2   17     -0.44      0.00
   -1    2   17     -0.08      0.00
    0    2   17      0.32      0.00
    1    2   17     -0.39      0.00
    2    2   17      0.81      0.00
    3    2   17     -1.29      0.00
    4    2   17      0.15      0.00
    5    2   17     -0.34      0.00
    6    2   17      0.77      0.00
    7    2   17      0.27      0.00
    8    2   17      0.55      0.00
    9    2   17      0.41      0.00
   10    2   17      1.85      0.00
   -5    3   17     -1.46      0.00
   -4    3   17     -0.51      0.00
   -3    3   17      0.17      0.00
   -2    3   17      1.33      0.00
   -1    3   17      0.00      0.00
    0    3   17     -0.34      0.00
    1    3   17      0.51      0.00
    2    3   17     -0.32      0.00
    3    3   17      1.50      0.00
    4    3   17     -0.56      0.00
    5    3   17     -0.29      0.00
    6    3   17     -0.21      0.00
    7    3   17     -0.20      0.00
    8    3   17      0.68      0.00
    9    3   17      0.63      0.00
   10    3   17     -1.72      0.00
   -5    4   17      1.16      0.00
   -4    4   17     -0.58      0.00
   -3    4   17      0.27      0.00
   -2    4   17     -1.25      0.00
   -1    4   17      0.01      0.00
    0    4   17      0.14      0.00
    1    4   17     -0.34      0.00
    2    4   17     -0.32      0.00
    3    4   17     -1.23      0.00
    4    4   17      0.04      0.00
    5    4   17      0.63      0.00
    6    4   17      0.79      0.00
    7    4   17      1.36      0.00
    8    4   17     -0.65      0.00
    9    4   17      0.09      0.00
   10    4   17      2.95      0.00
   -5    5   17     -1.24      0.00
   -4    5   17      0.89      0.00
   -3    5   17     -0.70      0.00
   -2    5   17     -0.09      0.00
   -1    5   17      0.08      0.00
    0    5   17      0.08      0.00
    1    5   17      0.11      0.00
    2    5   17      0.98      0.00
    3    5   17      0.75      0.00
    4    5   17      0.42      0.00
    5    5   17     -0.90      0.00
    6    5   17     -1.08      0.00
    7    5   17     -0.90      0.00
    8    5   17      1.92      0.00
    9    5   17      1.17      0.00
   -6    6   17      1.76      0.00
   -5    6   17      1.43      0.00
   -4    6   17     -0.52      0.00
   -3    6   17      0.47      0.00
   -2    6   17      0.94      0.00
   -1    6   17     -0.56      0.00
    0    6   17      0.14      0.00
    1    6   17      0.83      0.00
    2    6   17     -0.66      0.00
    3    6   17     -0.43      0.00
    4    6   17     -0.77      0.00
    5    6   17      0.74      0.00
    6    6   17      0.97      0.00
    7    6   17      0.19      0.00
    8    6   17     -0.44      0.00
    9    6   17     -0.57      0.00
   10    6   17      3.85      0.00
   -6    7   17      0.31      0.00
   -5    7   17     -1.53      0.00
   -4    7   17     -0.37      0.00
   -3    7   17     -1.05      0.00
   -2    7   17     -1.65      0.00
   -1    7   17      0.46      0.00
    0    7   17     -0.45      0.00
    1    7   17     -0.97      0.00
    2    7   17      0.49      0.00
    3    7   17      0.57      0.00
    4    7   17      0.11      0.00
    5    7   17     -1.33      0.00
    6    7   17     -1.26      0.00
    7    7   17      1.00      0.00
    8    7   17     -0.71      0.00
    9    7   17      1.29      0.00
   10    7   17     -2.94      0.00
   -6    8   17     -1.06      0.00
   -5    8   17      1.43      0.00
   -4    8   17     -0.11      0.00
   -3    8   17      0.73      0.00
   -2    8   17      0.83      0.00
   -1    8   17     -0.64      0.00
    0    8   17      0.50      0.00
    1    8   17      0.58      0.00
    2    8   17      0.28      0.00
    3    8   17     -0.32      0.00
    4    8   17      0.64      0.00
    5    8   17      0.92      0.00
    6    8   17      0.44      0.00
    7    8   17     -1.41      0.00
    8    8   17      1.52      0.00
    9    8   17     -0.66      0.00
   10    8   17      2.86      0.00
   -6    9   17      0.67      0.00
   -5    9   17     -1.09      0.00
   -4    9   17      0.90      0.00
   -3    9   17     -0.85      0.00
   -2    9   17     -1.06      0.00
   -1    9   17     -0.49      0.00
    0    9   17     -0.73      0.00
    1    9   17      0.70      0.00
    2    9   17     -0.01      0.00
    3    9   17      0.33      0.00
    4    9   17     -1.27      0.00
    5    9   17     -0.87      0.00
    6    9   17      0.17      0.00
    7    9   17     -0.08      0.00
    8    9   17     -0.90      0.00
    9    9   17      1.17      0.00
   10    9   17     -1.40      0.00
   -6   10   17      0.38      0.00
   -5   10   17      0.51      0.00
   -4   10   17     -1.61      0.00
   -3   10   17      0.61      0.00
   -2   10   17      0.50      0.00
   -1   10   17      0.83      0.00
    0   10   17      0.22      0.00
    1   10   17     -1.58      0.00
    2   10   17     -0.41      0.00
    3   10   17     -0.30      0.00
    4   10   17      1.05      0.00
    5   10   17     -0.01      0.00
    6   10   17     -1.65      0.00
    7   10   17      1.09      0.00
    8   10   17      0.31      0.00
   -6   11   17     -0.90      0.00
   -5   11   17     -0.11      0.00
   -4   11   17      1.68      0.00
   -3   11   17     -1.60      0.00
   -2   11   17     -0.39      0.00
   -1   11   17     -1.39      0.00
    0   11   17      0.06      0.00
    1   11   17      1.30      0.00
    2   11   17      0.96      0.00
    3   11   17      0.86      0.00
    4   11   17     -0.67      0.00
    5   11   17      0.11      0.00
    6   11   17      1.35      0.00
    7   11   17     -1.42      0.00
   -4   12   17     -1.49      0.00
   -3   12   17      2.57      0.00
   -2   12   17     -0.27      0.00
   -1   12   17      0.61      0.00
    0   12   17     -0.98      0.00
    1   12   17     -0.64      0.00
    2   12   17     -0.65      0.00
    3   12   17     -1.24      0.00
    4   12   17      0.26      0.00
    5   12   17     -0.07      0.00
    6   12   17     -0.83      0.00
    7   12   17      0.36      0.00
   -5   13   17     -1.58      0.00
   -4   13   17      1.28      0.00
   -3   13   17     -2.74      0.00
   -2   13   17     -0.19      0.00
   -1   13   17     -0.75      0.00
    0   13   17      0.70      0.00
    1   13   17     -0.01      0.00
    2   13   17     -0.53      0.00
    3   13   17      0.74      0.00
    4   13   17     -0.17      0.00
    5   13   17     -0.99      0.00
    6   13   17      0.14      0.00
   -4   14   17     -0.69      0.00
   -3   14   17      1.97      0.00
   -2   14   17      1.00      0.00
   -1   14   17      1.14      0.00
    0   14   17     -0.26      0.00
    1   14   17     -0.99      0.00
    2   14   17      1.20      0.00
    3   14   17      0.12      0.00
    4   14   17     -0.33      0.00
    5   14   17      1.37      0.00
   -3   15   17     -1.09      0.00
   -2   15   17     -1.89      0.00
   -1   15   17     -2.19      0.00
    0   15   17     -1.33      0.00
    1   15   17      2.03      0.00
    2   15   17     -1.59      0.00
    3   15   17     -1.08      0.00
    4   15   17      0.51      0.00
   -1   16   17      1.77      0.00
    0   16   17      1.73      0.00
    0   -1   18      1.71      0.00
    1   -1   18      1.04      0.00
    2   -1   18      0.74      0.00
    3   -1   18      2.28      0.00
    4   -1   18      0.17      0.00
   -2    0   18     -0.28      0.00
   -1    0   18     -0.69      0.00
    0    0   18     -1.22      0.00
    1    0   18     -0.88      0.00
    2    0   18      0.30      0.00
    3    0   18     -1.65      0.00
    4    0   18     -0.41      0.00
    5    0   18     -1.40      0.00
   -3    1   18     -0.04      0.00
   -2    1   18      0.04      0.00
   -1    1   18      0.83      0.00
    0    1   18      0.62      0.00
    1    1   18      0.95      0.00
    2    1   18     -0.83      0.00
    3    1   18      1.23      0.00
    4    1   18      0.45      0.00
    5    1   18      1.13      0.00
    6    1   18     -2.06      0.00
   -4    2   18      2.06      0.00
   -3    2   18     -0.42      0.00
   -2    2   18     -0.78      0.00
   -1    2   18     -0.83      0.00
    0    2   18      0.24      0.00
    1    2   18     -0.56      0.00
    2    2   18      1.26      0.00
    3    2   18     -0.85      0.00
    4    2   18     -0.05      0.00
    5    2   18     -0.67      0.00
    6    2   18      1.33      0.00
    7    2   18     -0.55      0.00
    8    2   18      0.05      0.00
    9    2   18     -0.41      0.00
   -4    3   18     -1.53      0.00
   -3    3   18      0.07      0.00
   -2    3   18      1.45      0.00
   -1    3   18      0.85      0.00
    0    3   18     -0.46      0.00
    1    3   18      0.47      0.00
    2    3   18     -0.79      0.00
    3    3   18      1.14      0.00
    4    3   18      0.29      0.00
    5    3   18      0.10      0.00
    6    3   18     -1.20      0.00
    7    3   18     -1.04      0.00
    8    3   18     -0.78      0.00
    9    3   18      0.20      0.00
   -4    4   18      0.37      0.00
   -3    4   18      0.49      0.00
   -2    4   18     -1.18      0.00
   -1    4   18     -0.72      0.00
    0    4   18      0.25      0.00
    1    4   18     -0.22      0.00
    2    4   18      0.28      0.00
    3    4   18     -1.02      0.00
    4    4   18     -0.51      0.00
    5    4   18      0.20      0.00
    6    4   18      0.73      0.00
    7    4   18      1.59      0.00
    8    4   18     -0.92      0.00
    9    4   18     -1.48      0.00
   -4    5   18      0.76      0.00
   -3    5   18     -0.58      0.00
   -2    5   18      0.03      0.00
   -1    5   18      0.53      0.00
    0    5   18     -0.05      0.00
    1    5   18     -0.43      0.00
    2    5   18      0.00      0.00
    3    5   18      0.99      0.00
    4    5   18      0.85      0.00
    5    5   18     -0.07      0.00
    6    5   18     -0.80      0.00
    7    5   18     -2.53      0.00
    8    5   18      1.16      0.00
    9    5   18      1.09      0.00
   -4    6   18     -0.31      0.00
   -3    6   18      1.13      0.00
   -2    6   18      1.58      0.00
   -1    6   18     -0.13      0.00
    0    6   18      0.05      0.00
    1    6   18      0.97      0.00
    2    6   18     -0.16      0.00
    3    6   18     -0.87      0.00
    4    6   18     -0.23      0.00
    5    6   18      0.53      0.00
    6    6   18      1.11      0.00
    7    6   18      1.47      0.00
    8    6   18     -1.85      0.00
    9    6   18     -2.02      0.00
   -5    7   18     -1.41      0.00
   -4    7   18      0.09      0.00
   -3    7   18     -0.86      0.00
   -2    7   18     -1.20      0.00
   -1    7   18      0.51      0.00
    0    7   18     -0.22      0.00
    1    7   18     -1.51      0.00
    2    7   18     -0.33      0.00
    3    7   18      0.62      0.00
    4    7   18     -0.46      0.00
    5    7   18     -0.57      0.00
    6    7   18     -1.17      0.00
    7    7   18      0.06      0.00
    8    7   18      0.77      0.00
    9    7   18      1.01      0.00
   -5    8   18      1.20      0.00
   -4    8   18      0.21      0.00
   -3    8   18      1.52      0.00
   -2    8   18      1.11      0.00
   -1    8   18     -0.07      0.00
    0    8   18      0.80      0.00
    1    8   18      0.92      0.00
    2    8   18      0.50      0.00
    3    8   18     -0.36      0.00
    4    8   18      1.55      0.00
    5    8   18      1.29      0.00
    6    8   18      1.28      0.00
    7    8   18     -0.67      0.00
    8    8   18     -0.52      0.00
    9    8   18     -0.71      0.00
   -5    9   18     -0.70      0.00
   -4    9   18      1.01      0.00
   -3    9   18     -0.51      0.00
   -2    9   18      0.16      0.00
   -1    9   18      0.28      0.00
    0    9   18     -0.93      0.00
    1    9   18      0.34      0.00
    2    9   18     -0.88      0.00
    3    9   18     -0.06      0.00
    4    9   18     -1.66      0.00
    5    9   18     -0.92      0.00
    6    9   18      0.58      0.00
    7    9   18      0.16      0.00
    8    9   18      0.54      0.00
    9    9   18     -0.07      0.00
   -5   10   18      0.22      0.00
   -4   10   18     -1.55      0.00
   -3   10   18      0.64      0.00
   -2   10   18      0.29      0.00
   -1   10   18      0.96      0.00
    0   10   18      1.45      0.00
    1   10   18     -1.44      0.00
    2   10   18      0.52      0.00
    3   10   18     -0.18      0.00
    4   10   18      1.18      0.00
    5   10   18      0.78      0.00
    6   10   18     -1.93      0.00
    7   10   18      1.17      0.00
   -5   11   18      0.09      0.00
   -4   11   18      2.06      0.00
   -3   11   18     -0.68      0.00
   -2   11   18      0.45      0.00
   -1   11   18     -0.54      0.00
    0   11   18     -0.42      0.00
    1   11   18      2.01      0.00
    2   11   18      0.02      0.00
    3   11   18      0.98      0.00
    4   11   18     -0.14      0.00
    5   11   18      0.19      0.00
    6   11   18      2.75      0.00
   -4   12   18     -1.84      0.00
   -3   12   18      1.93      0.00
   -2   12   18      0.02      0.00
   -1   12   18      0.64      0.00
    0   12   18     -0.05      0.00
    1   12   18     -1.17      0.00
    2   12   18      0.08      0.00
    3   12   18     -1.61      0.00
    4   12   18     -0.31      0.00
    5   12   18     -0.19      0.00
   -4   13   18      1.30      0.00
   -3   13   18     -2.14      0.00
   -2   13   18     -0.24      0.00
   -1   13   18      0.13      0.00
    0   13   18      1.17      0.00
    1   13   18      1.08      0.00
    2   13   18     -0.29      0.00
    3   13   18      1.58      0.00
    4   13   18      0.84      0.00
   -3   14   18      1.65      0.00
   -2   14   18      1.35      0.00
   -1   14   18      0.79      0.00
    0   14   18     -0.46      0.00
   -2   15   18     -1.59      0.00
   -1   15   18     -1.26      0.00
    0   15   18     -0.17      0.00
   -1    1   19      1.19      0.00
    0    1   19      0.24      0.00
    1    1   19      0.76      0.00
    2    1   19     -1.11      0.00
    3    1   19      1.26      0.00
    4    1   19      0.20      0.00
   -3    2   19     -0.05      0.00
   -2    2   19     -0.85      0.00
   -1    2   19     -1.55      0.00
    0    2   19     -0.05      0.00
    1    2   19     -0.82      0.00
    2    2   19      0.73      0.00
    3    2   19     -1.06      0.00
    4    2   19     -0.47      0.00
    5    2   19     -0.95      0.00
   -3    3   19     -0.01      0.00
   -2    3   19      1.70      0.00
   -1    3   19      1.65      0.00
    0    3   19     -0.25      0.00
    1    3   19      0.22      0.00
    2    3   19     -0.77      0.00
    3    3   19      0.55      0.00
    4    3   19      0.66      0.00
    5    3   19      0.66      0.00
    6    3   19     -0.85      0.00
    7    3   19     -0.62      0.00
    8    3   19     -0.28      0.00
   -3    4   19      0.29      0.00
   -2    4   19     -1.70      0.00
   -1    4   19     -1.61      0.00
    0    4   19     -0.05      0.00
    1    4   19      0.15      0.00
    2    4   19      0.52      0.00
    3    4   19     -0.61      0.00
    4    4   19     -1.15      0.00
    5    4   19     -0.59      0.00
    6    4   19      0.47      0.00
    7    4   19      2.53      0.00
    8    4   19      0.20      0.00
   -3    5   19     -0.67      0.00
   -2    5   19      0.37      0.00
   -1    5   19      0.88      0.00
    0    5   19      0.22      0.00
    1    5   19     -0.78      0.00
    2    5   19     -0.65      0.00
    3    5   19      0.47      0.00
    4    5   19      0.68      0.00
    5    5   19      0.45      0.00
    6    5   19      0.15      0.00
    7    5   19     -3.08      0.00
    8    5   19      1.48      0.00
   -3    6   19      0.41      0.00
   -2    6   19      0.57      0.00
   -1    6   19     -0.30      0.00
    0    6   19     -0.27      0.00
    1    6   19      1.43      0.00
    2    6   19      0.67      0.00
    3    6   19     -0.67      0.00
    4    6   19     -0.15      0.00
    5    6   19     -0.63      0.00
    6    6   19     -0.23      0.00
    7    6   19      2.86      0.00
    8    6   19     -1.62      0.00
   -3    7   19     -1.20      0.00
   -2    7   19     -1.21      0.00
   -1    7   19     -0.28      0.00
    0    7   19      0.07      0.00
    1    7   19     -1.58      0.00
    2    7   19     -0.33      0.00
    3    7   19      0.57      0.00
    4    7   19     -1.03      0.00
    5    7   19     -0.01      0.00
    6    7   19     -0.63      0.00
    7    7   19     -1.30      0.00
    8    7   19      1.98      0.00
   -4    8   19     -0.19      0.00
   -3    8   19      0.75      0.00
   -2    8   19     -0.15      0.00
   -1    8   19     -0.33      0.00
    0    8   19      0.20      0.00
    1    8   19      1.36      0.00
    2    8   19      0.46      0.00
    3    8   19     -0.01      0.00
    4    8   19      1.53      0.00
    5    8   19      0.19      0.00
    6    8   19      0.69      0.00
    7    8   19      0.07      0.00
    8    8   19     -1.73      0.00
   -4    9   19      0.10      0.00
   -3    9   19     -1.05      0.00
   -2    9   19      0.13      0.00
   -1    9   19     -0.10      0.00
    0    9   19     -1.03      0.00
    1    9   19     -0.37      0.00
    2    9   19     -0.51      0.00
    3    9   19     -0.61      0.00
    4    9   19     -1.59      0.00
    5    9   19     -1.07      0.00
    6    9   19     -0.21      0.00
   -4   10   19     -1.07      0.00
   -3   10   19     -0.35      0.00
   -2   10   19     -1.22      0.00
   -1   10   19     -0.45      0.00
    0   10   19      0.89      0.00
    1   10   19     -0.87      0.00
    2   10   19      0.79      0.00
    3   10   19      0.94      0.00
    4   10   19      0.64      0.00
    5   10   19      0.93      0.00
    0   11   19     -1.11      0.00
    1   11   19      1.08      0.00
    2   11   19     -0.90      0.00
    3   11   19     -0.36      0.00
    4   11   19      0.18      0.00
    5   11   19     -0.74      0.00
    1   12   19     -1.22      0.00
   -1   13   19      0.09      0.00
    0   13   19      0.58      0.00
    1   13   19      0.35      0.00
   -1   14   19     -0.10      0.00
    0   14   19     -1.18      0.00
    1   14   19     -0.95      0.00
   -1   15   19     -1.00      0.00
    0   15   19      0.07      0.00
    1   15   19      1.21      0.00
   -2    3   20      1.83      0.00
   -1    3   20      1.81      0.00
    0    3   20      0.40      0.00
    1    3   20     -0.02      0.00
    2    3   20      0.30      0.00
    3    3   20      0.46      0.00
    4    3   20      1.03      0.00
   -2    4   20     -1.89      0.00
   -1    4   20     -1.63      0.00
    0    4   20     -0.40      0.00
    1    4   20      0.82      0.00
    2    4   20      0.22      0.00
    3    4   20      0.33      0.00
    4    4   20     -0.93      0.00
    5    4   20     -0.82      0.00
    6    4   20     -0.02      0.00
   -2    5   20      1.20      0.00
   -1    5   20      1.15      0.00
    0    5   20      0.63      0.00
    1    5   20     -1.18      0.00
    2    5   20     -0.55      0.00
    3    5   20     -0.35      0.00
    4    5   20      0.68      0.00
    5    5   20      0.88      0.00
    6    5   20      0.71      0.00
    7    5   20     -3.07      0.00
   -2    6   20      0.09      0.00
   -1    6   20     -0.11      0.00
    0    6   20     -0.47      0.00
    1    6   20      1.51      0.00
    2    6   20      0.73      0.00
    3    6   20      0.34      0.00
    4    6   20      0.33      0.00
    5    6   20     -0.68      0.00
    6    6   20     -1.04      0.00
    7    6   20      2.61      0.00
   -2    7   20     -0.12      0.00
   -1    7   20     -0.29      0.00
    0    7   20      0.27      0.00
    1    7   20     -1.72      0.00
    2    7   20     -0.34      0.00
    3    7   20     -0.12      0.00
    4    7   20     -0.81      0.00
    5    7   20      0.95      0.00
    6    7   20      0.70      0.00
    7    7   20     -1.37      0.00
   -2    8   20      0.18      0.00
   -1    8   20      0.48      0.00
    0    8   20      0.09      0.00
    1    8   20      1.40      0.00
    2    8   20     -0.37      0.00
    3    8   20      0.34      0.00
    4    8   20      1.22      0.00
    5    8   20     -0.38      0.00
   -2    9   20      1.02      0.00
   -1    9   20      0.42      0.00
    0    9   20     -0.25      0.00
    1    9   20     -0.89      0.00
    2    9   20      0.26      0.00
    3    9   20     -1.12      0.00
    4    9   20     -0.70      0.00
    1    4   21      1.00      0.00
    2    4   21     -0.52      0.00
    3    4   21      0.44      0.00
    1    5   21     -1.45      0.00
    2    5   21     -0.28      0.00
    3    5   21     -1.10      0.00
    1    6   21      1.35      0.00
    2    6   21      0.46      0.00
    3    6   21      0.97      0.00
    4    6   21      0.45      0.00
    5    6   21     -0.57      0.00
    0    7   21     -0.04      0.00
    0    8   21      0.31      0.00
    1    0    0      4.78      0.00
  -14    1    0     -0.78      0.00
   -1    1    0     -0.50      0.00
    0    1    0    -83.07      0.00
    1    1    0     -0.81      0.00
  -14    2    0      1.32      0.00
  -14    3    0     -1.12      0.00
  -14    4    0     -0.09      0.00
  -14    5    0      0.74      0.00
  -14    6    0     -0.67      0.00
  -14    7    0      0.05      0.00
   14    7    0      0.78      0.00
  -13   10    0     -2.35      0.00
   13   10    0      2.68      0.00
  -12   12    0      0.33      0.00
  -11   12    0     -1.27      0.00
  -11   13    0      1.03      0.00
  -10   13    0      1.79      0.00
  -10   14    0     -1.09      0.00
   -9   14    0     -1.41      0.00
   -9   15    0      0.80      0.00
    9   15    0     -1.74      0.00
   -8   16    0      1.00      0.00
    7   16    0      1.27      0.00
    8   16    0      0.89      0.00
   -7   17    0      0.64      0.00
    5   17    0      1.33      0.00
    6   17    0     -0.35      0.00
    7   17    0     -0.47      0.00
   -6   18    0     -0.07      0.00
    3   18    0     -0.09      0.00
    4   18    0      1.03      0.00
    5   18    0     -0.77      0.00
    6   18    0      0.37      0.00
   -4   19    0     -0.94      0.00
    1   19    0     -0.10      0.00
    2   19    0      0.90      0.00
    3   19    0     -0.18      0.00
    4   19    0     -1.01      0.00
   -2  -19    1      0.71      0.00
   -1  -19    1     -0.03      0.00
    0  -19    1      0.52      0.00
    1  -19    1      0.19      0.00
    2  -19    1     -0.75      0.00
    3  -19    1     -0.72      0.00
   -5  -18    1     -0.58      0.00
   -4  -18    1      0.45      0.00
   -3  -18    1     -0.29      0.00
   -2  -18    1     -0.54      0.00
    5  -18    1      0.70      0.00
   -7  -17    1     -0.80      0.00
   -6  -17    1     -0.13      0.00
   -5  -17    1      0.96      0.00
   -4  -17    1      0.02      0.00
    7  -17    1      1.04      0.00
   -8  -16    1      0.14      0.00
   -7  -16    1      1.60      0.00
   -6  -16    1     -0.71      0.00
    7  -16    1     -0.53      0.00
    8  -16    1      2.08      0.00
   -9  -15    1     -0.78      0.00
   -8  -15    1     -0.44      0.00
    8  -15    1     -1.50      0.00
    9  -15    1      0.50      0.00
  -10  -14    1     -0.31      0.00
   -9  -14    1      0.53      0.00
    9  -14    1     -0.67      0.00
   10  -14    1     -1.29      0.00
   10  -13    1      1.95      0.00
   11  -13    1      0.31      0.00
   11  -12    1     -0.25      0.00
  -12  -11    1      0.39      0.00
  -13   -9    1     -2.81      0.00
   14   -7    1     -0.15      0.00
  -14   -6    1      0.32      0.00
   14   -6    1     -0.26      0.00
  -14   -5    1     -0.54      0.00
   14   -5    1      0.55      0.00
   14   -4    1      0.24      0.00
   14   -3    1     -0.99      0.00
   14   -2    1      1.58      0.00
  -14   -1    1      2.52      0.00
    0   -1    1    -69.27      0.00
  -14    0    1     -1.73      0.00
   -1    0    1    -10.80      0.00
    0    0    1     83.72      0.00
    1    0    1      8.95      0.00
  -14    1    1      0.53      0.00
   -1    1    1      5.43      0.00
    0    1    1    -76.61      0.00
    1    1    1    -14.54      0.00
  -14    2    1      0.70      0.00
  -14    3    1     -0.43      0.00
  -14    4    1     -0.24      0.00
  -14    5    1      1.03      0.00
  -14    6    1     -0.85      0.00
  -14    7    1      0.21      0.00
   13    9    1     -2.67      0.00
  -13   10    1     -2.40      0.00
   13   10    1      2.53      0.00
  -12   11    1      0.50      0.00
  -12   12    1     -0.18      0.00
  -11   12    1     -1.05      0.00
  -11   13    1      1.16      0.00
  -10   13    1      1.81      0.00
  -10   14    1     -0.57      0.00
  -10   15    1      0.23      0.00
   -9   15    1      0.85      0.00
    9   15    1     -2.43      0.00
   10   15    1     -2.34      0.00
   -9   16    1     -0.42      0.00
   -8   16    1      0.43      0.00
    8   16    1     -0.01      0.00
    9   16    1      1.29      0.00
   -8   17    1     -0.12      0.00
   -7   17    1      1.51      0.00
    6   17    1     -0.06      0.00
    7   17    1     -0.38      0.00
    8   17    1     -0.50      0.00
   -6   18    1      0.23      0.00
    4   18    1      1.07      0.00
    5   18    1     -0.80      0.00
    6   18    1      0.11      0.00
    0   19    1      0.68      0.00
    1   19    1      0.21      0.00
    2   19    1      0.86      0.00
    3   19    1     -0.57      0.00
    4   19    1     -1.20      0.00
    5   19    1     -0.14      0.00
   -1   20    1      0.64      0.00
    0   20    1     -0.59      0.00
    1   20    1      0.13      0.00
   -4  -18    2     -0.33      0.00
   -3  -18    2     -0.18      0.00
   -2  -18    2     -0.51      0.00
   -1  -18    2     -0.62      0.00
    0  -18    2     -0.04      0.00
   -6  -17    2      0.37      0.00
   -5  -17    2      0.56      0.00
   -4  -17    2      1.19      0.00
   -3  -17    2      0.55      0.00
    6  -17    2      0.11      0.00
   -7  -16    2      2.12      0.00
   -6  -16    2     -1.29      0.00
    6  -16    2     -0.59      0.00
    7  -16    2     -0.79      0.00
    8  -16    2      1.37      0.00
   -8  -15    2      0.36      0.00
   -7  -15    2     -3.02      0.00
    8  -15    2     -2.00      0.00
    9  -15    2     -0.76      0.00
   -9  -14    2     -0.65      0.00
   -8  -14    2     -0.04      0.00
    9  -14    2      0.61      0.00
   10  -14    2     -1.25      0.00
   10  -13    2      1.69      0.00
  -11  -12    2      0.01      0.00
  -12  -10    2      0.46      0.00
   13   -9    2      1.51      0.00
  -13   -8    2      1.41      0.00
   14   -7    2     -0.22      0.00
   14   -6    2     -0.17      0.00
  -14   -5    2     -0.71      0.00
   14   -5    2     -0.06      0.00
  -14   -4    2      0.38      0.00
   14   -4    2      0.23      0.00
  -14   -3    2      0.07      0.00
   14   -3    2     -0.83      0.00
  -14   -2    2     -1.50      0.00
   14   -2    2      0.75      0.00
  -14   -1    2      1.98      0.00
  -14    0    2     -1.90      0.00
  -14    1    2      0.65      0.00
  -14    2    2     -0.05      0.00
  -14    3    2     -0.27      0.00
  -14    4    2     -0.69      0.00
  -14    5    2      1.01      0.00
  -14    6    2     -0.82      0.00
  -14    7    2      0.31      0.00
   14    8    2     -4.15      0.00
   13    9    2     -1.42      0.00
  -13   10    2     -1.42      0.00
   13   10    2      2.05      0.00
  -12   11    2      1.77      0.00
  -12   12    2     -0.93      0.00
  -11   13    2      0.15      0.00
  -10   14    2     -0.77      0.00
   11   14    2     -0.51      0.00
  -10   15    2      0.07      0.00
   -9   15    2     -0.53      0.00
   10   15    2     -3.12      0.00
   -9   16    2     -0.37      0.00
   -8   16    2     -0.50      0.00
    8   16    2     -1.15      0.00
    9   16    2      0.82      0.00
   -8   17    2     -0.25      0.00
    7   17    2     -0.25      0.00
    8   17    2      0.58      0.00
   -6   18    2     -0.64      0.00
    5   18    2     -1.12      0.00
    6   18    2     -0.26      0.00
    7   18    2      0.45      0.00
   -5   19    2     -0.06      0.00
    1   19    2     -0.05      0.00
    2   19    2      0.45      0.00
    3   19    2     -1.19      0.00
    4   19    2     -1.54      0.00
    5   19    2      0.23      0.00
   -2   20    2     -0.76      0.00
    0   20    2     -0.28      0.00
    1   20    2      0.11      0.00
    2   20    2     -0.27      0.00
    3   20    2      0.56      0.00
   -3  -18    3     -0.22      0.00
   -2  -18    3     -0.84      0.00
   -1  -18    3     -0.83      0.00
    0  -18    3      0.12      0.00
    1  -18    3     -1.17      0.00
    2  -18    3      0.18      0.00
   -5  -17    3      0.26      0.00
   -4  -17    3      1.32      0.00
   -3  -17    3      0.44      0.00
   -2  -17    3      0.76      0.00
    5  -17    3     -0.80      0.00
    6  -17    3      1.00      0.00
   -6  -16    3     -1.49      0.00
   -5  -16    3     -0.78      0.00
    6  -16    3     -0.80      0.00
    7  -16    3     -0.08      0.00
   -8  -15    3     -0.32      0.00
   -7  -15    3     -3.11      0.00
   -6  -15    3      1.87      0.00
    7  -15    3      0.28      0.00
    8  -15    3     -0.94      0.00
   -9  -14    3     -1.73      0.00
   -8  -14    3     -0.25      0.00
    8  -14    3      0.89      0.00
    9  -14    3      2.24      0.00
  -10  -13    3      1.04      0.00
   -9  -13    3      2.14      0.00
   10  -13    3      0.78      0.00
  -11  -11    3     -0.18      0.00
   12  -11    3     -0.80      0.00
  -12  -10    3      0.85      0.00
   13   -9    3      1.10      0.00
   13   -8    3     -1.94      0.00
   14   -6    3      0.17      0.00
   14   -5    3     -0.25      0.00
  -14   -4    3      0.58      0.00
   14   -4    3      0.89      0.00
  -14   -3    3      0.05      0.00
   14   -3    3     -0.59      0.00
  -14   -2    3     -0.15      0.00
   14   -2    3      0.19      0.00
  -14   -1    3      0.91      0.00
  -14    0    3     -0.48      0.00
  -14    1    3      0.18      0.00
  -14    2    3      0.55      0.00
  -14    3    3      0.12      0.00
  -14    4    3     -0.53      0.00
  -14    5    3      1.19      0.00
  -14    6    3     -0.70      0.00
   14    8    3     -5.85      0.00
   13    9    3     -0.35      0.00
  -13   10    3     -0.14      0.00
   13   10    3      1.20      0.00
  -12   11    3      2.43      0.00
  -12   12    3     -0.99      0.00
  -11   13    3     -0.49      0.00
   12   13    3      0.46      0.00
  -10   14    3     -0.01      0.00
  -10   15    3      0.43      0.00
   -9   15    3     -1.02      0.00
   10   15    3     -2.12      0.00
   -9   16    3      0.63      0.00
   -8   16    3      0.37      0.00
    9   16    3     -0.59      0.00
   -8   17    3     -0.23      0.00
    7   17    3     -0.67      0.00
    8   17    3      1.55      0.00
   -7   18    3     -1.19      0.00
   -6   18    3     -0.50      0.00
    5   18    3     -1.16      0.00
    6   18    3     -0.10      0.00
    7   18    3      0.75      0.00
   -5   19    3      0.65      0.00
    2   19    3     -0.06      0.00
    3   19    3     -2.12      0.00
    4   19    3     -2.34      0.00
    5   19    3      0.83      0.00
    6   19    3      0.04      0.00
   -3   20    3     -1.55      0.00
   -2   20    3     -1.02      0.00
    0   20    3      0.27      0.00
    1   20    3      1.06      0.00
    2   20    3     -0.08      0.00
    3   20    3      0.95      0.00
    4   20    3      1.59      0.00
   -4  -17    4      0.91      0.00
   -3  -17    4      0.57      0.00
   -2  -17    4      1.44      0.00
   -1  -17    4      0.65      0.00
    4  -17    4      0.47      0.00
    5  -17    4     -1.03      0.00
   -6  -16    4     -0.74      0.00
   -5  -16    4     -0.81      0.00
   -4  -16    4     -0.99      0.00
    5  -16    4      0.17      0.00
    6  -16    4     -1.06      0.00
   -7  -15    4     -1.87      0.00
   -6  -15    4      1.45      0.00
   -5  -15    4      0.95      0.00
    5  -15    4      0.54      0.00
    6  -15    4      0.32      0.00
    7  -15    4      0.00      0.00
    8  -15    4     -0.07      0.00
   -8  -14    4      0.78      0.00
   -7  -14    4      2.95      0.00
    8  -14    4     -0.41      0.00
    9  -14    4      2.80      0.00
   -9  -13    4      1.88      0.00
   -8  -13    4      0.29      0.00
   10  -13    4     -0.22      0.00
  -10  -12    4     -0.29      0.00
   -9  -12    4     -1.53      0.00
   11  -12    4      2.00      0.00
  -11  -10    4     -0.37      0.00
  -12   -9    4     -0.51      0.00
   13   -8    4     -2.08      0.00
   13   -7    4      2.02      0.00
  -13   -6    4     -0.17      0.00
   14   -6    4     -0.02      0.00
  -13   -5    4      0.16      0.00
   14   -5    4     -0.78      0.00
   14   -4    4      1.01      0.00
  -14   -3    4     -0.49      0.00
   14   -3    4     -1.04      0.00
  -14   -2    4     -0.07      0.00
   14   -2    4      0.18      0.00
  -14   -1    4     -0.42      0.00
  -14    0    4      0.26      0.00
  -14    1    4     -0.93      0.00
  -14    2    4      0.60      0.00
  -14    3    4     -0.29      0.00
  -14    4    4     -0.99      0.00
  -14    5    4      0.92      0.00
  -14    6    4     -0.76      0.00
   14    8    4     -6.35      0.00
  -13    9    4     -0.98      0.00
   14    9    4      2.81      0.00
   13   10    4      0.17      0.00
  -12   11    4      1.65      0.00
   13   11    4     -0.10      0.00
  -12   12    4     -0.86      0.00
  -11   13    4     -1.17      0.00
   12   13    4      1.38      0.00
  -10   15    4     -0.42      0.00
   -9   15    4     -1.69      0.00
   -9   16    4      0.71      0.00
   10   16    4      1.08      0.00
   -8   17    4     -0.80      0.00
    8   17    4      1.84      0.00
    9   17    4      1.31      0.00
   -7   18    4     -0.33      0.00
    6   18    4      0.41      0.00
    7   18    4      1.38      0.00
    8   18    4     -1.17      0.00
    3   19    4     -2.20      0.00
    4   19    4     -2.53      0.00
    5   19    4      1.06      0.00
    6   19    4     -0.17      0.00
   -3   20    4     -1.29      0.00
   -2   20    4     -0.70      0.00
   -1   20    4     -0.82      0.00
    0   20    4      0.28      0.00
    1   20    4      1.98      0.00
    2   20    4      0.13      0.00
    3   20    4      1.49      0.00
    4   20    4      2.17      0.00
   -2  -17    5      1.16      0.00
   -1  -17    5      0.42      0.00
    0  -17    5      0.46      0.00
    1  -17    5     -0.54      0.00
    3  -17    5     -0.33      0.00
   -5  -16    5     -0.79      0.00
   -4  -16    5     -0.28      0.00
   -3  -16    5     -0.33      0.00
    4  -16    5     -0.21      0.00
    5  -16    5      0.05      0.00
    6  -16    5     -0.04      0.00
   -6  -15    5      0.79      0.00
   -5  -15    5      0.12      0.00
   -4  -15    5      0.29      0.00
    5  -15    5      0.80      0.00
    6  -15    5     -0.42      0.00
    7  -15    5      0.12      0.00
   -7  -14    5      1.96      0.00
   -6  -14    5     -1.22      0.00
    8  -14    5     -1.32      0.00
   -8  -13    5     -0.12      0.00
   -7  -13    5     -2.32      0.00
   -9  -12    5     -0.07      0.00
   -8  -12    5     -1.03      0.00
  -10  -11    5     -0.78      0.00
  -11  -10    5     -0.05      0.00
   12  -10    5      0.29      0.00
  -12   -8    5      0.10      0.00
   13   -8    5     -1.29      0.00
   13   -7    5      2.00      0.00
   13   -6    5     -1.13      0.00
  -13   -5    5      0.53      0.00
   14   -5    5     -0.39      0.00
  -13   -4    5     -0.39      0.00
   14   -4    5      1.08      0.00
  -13   -3    5      1.27      0.00
   14   -3    5     -0.93      0.00
  -13   -2    5     -0.02      0.00
   14   -2    5      0.51      0.00
  -14   -1    5     -0.04      0.00
  -13   -1    5      0.28      0.00
   14   -1    5     -0.12      0.00
  -14    0    5      0.72      0.00
  -13    0    5      0.61      0.00
  -14    1    5     -0.65      0.00
  -13    1    5      0.23      0.00
  -14    2    5      0.82      0.00
  -13    2    5     -1.11      0.00
  -14    3    5      0.18      0.00
  -13    3    5      2.86      0.00
  -14    4    5     -0.57      0.00
  -13    4    5     -3.62      0.00
   14    7    5      5.12      0.00
   14    8    5     -3.97      0.00
  -13    9    5     -0.93      0.00
   14    9    5      2.31      0.00
  -12   10    5     -1.00      0.00
  -12   11    5      0.70      0.00
   13   11    5      0.57      0.00
   12   12    5     -2.56      0.00
  -11   13    5     -0.46      0.00
   12   13    5      1.70      0.00
  -10   15    5     -0.70      0.00
   11   15    5     -0.08      0.00
   -9   16    5      1.09      0.00
   10   16    5      0.83      0.00
   -8   17    5      0.13      0.00
    8   17    5      1.36      0.00
    9   17    5      1.59      0.00
   -7   18    5      1.50      0.00
    6   18    5      1.25      0.00
    7   18    5      2.09      0.00
    8   18    5     -1.10      0.00
   -6   19    5     -0.77      0.00
    4   19    5     -1.85      0.00
    5   19    5      0.70      0.00
    6   19    5     -0.65      0.00
    7   19    5     -1.27      0.00
   -4   20    5      1.16      0.00
   -3   20    5     -0.44      0.00
   -2   20    5      0.25      0.00
   -1   20    5     -0.76      0.00
    0   20    5      0.24      0.00
    1   20    5      1.72      0.00
    2   20    5     -0.18      0.00
    3   20    5      0.72      0.00
    4   20    5      1.48      0.00
    5   20    5     -0.66      0.00
   -3  -16    6      0.47      0.00
   -2  -16    6     -0.82      0.00
   -1  -16    6     -0.49      0.00
    3  -16    6      0.22      0.00
    4  -16    6      0.45      0.00
   -5  -15    6     -0.51      0.00
   -4  -15    6      0.04      0.00
    5  -15    6      0.53      0.00
    6  -15    6     -1.32      0.00
   -7  -14    6      1.46      0.00
   -6  -14    6     -1.26      0.00
   -5  -14    6      1.63      0.00
    8  -14    6     -1.15      0.00
   -8  -13    6      0.78      0.00
   -7  -13    6     -1.52      0.00
   -6  -13    6      1.74      0.00
    9  -13    6     -1.26      0.00
   -9  -12    6      1.33      0.00
   -8  -12    6     -0.96      0.00
   11  -11    6     -0.86      0.00
  -11   -9    6      1.29      0.00
   12   -9    6     -0.76      0.00
   12   -8    6      0.84      0.00
  -12   -7    6     -0.46      0.00
   13   -7    6      0.89      0.00
  -12   -6    6      0.24      0.00
   13   -6    6     -1.14      0.00
   14   -5    6     -0.15      0.00
  -13   -4    6     -1.09      0.00
   14   -4    6      0.33      0.00
  -13   -3    6      0.64      0.00
   14   -3    6     -0.55      0.00
  -13   -2    6     -1.26      0.00
   14   -2    6      0.56      0.00
  -13   -1    6     -0.16      0.00
   14   -1    6     -0.37      0.00
  -13    0    6      0.38      0.00
  -13    1    6     -1.15      0.00
  -13    2    6      0.15      0.00
  -13    3    6      1.38      0.00
  -13    4    6     -3.38      0.00
  -13    5    6      3.93      0.00
   14    7    6      1.32      0.00
  -13    8    6     -0.22      0.00
   14    8    6     -1.49      0.00
   14    9    6      0.44      0.00
  -12   10    6     -0.13      0.00
  -12   11    6     -0.24      0.00
   13   11    6     -0.20      0.00
  -11   13    6      0.01      0.00
  -10   15    6     -0.75      0.00
   -9   16    6      0.88      0.00
   10   16    6      0.95      0.00
   -8   17    6      1.44      0.00
    9   17    6      1.02      0.00
   -7   18    6      2.08      0.00
    7   18    6      2.35      0.00
    8   18    6     -0.68      0.00
   -6   19    6     -1.22      0.00
    4   19    6      0.12      0.00
    5   19    6      0.24      0.00
    6   19    6     -1.27      0.00
    7   19    6     -1.44      0.00
   -4   20    6      1.72      0.00
   -3   20    6      0.49      0.00
   -2   20    6      0.91      0.00
   -1   20    6     -0.90      0.00
    0   20    6     -0.05      0.00
    1   20    6      0.56      0.00
    2   20    6      0.10      0.00
    3   20    6      0.21      0.00
    4   20    6      0.68      0.00
    5   20    6     -0.36      0.00
   -1  -16    7     -0.34      0.00
    0  -16    7     -0.38      0.00
    1  -16    7      0.21      0.00
    2  -16    7      0.96      0.00
   -4  -15    7     -0.29      0.00
    5  -15    7     -0.04      0.00
   -6  -14    7     -1.11      0.00
   -5  -14    7      1.23      0.00
   -4  -14    7      0.18      0.00
    7  -14    7      2.29      0.00
   -7  -13    7     -0.70      0.00
   -6  -13    7      1.54      0.00
   -8  -12    7     -1.29      0.00
   -9  -11    7     -1.31      0.00
   10  -11    7     -1.42      0.00
   11  -10    7      1.02      0.00
  -11   -8    7     -1.70      0.00
   12   -8    7      1.30      0.00
  -11   -7    7      2.24      0.00
   13   -7    7      0.77      0.00
  -12   -6    7      0.73      0.00
   13   -6    7     -0.58      0.00
  -12   -5    7     -0.47      0.00
  -12   -4    7      0.41      0.00
   14   -4    7      0.00      0.00
  -12   -3    7      1.10      0.00
   14   -3    7     -0.17      0.00
  -13   -2    7     -0.44      0.00
  -12   -2    7     -1.05      0.00
   14   -2    7      0.28      0.00
  -13   -1    7      0.81      0.00
   14   -1    7     -0.74      0.00
  -13    0    7      0.50      0.00
   14    0    7      0.50      0.00
  -13    1    7     -0.93      0.00
   14    1    7     -0.99      0.00
  -13    2    7      1.06      0.00
   14    2    7      0.53      0.00
  -13    3    7      0.11      0.00
   14    3    7     -1.13      0.00
  -13    4    7     -1.71      0.00
  -13    5    7      3.01      0.00
  -13    6    7     -2.55      0.00
  -12    7    7      1.59      0.00
   14    7    7     -0.81      0.00
   14    8    7      0.31      0.00
  -12    9    7      1.35      0.00
   14    9    7     -0.15      0.00
  -12   10    7     -0.08      0.00
  -12   11    7     -0.22      0.00
  -11   12    7      0.25      0.00
  -11   13    7      0.29      0.00
   -9   16    7      0.50      0.00
   -8   17    7      2.05      0.00
    9   17    7     -0.18      0.00
   -7   18    7      1.03      0.00
    7   18    7      2.50      0.00
    8   18    7     -0.29      0.00
    4   19    7      1.49      0.00
    5   19    7     -0.11      0.00
    6   19    7     -1.29      0.00
    7   19    7     -1.36      0.00
   -4   20    7      1.58      0.00
   -3   20    7      0.75      0.00
   -2   20    7      1.16      0.00
   -1   20    7     -0.77      0.00
    0   20    7     -0.33      0.00
    1   20    7     -0.81      0.00
    2   20    7     -0.45      0.00
    3   20    7     -0.73      0.00
    4   20    7     -0.71      0.00
    5   20    7     -0.25      0.00
   -2  -15    8     -1.12      0.00
    3  -15    8     -0.72      0.00
    4  -15    8     -1.30      0.00
   -4  -14    8      0.96      0.00
    6  -14    8      1.90      0.00
   -6  -13    8      0.69      0.00
   -7  -12    8     -0.88      0.00
    9  -12    8      0.19      0.00
   10  -11    8     -0.34      0.00
   -9  -10    8     -0.53      0.00
   10  -10    8      0.06      0.00
   11   -9    8     -0.77      0.00
  -10   -8    8      0.00      0.00
   11   -8    8      0.45      0.00
   12   -8    8      0.92      0.00
  -11   -7    8      1.24      0.00
   12   -7    8     -1.10      0.00
  -11   -6    8     -2.34      0.00
   13   -6    8     -1.08      0.00
  -11   -5    8      2.96      0.00
   13   -5    8      0.43      0.00
  -12   -4    8      0.03      0.00
  -12   -3    8      0.65      0.00
   14   -3    8     -0.17      0.00
  -12   -2    8     -2.07      0.00
  -12   -1    8      1.19      0.00
  -13    0    8     -0.35      0.00
  -12    0    8      0.40      0.00
   14    0    8      0.84      0.00
  -13    1    8     -0.40      0.00
  -12    1    8     -2.91      0.00
   14    1    8     -0.47      0.00
  -13    2    8      0.75      0.00
  -12    2    8      3.58      0.00
   14    2    8      1.32      0.00
  -13    3    8     -0.41      0.00
  -12    3    8     -2.32      0.00
   14    3    8     -1.26      0.00
  -13    4    8     -0.32      0.00
  -12    4    8      0.96      0.00
   14    4    8      1.99      0.00
  -13    5    8      1.16      0.00
  -12    5    8      0.27      0.00
   14    5    8     -1.97      0.00
  -12    6    8     -1.23      0.00
   14    6    8      1.92      0.00
  -12    7    8      2.29      0.00
   14    7    8     -1.10      0.00
   14    8    8      0.27      0.00
  -12    9    8      2.13      0.00
   14    9    8     -0.26      0.00
  -12   10    8     -1.00      0.00
  -11   11    8     -1.19      0.00
  -11   12    8      0.68      0.00
   11   15    8      1.54      0.00
   -8   17    8      1.29      0.00
   -7   18    8     -0.41      0.00
    8   18    8      0.17      0.00
   -5   19    8     -0.11      0.00
   -4   19    8     -1.86      0.00
   -3   19    8      0.46      0.00
    5   19    8     -0.96      0.00
    6   19    8     -1.32      0.00
    7   19    8     -1.47      0.00
   -4   20    8      1.43      0.00
   -3   20    8      0.20      0.00
   -2   20    8      0.36      0.00
   -1   20    8     -1.28      0.00
    0   20    8     -0.88      0.00
    1   20    8     -0.50      0.00
    2   20    8     -0.17      0.00
    3   20    8     -0.06      0.00
    4   20    8     -1.06      0.00
    5   20    8     -0.11      0.00
   -3  -14    9      0.08      0.00
   -2  -14    9      1.41      0.00
    4  -14    9      1.07      0.00
   -5  -13    9      1.06      0.00
   -4  -13    9     -1.87      0.00
    6  -13    9     -1.69      0.00
   -6  -12    9      0.21      0.00
    8  -12    9      1.03      0.00
    9  -11    9     -0.64      0.00
   -8  -10    9      0.02      0.00
   10  -10    9     -0.29      0.00
   -9   -9    9      1.63      0.00
   10   -9    9     -0.08      0.00
   11   -9    9      0.32      0.00
   11   -8    9     -0.47      0.00
  -10   -7    9      0.61      0.00
   12   -7    9     -0.26      0.00
  -10   -6    9     -1.15      0.00
   12   -6    9      0.06      0.00
  -11   -5    9      1.81      0.00
   13   -5    9      0.89      0.00
  -11   -4    9     -1.37      0.00
  -11   -3    9      0.72      0.00
  -12   -2    9     -0.87      0.00
  -11   -2    9     -0.06      0.00
   14   -2    9      0.55      0.00
  -12   -1    9      1.21      0.00
  -12    0    9      0.33      0.00
   14    0    9      0.23      0.00
  -12    1    9     -2.05      0.00
   14    1    9     -0.67      0.00
  -12    2    9      2.72      0.00
   14    2    9      0.59      0.00
  -12    3    9     -2.31      0.00
   14    3    9     -1.46      0.00
  -12    4    9      0.84      0.00
   14    4    9      1.29      0.00
  -12    5    9     -0.21      0.00
   14    5    9     -1.60      0.00
  -12    6    9     -0.96      0.00
   14    6    9      1.29      0.00
  -12    7    9      2.26      0.00
   14    7    9     -0.65      0.00
  -12    8    9     -2.74      0.00
   14    8    9     -0.13      0.00
  -12    9    9      2.30      0.00
  -11    9    9      1.51      0.00
  -11   10    9     -0.55      0.00
  -11   11    9     -0.51      0.00
   13   11    9     -0.05      0.00
  -11   12    9      0.42      0.00
   12   13    9      1.05      0.00
  -10   14    9     -0.23      0.00
   -9   15    9      0.11      0.00
   -8   15    9     -1.53      0.00
   11   15    9      0.92      0.00
   -5   18    9      0.58      0.00
   -5   19    9     -0.26      0.00
   -4   19    9     -1.88      0.00
   -3   19    9      1.01      0.00
   -2   19    9      0.81      0.00
    5   19    9     -0.31      0.00
    7   19    9     -1.20      0.00
   -3   20    9     -0.45      0.00
   -2   20    9     -0.40      0.00
   -1   20    9     -1.73      0.00
    0   20    9     -1.73      0.00
    1   20    9      0.03      0.00
    2   20    9     -0.95      0.00
    3   20    9      0.06      0.00
    4   20    9     -0.78      0.00
    5   20    9      0.26      0.00
   -3  -13   10      0.10      0.00
   -2  -13   10     -0.77      0.00
    4  -13   10     -1.21      0.00
    5  -13   10     -0.81      0.00
   -5  -12   10     -0.24      0.00
   -4  -12   10      1.90      0.00
   -3  -12   10     -0.24      0.00
    6  -12   10      0.27      0.00
    7  -12   10      0.07      0.00
   -6  -11   10     -0.59      0.00
    8  -11   10     -0.35      0.00
   -7  -10   10     -0.93      0.00
    9  -10   10      1.17      0.00
   -8   -9   10      0.04      0.00
    9   -9   10     -1.27      0.00
   10   -9   10     -0.40      0.00
   -9   -8   10     -1.05      0.00
   10   -8   10      0.81      0.00
   11   -8   10     -1.13      0.00
   -9   -7   10      0.73      0.00
   11   -7   10      0.97      0.00
  -10   -6   10     -0.75      0.00
   12   -6   10     -0.90      0.00
  -10   -5   10      0.85      0.00
  -11   -4   10     -0.20      0.00
  -10   -4   10     -1.05      0.00
   13   -4   10      0.03      0.00
  -11   -3   10     -0.60      0.00
  -11   -2   10      0.19      0.00
  -11   -1   10      0.80      0.00
  -12    0   10      0.27      0.00
  -11    0   10     -2.37      0.00
   14    0   10      0.48      0.00
  -12    1   10     -1.16      0.00
  -11    1   10      2.71      0.00
   13    1   10      3.32      0.00
   14    1   10      0.01      0.00
  -12    2   10      1.64      0.00
   13    2   10     -2.34      0.00
   14    2   10      0.64      0.00
  -12    3   10     -0.70      0.00
  -11    3   10      1.52      0.00
   14    3   10     -0.49      0.00
  -12    4   10      0.47      0.00
   14    4   10      0.70      0.00
  -12    5   10      0.19      0.00
   14    5   10     -0.48      0.00
  -12    6   10     -0.35      0.00
  -11    6   10      1.56      0.00
   14    6   10      0.66      0.00
  -12    7   10      1.13      0.00
  -11    7   10     -0.53      0.00
   14    7   10     -0.36      0.00
  -11    8   10     -1.35      0.00
  -11    9   10      2.15      0.00
  -11   10   10     -1.58      0.00
  -11   11   10      0.41      0.00
   13   11   10      1.38      0.00
  -10   13   10     -0.42      0.00
   12   13   10      1.67      0.00
   11   14   10     -0.56      0.00
   -9   15   10     -0.33      0.00
   -8   15   10     -1.76      0.00
   11   15   10      1.19      0.00
   -8   16   10      1.47      0.00
   -7   16   10      0.29      0.00
   10   16   10      0.08      0.00
   -6   18   10     -0.32      0.00
   -5   18   10      0.41      0.00
   -4   18   10      1.36      0.00
   -5   19   10     -0.18      0.00
   -4   19   10     -1.99      0.00
   -3   19   10      0.42      0.00
    4   19   10      0.04      0.00
    5   19   10     -0.61      0.00
    7   19   10     -1.32      0.00
   -3   20   10     -0.24      0.00
   -2   20   10     -0.81      0.00
   -1   20   10     -1.66      0.00
    0   20   10     -1.55      0.00
    1   20   10      2.30      0.00
    2   20   10     -0.40      0.00
    3   20   10      0.26      0.00
    4   20   10     -0.54      0.00
    5   20   10     -0.58      0.00
    0  -13   11     -0.92      0.00
    1  -13   11      0.44      0.00
    2  -13   11     -0.13      0.00
   -3  -12   11      0.42      0.00
   -2  -12   11      0.00      0.00
    2  -12   11      0.00      0.00
    3  -12   11     -0.59      0.00
    4  -12   11      0.66      0.00
    5  -12   11      1.57      0.00
   -5  -11   11     -1.23      0.00
   -4  -11   11     -1.00      0.00
   -3  -11   11     -0.95      0.00
    6  -11   11      1.34      0.00
    7  -11   11      0.02      0.00
   -6  -10   11      0.57      0.00
   -4  -10   11      0.26      0.00
    7  -10   11     -0.07      0.00
    8  -10   11     -0.26      0.00
   -7   -9   11     -0.77      0.00
    8   -9   11     -0.35      0.00
    9   -9   11     -1.19      0.00
   -8   -8   11     -0.19      0.00
   -7   -8   11      2.36      0.00
    9   -8   11      1.01      0.00
   10   -8   11      0.82      0.00
   -8   -7   11      0.68      0.00
   11   -7   11      0.58      0.00
   -9   -6   11     -0.40      0.00
   -9   -5   11      0.46      0.00
   12   -5   11      1.17      0.00
  -10   -4   11     -0.06      0.00
   -9   -4   11      0.28      0.00
  -10   -3   11      0.08      0.00
  -11   -2   11      0.75      0.00
  -10   -2   11      0.30      0.00
   13   -2   11      0.58      0.00
  -11   -1   11      0.47      0.00
  -10   -1   11      0.55      0.00
   13   -1   11      0.11      0.00
  -11    0   11     -1.35      0.00
   13    0   11     -1.45      0.00
  -11    1   11      1.91      0.00
   13    1   11      1.35      0.00
  -11    2   11     -1.89      0.00
   13    2   11     -1.80      0.00
   14    2   11      0.10      0.00
  -11    3   11      1.32      0.00
   13    3   11      1.50      0.00
   14    3   11     -0.36      0.00
  -11    4   11     -0.85      0.00
   13    4   11     -1.73      0.00
   14    4   11     -0.16      0.00
   13    5   11      1.43      0.00
   14    5   11      0.18      0.00
   13    9   11     -0.27      0.00
  -11   10   11     -1.29      0.00
   13   10   11     -0.84      0.00
  -10   11   11     -1.43      0.00
  -10   12   11      0.70      0.00
   11   13   11     -0.14      0.00
   12   13   11      1.08      0.00
   -9   14   11      1.01      0.00
   11   14   11     -0.27      0.00
   -8   15   11     -1.14      0.00
   -7   15   11     -1.62      0.00
   10   15   11     -0.16      0.00
   -8   16   11      0.78      0.00
   -7   16   11      0.96      0.00
   10   16   11     -0.06      0.00
   -7   17   11     -0.05      0.00
   -6   17   11     -0.77      0.00
   -5   17   11      0.02      0.00
   -6   18   11      0.08      0.00
   -5   18   11      0.43      0.00
   -4   18   11      1.56      0.00
    8   18   11      0.46      0.00
    3   19   11     -0.52      0.00
    4   19   11      0.15      0.00
    5   19   11      0.92      0.00
    7   19   11     -1.48      0.00
   -3   20   11      0.64      0.00
   -2   20   11     -0.49      0.00
   -1   20   11     -0.99      0.00
    0   20   11     -1.61      0.00
    1   20   11      3.92      0.00
    2   20   11     -0.17      0.00
    3   20   11      0.43      0.00
    4   20   11      0.62      0.00
    5   20   11     -0.11      0.00
    0  -12   12     -0.14      0.00
    1  -12   12     -1.23      0.00
    2  -12   12     -0.33      0.00
    3  -12   12     -0.89      0.00
   -3  -11   12     -0.72      0.00
   -2  -11   12      0.40      0.00
    2  -11   12      0.92      0.00
    3  -11   12      1.10      0.00
    4  -11   12      0.78      0.00
    5  -11   12     -2.75      0.00
   -5  -10   12      1.21      0.00
   -4  -10   12     -0.01      0.00
   -3  -10   12      1.02      0.00
   -2  -10   12      0.04      0.00
    5  -10   12      3.82      0.00
    6  -10   12     -1.34      0.00
    7  -10   12      0.15      0.00
   -6   -9   12     -0.81      0.00
   -5   -9   12     -1.79      0.00
   -4   -9   12      0.59      0.00
    7   -9   12      0.12      0.00
    8   -9   12      0.32      0.00
   -7   -8   12      1.90      0.00
   -6   -8   12      1.34      0.00
    8   -8   12     -0.25      0.00
    9   -8   12      0.91      0.00
   -7   -7   12     -2.91      0.00
    9   -7   12     -0.49      0.00
   10   -7   12     -0.42      0.00
   -8   -6   12     -0.42      0.00
   10   -6   12      0.13      0.00
   11   -6   12      0.07      0.00
   -9   -5   12      0.04      0.00
   -8   -5   12     -0.29      0.00
   -9   -4   12      0.09      0.00
   12   -4   12     -1.03      0.00
  -10   -3   12     -0.50      0.00
   -9   -3   12     -0.27      0.00
  -10   -2   12      0.21      0.00
   -9   -2   12     -0.20      0.00
  -10   -1   12     -0.15      0.00
   12   -1   12      2.29      0.00
   13   -1   12      0.51      0.00
  -10    0   12     -1.06      0.00
   12    0   12     -0.46      0.00
   13    0   12     -0.55      0.00
  -11    1   12      0.66      0.00
  -10    1   12      1.44      0.00
   13    1   12      0.69      0.00
  -11    2   12     -0.75      0.00
   13    2   12     -0.22      0.00
  -11    3   12      1.01      0.00
   13    3   12      0.67      0.00
  -11    4   12     -0.56      0.00
   13    4   12     -1.03      0.00
  -11    5   12      0.14      0.00
   13    5   12      1.44      0.00
  -11    6   12      1.04      0.00
   13    6   12     -1.81      0.00
  -11    7   12     -1.12      0.00
   13    7   12      1.10      0.00
  -11    8   12      0.25      0.00
   13    8   12     -0.43      0.00
   13    9   12     -0.21      0.00
  -10   10   12      1.61      0.00
  -10   11   12     -1.06      0.00
   11   12   12      0.13      0.00
   12   12   12     -0.24      0.00
   11   13   12     -0.32      0.00
   -8   14   12      0.23      0.00
   10   14   12      0.22      0.00
   11   14   12      0.49      0.00
   -8   15   12      0.03      0.00
   -7   15   12     -1.30      0.00
   10   15   12     -0.45      0.00
   -7   16   12      0.87      0.00
   -6   16   12      2.16      0.00
    9   16   12      1.28      0.00
   -6   17   12     -1.25      0.00
   -5   17   12     -0.03      0.00
    9   17   12     -1.88      0.00
   -5   18   12      0.17      0.00
   -4   18   12      0.80      0.00
    8   18   12      0.27      0.00
    4   19   12     -1.09      0.00
    5   19   12      0.08      0.00
    6   19   12     -1.27      0.00
   -2   20   12     -0.05      0.00
   -1   20   12      0.39      0.00
    3   20   12      0.57      0.00
    4   20   12      0.41      0.00
    0  -11   13      1.35      0.00
    1  -11   13      1.31      0.00
    2  -11   13      0.92      0.00
    3  -11   13      1.00      0.00
   -3  -10   13      0.44      0.00
   -2  -10   13     -0.44      0.00
   -1  -10   13      0.08      0.00
    2  -10   13     -1.49      0.00
    3  -10   13     -1.05      0.00
    4  -10   13     -1.39      0.00
    5  -10   13      1.98      0.00
   -4   -9   13      0.45      0.00
   -3   -9   13     -0.51      0.00
   -2   -9   13     -0.44      0.00
   -1   -9   13     -0.09      0.00
    4   -9   13      1.24      0.00
    5   -9   13     -1.83      0.00
    6   -9   13      0.17      0.00
    7   -9   13      0.18      0.00
   -5   -8   13      1.30      0.00
   -4   -8   13     -0.54      0.00
   -3   -8   13      0.44      0.00
    6   -8   13     -0.07      0.00
    7   -8   13     -0.34      0.00
    8   -8   13     -0.71      0.00
   -6   -7   13     -1.38      0.00
   -5   -7   13     -1.17      0.00
    8   -7   13      1.21      0.00
    9   -7   13     -0.23      0.00
   -7   -6   13      1.82      0.00
   -6   -6   13      1.53      0.00
    9   -6   13     -0.63      0.00
   10   -6   13      0.09      0.00
   -8   -5   13     -0.43      0.00
   -7   -5   13     -1.12      0.00
    9   -5   13      1.25      0.00
   10   -5   13      0.24      0.00
   -8   -4   13      1.26      0.00
   -7   -4   13      0.54      0.00
   10   -4   13     -1.02      0.00
   -9   -3   13      0.07      0.00
   -8   -3   13     -1.24      0.00
   -9   -2   13     -0.13      0.00
   -8   -2   13      0.27      0.00
   12   -2   13     -2.09      0.00
   -9   -1   13      0.08      0.00
   11   -1   13      1.89      0.00
   12   -1   13      1.89      0.00
  -10    0   13     -0.23      0.00
   -9    0   13      1.26      0.00
   12    0   13     -1.01      0.00
  -10    1   13      1.37      0.00
   12    1   13     -0.77      0.00
   13    1   13      0.11      0.00
  -10    2   13     -1.66      0.00
   12    2   13      2.31      0.00
   13    2   13      0.10      0.00
  -10    3   13      2.45      0.00
   12    3   13     -3.52      0.00
   13    3   13     -0.26      0.00
  -10    4   13     -2.22      0.00
   13    4   13     -0.04      0.00
   13    5   13      0.81      0.00
   13    6   13     -1.29      0.00
   13    7   13      1.72      0.00
   13    8   13     -0.67      0.00
  -10    9   13     -1.60      0.00
  -10   10   13      1.53      0.00
   12   11   13      0.00      0.00
   -9   12   13     -0.09      0.00
   11   12   13     -0.43      0.00
   10   13   13      1.55      0.00
   11   13   13     -0.17      0.00
   -8   14   13     -0.35      0.00
   -7   14   13      1.01      0.00
   10   14   13     -0.78      0.00
   -7   15   13     -0.90      0.00
   -6   15   13     -2.74      0.00
    9   15   13      1.91      0.00
   10   15   13      0.11      0.00
   -7   16   13      0.34      0.00
   -6   16   13      2.47      0.00
   -5   16   13     -0.33      0.00
    9   16   13      0.04      0.00
   -6   17   13     -1.14      0.00
   -5   17   13     -0.10      0.00
   -4   17   13     -0.07      0.00
   -5   18   13      0.50      0.00
   -4   18   13      0.26      0.00
    7   18   13      3.77      0.00
    4   19   13     -0.09      0.00
    5   19   13      0.90      0.00
    6   19   13      0.29      0.00
   -1   20   13      0.70      0.00
    3   20   13      0.90      0.00
    1  -10   14     -1.13      0.00
    2  -10   14     -0.95      0.00
   -2   -9   14      0.03      0.00
   -1   -9   14      0.54      0.00
    0   -9   14      1.12      0.00
    1   -9   14      0.96      0.00
    2   -9   14      1.18      0.00
    3   -9   14      0.71      0.00
    4   -9   14      0.76      0.00
    5   -9   14     -0.27      0.00
   -4   -8   14     -0.19      0.00
   -3   -8   14      0.42      0.00
   -2   -8   14      0.89      0.00
   -1   -8   14      0.13      0.00
    0   -8   14     -0.23      0.00
    1   -8   14     -0.07      0.00
    2   -8   14     -0.86      0.00
    3   -8   14     -0.20      0.00
    4   -8   14     -0.61      0.00
    5   -8   14     -0.03      0.00
    6   -8   14      0.29      0.00
    7   -8   14     -0.14      0.00
   -5   -7   14     -1.10      0.00
   -4   -7   14      0.25      0.00
   -3   -7   14     -0.50      0.00
    6   -7   14      0.08      0.00
    7   -7   14     -0.12      0.00
    8   -7   14      1.22      0.00
   -6   -6   14      0.61      0.00
   -5   -6   14      0.63      0.00
   -4   -6   14     -0.55      0.00
    7   -6   14      1.07      0.00
    8   -6   14     -1.58      0.00
    9   -6   14     -0.87      0.00
   -7   -5   14     -0.41      0.00
   -6   -5   14     -0.94      0.00
   -5   -5   14     -0.23      0.00
    8   -5   14      1.34      0.00
    9   -5   14      1.76      0.00
   10   -5   14      0.14      0.00
   -7   -4   14      0.13      0.00
   -6   -4   14      0.96      0.00
    9   -4   14     -1.83      0.00
   10   -4   14     -0.74      0.00
   -8   -3   14     -1.05      0.00
   -7   -3   14     -0.34      0.00
   10   -3   14      1.35      0.00
   11   -3   14      0.02      0.00
   -8   -2   14     -0.08      0.00
   -7   -2   14      0.94      0.00
   10   -2   14     -1.56      0.00
   11   -2   14     -0.60      0.00
   -9   -1   14     -0.46      0.00
   -8   -1   14      1.31      0.00
   11   -1   14      1.39      0.00
   -9    0   14      0.97      0.00
   -8    0   14     -1.92      0.00
   11    0   14     -1.57      0.00
   12    0   14     -0.38      0.00
   -9    1   14     -2.00      0.00
   11    1   14      0.78      0.00
   12    1   14     -0.32      0.00
   -9    2   14      1.27      0.00
   12    2   14      1.50      0.00
   12    3   14     -2.52      0.00
  -10    4   14     -1.41      0.00
   12    4   14      2.62      0.00
  -10    5   14      0.98      0.00
   12    5   14     -3.02      0.00
  -10    6   14     -0.37      0.00
   12    6   14      2.90      0.00
   -9    9   14      1.51      0.00
   -9   10   14     -0.57      0.00
   -9   11   14     -0.33      0.00
   11   11   14      0.04      0.00
   10   12   14     -1.85      0.00
   11   12   14     -0.39      0.00
   -8   13   14      0.45      0.00
   10   13   14      2.16      0.00
   11   13   14      0.66      0.00
   -7   14   14      0.63      0.00
    9   14   14     -2.42      0.00
   10   14   14     -1.49      0.00
   -7   15   14     -0.37      0.00
   -6   15   14     -2.25      0.00
    8   15   14     -0.08      0.00
    9   15   14      2.03      0.00
   -6   16   14      1.86      0.00
   -5   16   14      0.34      0.00
    8   16   14     -1.06      0.00
    9   16   14     -1.24      0.00
   -5   17   14     -0.89      0.00
   -4   17   14      0.06      0.00
    8   17   14      0.94      0.00
   -4   18   14     -0.41      0.00
   -3   18   14      0.77      0.00
    5   18   14     -1.31      0.00
    6   18   14     -1.33      0.00
    7   18   14      2.00      0.00
   -2   19   14      0.31      0.00
    4   19   14     -0.64      0.00
    5   19   14      0.25      0.00
    1   20   14      4.84      0.00
   -2   -8   15      0.51      0.00
   -1   -8   15     -0.44      0.00
    0   -8   15      0.05      0.00
    1   -8   15     -0.08      0.00
    2   -8   15     -0.78      0.00
    3   -8   15      0.09      0.00
    4   -8   15     -0.12      0.00
    5   -8   15     -0.17      0.00
   -3   -7   15     -0.41      0.00
   -2   -7   15     -1.13      0.00
   -1   -7   15     -0.69      0.00
    0   -7   15     -0.19      0.00
    1   -7   15     -0.72      0.00
    2   -7   15      0.55      0.00
    3   -7   15     -0.76      0.00
    4   -7   15      0.36      0.00
    5   -7   15      0.17      0.00
    6   -7   15      0.05      0.00
   -5   -6   15      0.30      0.00
   -4   -6   15     -0.30      0.00
   -3   -6   15      0.26      0.00
   -2   -6   15      0.56      0.00
    5   -6   15     -0.23      0.00
    6   -6   15     -0.75      0.00
    7   -6   15      0.48      0.00
    8   -6   15     -1.13      0.00
   -5   -5   15      0.39      0.00
   -4   -5   15      0.84      0.00
   -3   -5   15     -0.41      0.00
    6   -5   15      1.31      0.00
    7   -5   15     -0.87      0.00
    8   -5   15      1.30      0.00
    9   -5   15      1.40      0.00
   -6   -4   15      0.87      0.00
   -5   -4   15     -0.37      0.00
    8   -4   15     -1.09      0.00
    9   -4   15     -1.71      0.00
   -7   -3   15     -0.12      0.00
   -6   -3   15     -1.27      0.00
    8   -3   15      1.07      0.00
    9   -3   15      1.25      0.00
   10   -3   15      0.81      0.00
   -7   -2   15      0.59      0.00
   -6   -2   15      1.87      0.00
    9   -2   15     -0.12      0.00
   10   -2   15     -0.57      0.00
   -8   -1   15      0.98      0.00
   -7   -1   15     -0.70      0.00
   10   -1   15     -0.09      0.00
   11   -1   15      0.51      0.00
   -8    0   15     -1.09      0.00
   -7    0   15      0.13      0.00
   10    0   15      1.18      0.00
   11    0   15     -0.60      0.00
   -8    1   15      0.77      0.00
   -7    1   15      0.90      0.00
   11    1   15      0.05      0.00
   -9    2   15      1.63      0.00
   -8    2   15      0.36      0.00
   11    2   15      0.98      0.00
   12    2   15      0.74      0.00
   -9    3   15     -1.09      0.00
   11    3   15     -0.81      0.00
   12    3   15     -1.07      0.00
   -9    4   15      1.74      0.00
   12    4   15      1.34      0.00
   -9    5   15     -1.47      0.00
   12    5   15     -1.03      0.00
   12    6   15      2.30      0.00
   12    7   15     -2.70      0.00
   -9    8   15     -1.92      0.00
   12    8   15      3.24      0.00
   -8   11   15      0.38      0.00
   10   11   15     -0.45      0.00
   11   11   15     -0.56      0.00
   -8   12   15     -0.26      0.00
   10   12   15     -0.78      0.00
   11   12   15     -0.14      0.00
   -7   13   15     -0.40      0.00
    9   13   15      0.09      0.00
   10   13   15      1.16      0.00
   -7   14   15      0.38      0.00
   -6   14   15      0.32      0.00
    8   14   15      1.93      0.00
    9   14   15     -0.79      0.00
   10   14   15     -0.96      0.00
   -6   15   15     -0.83      0.00
   -5   15   15     -1.05      0.00
    8   15   15     -0.84      0.00
    9   15   15      1.44      0.00
   -5   16   15      1.20      0.00
   -4   16   15     -0.32      0.00
    6   16   15     -1.07      0.00
    7   16   15     -0.88      0.00
    8   16   15      0.29      0.00
   -4   17   15      0.58      0.00
   -3   17   15     -0.84      0.00
    5   17   15      1.27      0.00
    6   17   15      1.06      0.00
    7   17   15      0.06      0.00
   -3   18   15      0.82      0.00
   -2   18   15      0.07      0.00
   -1   18   15      0.19      0.00
    4   18   15     -0.61      0.00
    5   18   15     -1.00      0.00
    6   18   15     -0.92      0.00
   -1   19   15     -0.24      0.00
    0   19   15      1.02      0.00
    1   19   15     -3.25      0.00
    2   19   15     -1.19      0.00
    3   19   15     -1.46      0.00
    4   19   15     -0.11      0.00
   -1   -7   16      0.04      0.00
    0   -7   16     -0.15      0.00
    1   -7   16     -0.68      0.00
    2   -7   16      0.26      0.00
    3   -7   16     -0.63      0.00
    4   -7   16     -0.17      0.00
   -3   -6   16      0.10      0.00
   -2   -6   16      0.82      0.00
   -1   -6   16      0.96      0.00
    0   -6   16     -0.01      0.00
    1   -6   16      0.79      0.00
    2   -6   16      0.45      0.00
    3   -6   16      1.12      0.00
    4   -6   16      0.16      0.00
    5   -6   16      0.00      0.00
    6   -6   16     -0.26      0.00
   -4   -5   16      0.51      0.00
   -3   -5   16      0.06      0.00
   -2   -5   16     -0.13      0.00
   -1   -5   16     -1.19      0.00
    0   -5   16      0.58      0.00
    1   -5   16     -0.20      0.00
    2   -5   16     -1.06      0.00
    3   -5   16     -1.50      0.00
    4   -5   16     -0.51      0.00
    5   -5   16      0.14      0.00
    6   -5   16      0.90      0.00
    7   -5   16     -0.15      0.00
   -5   -4   16     -0.61      0.00
   -4   -4   16     -0.80      0.00
   -3   -4   16      0.34      0.00
   -2   -4   16     -0.27      0.00
    6   -4   16     -0.94      0.00
    7   -4   16      0.13      0.00
    8   -4   16     -1.20      0.00
   -6   -3   16     -1.01      0.00
   -5   -3   16      0.13      0.00
   -4   -3   16     -0.01      0.00
    7   -3   16      0.08      0.00
    8   -3   16      1.40      0.00
    9   -3   16      0.96      0.00
   -6   -2   16      1.46      0.00
   -5   -2   16     -0.15      0.00
    8   -2   16     -1.95      0.00
    9   -2   16     -0.71      0.00
   -7   -1   16     -0.27      0.00
   -6   -1   16     -1.89      0.00
    9   -1   16      0.06      0.00
   10   -1   16     -0.58      0.00
   -7    0   16     -0.25      0.00
   -6    0   16      1.46      0.00
   -7    1   16      1.03      0.00
   -6    1   16     -0.66      0.00
   11    1   16     -0.57      0.00
   -8    2   16      0.03      0.00
   -7    2   16     -1.56      0.00
   11    2   16      1.09      0.00
   -8    3   16     -0.60      0.00
   -7    3   16      1.04      0.00
   11    3   16     -1.80      0.00
   -8    4   16      0.21      0.00
   -7    4   16     -1.03      0.00
   11    4   16      1.14      0.00
   -8    5   16     -0.16      0.00
   -7    5   16      0.72      0.00
   11    5   16     -1.16      0.00
   11    6   16     -0.54      0.00
   -8    8   16     -1.22      0.00
   -8    9   16      0.64      0.00
   11   10   16      0.27      0.00
    9   11   16      1.36      0.00
   10   11   16     -0.99      0.00
   -7   12   16      1.10      0.00
    9   12   16     -0.20      0.00
   10   12   16      0.21      0.00
   -6   13   16      0.29      0.00
    8   13   16     -1.93      0.00
    9   13   16     -0.45      0.00
   10   13   16      0.10      0.00
   -6   14   16     -0.45      0.00
    7   14   16     -1.01      0.00
    8   14   16      1.67      0.00
    9   14   16      0.09      0.00
   -5   15   16     -1.57      0.00
    6   15   16      1.31      0.00
    7   15   16      1.06      0.00
    8   15   16     -1.46      0.00
   -4   16   16     -0.61      0.00
   -3   16   16      0.78      0.00
    5   16   16     -0.50      0.00
    6   16   16     -1.10      0.00
    7   16   16     -0.98      0.00
   -3   17   16     -1.00      0.00
   -2   17   16     -1.27      0.00
   -1   17   16     -0.76      0.00
    0   17   16     -0.96      0.00
    3   17   16     -0.94      0.00
    4   17   16      1.16      0.00
    5   17   16      1.25      0.00
    6   17   16      0.56      0.00
   -2   18   16      0.34      0.00
   -1   18   16      0.06      0.00
    0   18   16      0.17      0.00
    1   18   16     -0.06      0.00
    2   18   16      0.88      0.00
    3   18   16      1.50      0.00
    4   18   16     -0.56      0.00
    5   18   16     -1.07      0.00
    1   -6   17      0.38      0.00
    2   -6   17      0.57      0.00
    3   -6   17      0.61      0.00
   -2   -5   17     -0.18      0.00
   -1   -5   17     -0.71      0.00
    0   -5   17      0.13      0.00
    1   -5   17      0.08      0.00
    2   -5   17     -1.27      0.00
    3   -5   17     -0.96      0.00
    4   -5   17     -0.81      0.00
    5   -5   17      0.03      0.00
   -3   -4   17      0.11      0.00
   -2   -4   17     -0.59      0.00
   -1   -4   17      0.84      0.00
    0   -4   17     -0.36      0.00
    1   -4   17     -0.69      0.00
    2   -4   17      0.93      0.00
    3   -4   17      0.76      0.00
    4   -4   17      1.20      0.00
    5   -4   17     -0.34      0.00
    6   -4   17     -0.45      0.00
    7   -4   17     -0.09      0.00
   -4   -3   17      0.37      0.00
   -3   -3   17     -0.74      0.00
   -2   -3   17      1.11      0.00
   -1   -3   17     -1.13      0.00
    4   -3   17     -1.62      0.00
    5   -3   17      0.74      0.00
    6   -3   17     -0.02      0.00
    7   -3   17      0.11      0.00
    8   -3   17      1.10      0.00
   -5   -2   17      0.14      0.00
   -4   -2   17      0.61      0.00
   -3   -2   17      1.47      0.00
    6   -2   17      0.91      0.00
    7   -2   17     -0.08      0.00
    8   -2   17     -1.34      0.00
   -5   -1   17      0.05      0.00
   -4   -1   17     -1.06      0.00
    7   -1   17      0.61      0.00
    8   -1   17      1.77      0.00
    9   -1   17      0.42      0.00
   -6    0   17      0.76      0.00
   -5    0   17      0.60      0.00
    8    0   17     -0.91      0.00
    9    0   17      0.07      0.00
   -6    1   17      0.21      0.00
   -5    1   17     -1.18      0.00
   -7    2   17     -0.79      0.00
   -6    2   17     -0.39      0.00
   -5    2   17      1.70      0.00
   -7    3   17      0.86      0.00
   -6    3   17     -0.95      0.00
   -7    4   17     -0.40      0.00
   -6    4   17      2.94      0.00
   -7    5   17      0.52      0.00
   -6    5   17     -3.18      0.00
   10    5   17     -2.63      0.00
   -7    6   17     -0.45      0.00
   11    6   17      1.20      0.00
   -7    7   17      0.61      0.00
   -7    8   17      0.23      0.00
   -7    9   17     -1.44      0.00
   -7   10   17      2.13      0.00
    9   10   17     -1.32      0.00
   10   10   17      1.15      0.00
    8   11   17     -0.60      0.00
    9   11   17      1.33      0.00
   10   11   17     -0.44      0.00
   -6   12   17      0.78      0.00
   -5   12   17      0.76      0.00
    8   12   17      0.87      0.00
    9   12   17     -0.43      0.00
    7   13   17      0.21      0.00
    8   13   17     -0.90      0.00
    9   13   17     -0.33      0.00
   -5   14   17      1.91      0.00
    6   14   17     -0.55      0.00
    7   14   17     -0.58      0.00
    8   14   17      0.78      0.00
   -4   15   17      0.35      0.00
    5   15   17     -0.92      0.00
    6   15   17      0.91      0.00
    7   15   17      0.74      0.00
    8   15   17     -0.60      0.00
   -3   16   17      0.75      0.00
   -2   16   17      1.89      0.00
    1   16   17     -3.21      0.00
    2   16   17      0.91      0.00
    3   16   17      1.12      0.00
    4   16   17     -0.69      0.00
    5   16   17     -0.27      0.00
    6   16   17     -0.81      0.00
    7   16   17     -0.32      0.00
   -2   17   17     -1.35      0.00
   -1   17   17     -1.00      0.00
    0   17   17     -1.80      0.00
    1   17   17      2.21      0.00
    2   17   17     -0.69      0.00
    3   17   17     -1.31      0.00
    4   17   17      0.46      0.00
    5   17   17      0.87      0.00
    0   18   17      0.41      0.00
    1   18   17     -1.24      0.00
    2   18   17      0.00      0.00
    3   18   17      1.09      0.00
    0   -4   18     -0.41      0.00
    1   -4   18     -0.62      0.00
    2   -4   18      0.70      0.00
    3   -4   18      0.58      0.00
    4   -4   18      0.70      0.00
   -2   -3   18      1.06      0.00
   -1   -3   18     -0.32      0.00
    0   -3   18      0.90      0.00
    1   -3   18      0.82      0.00
    2   -3   18      0.25      0.00
    3   -3   18      0.42      0.00
    4   -3   18     -0.66      0.00
    5   -3   18      0.52      0.00
    6   -3   18     -0.03      0.00
   -3   -2   18      0.78      0.00
   -2   -2   18     -1.33      0.00
   -1   -2   18      0.18      0.00
    0   -2   18     -1.21      0.00
    1   -2   18     -0.65      0.00
    2   -2   18     -0.70      0.00
    3   -2   18     -1.46      0.00
    4   -2   18      0.61      0.00
    5   -2   18     -0.98      0.00
    6   -2   18      0.58      0.00
    7   -2   18     -0.03      0.00
   -4   -1   18     -1.00      0.00
   -3   -1   18     -1.08      0.00
   -2   -1   18      0.90      0.00
   -1   -1   18      0.44      0.00
    5   -1   18      1.44      0.00
    6   -1   18     -1.35      0.00
    7   -1   18      0.02      0.00
   -4    0   18      1.42      0.00
   -3    0   18      0.47      0.00
    6    0   18      1.76      0.00
    7    0   18     -0.64      0.00
    8    0   18     -0.86      0.00
   -5    1   18     -0.51      0.00
   -4    1   18     -2.10      0.00
    7    1   18      0.38      0.00
    8    1   18     -0.12      0.00
    9    1   18     -0.33      0.00
   -5    2   18      0.94      0.00
   -6    3   18     -0.15      0.00
   -5    3   18     -1.24      0.00
   -6    4   18      1.85      0.00
   -5    4   18      1.57      0.00
   -6    5   18     -2.48      0.00
   -5    5   18     -1.77      0.00
   10    5   18     -2.04      0.00
   -6    6   18      1.45      0.00
   -5    6   18      1.92      0.00
   10    6   18      1.84      0.00
   -6    7   18      0.00      0.00
   10    7   18     -2.58      0.00
   -6    8   18     -0.80      0.00
   10    8   18      1.42      0.00
   -6    9   18      0.59      0.00
   -6   10   18      0.04      0.00
    8   10   18     -0.44      0.00
    9   10   18     -0.38      0.00
    7   11   18     -1.05      0.00
    8   11   18     -0.02      0.00
    9   11   18      0.48      0.00
   -5   12   18      0.33      0.00
    6   12   18     -1.48      0.00
    7   12   18      0.65      0.00
    8   12   18      0.37      0.00
    5   13   18     -0.04      0.00
    6   13   18      0.56      0.00
    7   13   18      0.01      0.00
    8   13   18     -0.09      0.00
   -4   14   18     -0.47      0.00
    1   14   18     -1.07      0.00
    2   14   18      0.96      0.00
    3   14   18     -0.18      0.00
    4   14   18     -0.83      0.00
    5   14   18      0.79      0.00
    6   14   18      0.00      0.00
    7   14   18     -0.16      0.00
   -3   15   18     -0.69      0.00
    1   15   18      2.40      0.00
    2   15   18     -0.55      0.00
    3   15   18     -0.82      0.00
    4   15   18      0.85      0.00
    5   15   18     -0.52      0.00
    6   15   18      0.21      0.00
   -2   16   18      1.55      0.00
   -1   16   18      1.63      0.00
    0   16   18      1.48      0.00
    1   16   18     -2.48      0.00
    2   16   18      0.36      0.00
    3   16   18      1.41      0.00
    4   16   18     -0.28      0.00
    5   16   18     -0.04      0.00
    0   17   18     -1.07      0.00
    1   17   18      2.16      0.00
    2   17   18      0.28      0.00
    3   17   18     -1.02      0.00
    0   -2   19     -1.10      0.00
    1   -2   19     -0.61      0.00
    2   -2   19     -0.20      0.00
    3   -2   19     -1.39      0.00
    4   -2   19     -0.12      0.00
   -2   -1   19      0.40      0.00
   -1   -1   19      0.69      0.00
    0   -1   19      1.03      0.00
    1   -1   19      0.65      0.00
    2   -1   19     -0.34      0.00
    3   -1   19      1.94      0.00
    4   -1   19      0.13      0.00
    5   -1   19      0.77      0.00
    6   -1   19     -0.41      0.00
   -3    0   19      0.57      0.00
   -2    0   19     -0.03      0.00
   -1    0   19     -1.19      0.00
    0    0   19     -1.01      0.00
    1    0   19     -1.09      0.00
    2    0   19      0.59      0.00
    3    0   19     -2.07      0.00
    4    0   19     -0.43      0.00
    5    0   19     -1.05      0.00
    6    0   19      0.98      0.00
   -3    1   19     -0.18      0.00
   -2    1   19      0.05      0.00
    5    1   19      1.06      0.00
    6    1   19     -1.26      0.00
    7    1   19      0.68      0.00
   -4    2   19      1.78      0.00
    6    2   19      1.44      0.00
    7    2   19      0.02      0.00
    8    2   19      0.72      0.00
   -4    3   19     -1.58      0.00
   -4    4   19      0.56      0.00
   -5    5   19     -1.45      0.00
   -4    5   19      0.27      0.00
   -5    6   19      1.33      0.00
   -4    6   19     -0.76      0.00
    9    6   19     -1.32      0.00
   -5    7   19     -1.15      0.00
   -4    7   19     -0.14      0.00
    9    7   19      1.62      0.00
   -5    8   19      0.45      0.00
    9    8   19     -0.40      0.00
   -5    9   19     -0.31      0.00
    7    9   19     -0.33      0.00
    8    9   19      1.68      0.00
    6   10   19     -1.66      0.00
    7   10   19      0.54      0.00
    8   10   19     -1.12      0.00
   -4   11   19      1.02      0.00
   -3   11   19     -0.13      0.00
   -2   11   19      0.51      0.00
   -1   11   19     -0.39      0.00
    6   11   19      2.05      0.00
    7   11   19     -0.64      0.00
    8   11   19      0.17      0.00
   -4   12   19     -1.20      0.00
   -3   12   19      0.28      0.00
   -2   12   19     -0.88      0.00
   -1   12   19     -0.54      0.00
    0   12   19     -0.37      0.00
    2   12   19      0.72      0.00
    3   12   19     -0.80      0.00
    4   12   19     -0.90      0.00
    5   12   19     -0.05      0.00
    6   12   19     -1.63      0.00
    7   12   19      0.05      0.00
   -3   13   19     -0.99      0.00
   -2   13   19     -0.31      0.00
    2   13   19     -1.11      0.00
    3   13   19      1.01      0.00
    4   13   19      0.98      0.00
    5   13   19     -0.04      0.00
    6   13   19      0.34      0.00
    7   13   19      0.01      0.00
   -2   14   19      0.69      0.00
    2   14   19      0.66      0.00
    3   14   19     -0.65      0.00
    4   14   19     -1.30      0.00
    5   14   19     -0.01      0.00
    6   14   19      0.13      0.00
    2   15   19     -0.45      0.00
    3   15   19     -0.47      0.00
    4   15   19      0.86      0.00
    5   15   19     -0.01      0.00
    1   16   19     -1.86      0.00
    2   16   19     -0.38      0.00
    3   16   19      0.66      0.00
    1    0   20     -0.44      0.00
    2    0   20      0.93      0.00
    3    0   20     -1.21      0.00
   -1    1   20      1.12      0.00
    0    1   20      0.30      0.00
    1    1   20      0.65      0.00
    2    1   20     -0.45      0.00
    3    1   20      1.26      0.00
    4    1   20      0.41      0.00
    5    1   20      0.74      0.00
   -2    2   20     -0.79      0.00
   -1    2   20     -1.22      0.00
    0    2   20      0.05      0.00
    1    2   20     -0.11      0.00
    2    2   20      0.23      0.00
    3    2   20     -0.74      0.00
    4    2   20     -0.49      0.00
    5    2   20     -0.96      0.00
    6    2   20      0.49      0.00
    5    3   20      1.00      0.00
    6    3   20     -0.56      0.00
   -3    4   20      0.29      0.00
    7    4   20      1.86      0.00
   -3    5   20     -0.12      0.00
   -3    6   20      0.27      0.00
   -3    7   20     -0.05      0.00
   -3    8   20      0.95      0.00
    6    8   20      0.37      0.00
    7    8   20      0.41      0.00
   -3    9   20     -0.21      0.00
    5    9   20      0.01      0.00
    6    9   20     -0.09      0.00
    7    9   20     -0.01      0.00
   -3   10   20      0.31      0.00
   -2   10   20     -0.62      0.00
   -1   10   20     -0.11      0.00
    0   10   20      0.69      0.00
    1   10   20      0.14      0.00
    2   10   20     -0.01      0.00
    3   10   20      1.58      0.00
    4   10   20     -0.10      0.00
    5   10   20      0.84      0.00
    6   10   20     -0.35      0.00
    7   10   20      0.30      0.00
   -2   11   20      1.48      0.00
   -1   11   20      0.88      0.00
    0   11   20      0.06      0.00
    1   11   20      0.56      0.00
    2   11   20     -0.46      0.00
    3   11   20     -1.41      0.00
    4   11   20      0.83      0.00
    5   11   20     -0.78      0.00
    6   11   20      1.04      0.00
   -2   12   20     -0.60      0.00
   -1   12   20     -0.29      0.00
    0   12   20     -0.05      0.00
    1   12   20     -0.12      0.00
    2   12   20      1.00      0.00
    3   12   20      0.56      0.00
    4   12   20     -0.92      0.00
    5   12   20      0.62      0.00
    6   12   20     -0.61      0.00
   -1   13   20      0.91      0.00
    0   13   20      1.10      0.00
    1   13   20      0.20      0.00
    2   13   20     -0.93      0.00
    3   13   20      0.32      0.00
    4   13   20      0.98      0.00
    5   13   20     -0.23      0.00
    0   14   20     -0.55      0.00
    1   14   20      0.29      0.00
    2   14   20      1.06      0.00
    3   14   20     -0.08      0.00
    4   14   20     -0.78      0.00
    2    3   21      0.58      0.00
    3    3   21      0.08      0.00
    0    4   21     -0.76      0.00
    4    4   21     -0.67      0.00
    0    5   21      0.54      0.00
    4    5   21      0.00      0.00
    5    5   21      0.48      0.00
   -1    6   21     -0.16      0.00
    0    6   21     -0.34      0.00
   -1    7   21     -0.44      0.00
    1    7   21     -1.25      0.00
    2    7   21     -0.09      0.00
    3    7   21     -0.78      0.00
    4    7   21     -0.98      0.00
    5    7   21      0.53      0.00
   -1    8   21      0.32      0.00
    1    8   21      1.27      0.00
    2    8   21     -0.38      0.00
    3    8   21      0.72      0.00
    4    8   21      0.77      0.00
    5    8   21     -0.86      0.00
   -1    9   21     -0.20      0.00
    0    9   21     -0.39      0.00
    1    9   21     -0.84      0.00
    2    9   21      0.85      0.00
    3    9   21     -0.89      0.00
    4    9   21     -0.27      0.00
    5    9   21      0.36      0.00
    0   10   21      0.10      0.00
    1   10   21      0.43      0.00
    2   10   21     -0.46      0.00
    3   10   21      1.40      0.00
    4   10   21     -0.52      0.00
    5   10   21      0.00      0.00
    0   11   21     -0.01      0.00
    1   11   21     -0.01      0.00
    2   11   21      0.18      0.00
    3   11   21     -1.14      0.00
    4   11   21      1.03      0.00
    2   12   21      0.22      0.00
    0    0    0      0.00      0.00
# SQUEEZE RESULTS (Version = 230916)
# Note: Data are Listed for all Voids in the P1 Unit Cell
# i.e. Centre of Gravity, Solvent Accessible Volume,
# Recovered number of Electrons in the Void and
# Details about the Squeezed Material
loop_
  _platon_squeeze_void_nr
  _platon_squeeze_void_average_x
  _platon_squeeze_void_average_y
  _platon_squeeze_void_average_z
  _platon_squeeze_void_volume
  _platon_squeeze_void_count_electrons
  _platon_squeeze_void_content
   1  0.000  0.000  0.500        29         1 ' '
   2 -0.034  0.500  1.000       346        95 ' '
# Missing Reflections Below sin(th)/lambda = 0.25
loop_
  _platon_missing_refln_index_h
  _platon_missing_refln_index_k
  _platon_missing_refln_index_l
  _platon_missing_refln_theta
    1    0    0     1.964
   -1    1    0     2.469
    0    1    0     1.499
    1    1    0     2.474
    0   -1    1     2.459
   -1    0    1     2.617
    0    0    1     1.484
    1    0    1     2.297
   -1    1    1     2.738
    0    1    1     1.691
    1    1    1     2.438
_platon_squeeze_void_probe_radius                  1.20
_platon_squeeze_details
)
TITL T         P -1         R = 0.08
CELL   10.4753   14.5642   14.8464     68.84     81.76     87.13
SPGR P-1
# Solvent Accessible Volume =       376
# Electrons Found in S.A.V. =        96
# Note: Atoms in Void as Cxxx and Qxxx all others
C101 0.622 0.613 0.022 !       1.80 eA-3
C102 0.598 0.546 0.031 !       1.71 eA-3
C103 0.425 0.481 0.001 !       1.67 eA-3
C104 0.539 0.501 0.036 !       1.59 eA-3
C105 0.735 0.638 0.030 !       1.54 eA-3
C106 0.515 0.553 0.046 !       1.50 eA-3
C107 0.498 0.471 0.001 !       1.50 eA-3
Q108 0.515 0.091 0.168 !       1.43 eA-3
C109 0.874 0.484 0.013 !       1.39 eA-3
C110 0.572 0.438 0.036 !       1.37 eA-3
C111 0.752 0.434 0.105 !       1.36 eA-3
C112 0.017 0.502 0.004 !       1.34 eA-3
C113 0.845 0.450 0.080 !       1.33 eA-3
C114 0.348 0.448-0.002 !       1.33 eA-3
C115 1.002 0.544 0.089 !       1.32 eA-3
C116 0.087 0.517 0.035 !       1.30 eA-3
C117 0.554 0.530 0.080 !       1.29 eA-3
C118 0.621 0.468 0.035 !       1.29 eA-3
C119 0.201 0.542 0.050 !       1.28 eA-3
C120 0.786 0.449 0.031 !       1.26 eA-3
C121 0.792 0.481 0.121 !       1.25 eA-3
C122 0.553 0.593 0.047 !       1.23 eA-3
C123 0.816 0.479 0.055 !       1.22 eA-3
C124 0.439 0.422 0.007 !       1.20 eA-3
C125 0.092 0.549 0.062 !       1.19 eA-3
C126 0.921 0.528 0.140 !       1.17 eA-3
C127 0.724 0.484 0.028 !       1.15 eA-3
C128 0.036 0.469 0.045 !       1.11 eA-3
C129 0.706 0.602 0.020 !       1.11 eA-3
C130 0.678 0.451 0.079 !       1.09 eA-3
C131 1.006 0.438 0.016 !       1.09 eA-3
C132 0.133 0.565 0.036 !       1.08 eA-3
C133 0.701 0.443 0.042 !       1.08 eA-3
C134 0.566 0.501 0.158 !       1.07 eA-3
C135 0.944 0.544 0.086 !       1.07 eA-3
C136 0.278 0.563 0.014 !       1.07 eA-3
C137 0.166 0.530 0.032 !       1.06 eA-3
C138 0.116 0.451 0.062 !       1.06 eA-3
C139 1.019 0.541 0.026 !       1.05 eA-3
C140 0.655 0.515 0.079 !       1.04 eA-3
C141 0.851 0.437 0.172 !       1.03 eA-3
C142 0.065 0.579 0.020 !       1.03 eA-3
C143 0.066 0.408 0.033 !       1.03 eA-3
C144 0.821 0.407 0.023 !       1.02 eA-3
C145 0.938 0.489 0.107 !       1.02 eA-3
C146 0.152 0.498 0.079 !       1.01 eA-3
C147 0.964 0.433 0.047 !       1.01 eA-3
C148 0.937 0.580 0.031 !       0.99 eA-3
Q149 0.841 0.377 0.187 !       0.99 eA-3
C150 0.245 0.512 0.020 !       0.99 eA-3
C151 0.667 0.620 0.072 !       0.98 eA-3
C152 0.492 0.555 0.104 !       0.97 eA-3
C153 0.938 0.501 0.055 !       0.97 eA-3
C154 0.581 0.483 0.075 !       0.96 eA-3
C155 0.813 0.522 0.060 !       0.96 eA-3
C156 0.024 0.560 0.138 !       0.96 eA-3
C157 0.504 0.492 0.125 !       0.95 eA-3
C158 0.817 0.412 0.125 !       0.94 eA-3
C159 0.224 0.384 0.002 !       0.94 eA-3
C160 0.457 0.560 0.065 !       0.92 eA-3
C161 0.185 0.485 0.032 !       0.92 eA-3
C162 0.977 0.576 0.105 !       0.92 eA-3
C163 0.874 0.499 0.096 !       0.90 eA-3
C164 0.634 0.420 0.081 !       0.90 eA-3
C165 0.897 0.436 0.099 !       0.88 eA-3
C166 0.975 0.434 0.128 !       0.88 eA-3
C167 0.745 0.531 0.015 !       0.88 eA-3
C168 0.060 0.513 0.128 !       0.87 eA-3
C169 0.708 0.404 0.114 !       0.86 eA-3
C170 0.840 0.597 0.032 !       0.85 eA-3
C171 0.910 0.609 0.062 !       0.84 eA-3
Q172 0.171 0.359 0.045 !       0.83 eA-3
C173 0.466 0.482 0.078 !       0.83 eA-3
Q174 0.093 0.358 0.080 !       0.82 eA-3
Q175 0.588 0.359 0.014 !       0.81 eA-3
C176 0.851 0.500 0.157 !       0.81 eA-3
Q177 0.951 0.972 0.201 !       0.81 eA-3
Q178 0.505 0.392 0.046 !       0.81 eA-3
Q179 0.263 0.990 0.157 !       0.80 eA-3
Q180 0.809 0.623 0.079 !       0.80 eA-3
C181 0.892 0.406 0.144 !       0.78 eA-3
C182 0.845 0.531 0.107 !       0.78 eA-3
Q183 0.538 0.529 0.205 !       0.78 eA-3
Q184 0.525 0.327 0.061 !       0.77 eA-3
C185 0.378 0.483 0.076 !       0.77 eA-3
Q186 0.766 0.361 0.129 !       0.77 eA-3
C187 0.787 0.375 0.065 !       0.76 eA-3
C188 0.251 0.390 0.046 !       0.76 eA-3
C189 0.717 0.457 0.155 !       0.75 eA-3
Q190 0.126 0.987 0.205 !       0.75 eA-3
C191 0.023 0.454 0.150 !       0.75 eA-3
Q192 0.195 0.325-0.001 !       0.74 eA-3
C193 0.867 0.376 0.098 !       0.74 eA-3
C194 0.668 0.392 0.056 !       0.74 eA-3
Q195 0.792 0.420 0.204 !       0.73 eA-3
Q196 0.882 0.591 0.104 !       0.73 eA-3
Q197 0.599 0.061 0.218 !       0.72 eA-3
Q198 0.402 0.530 0.158 !       0.71 eA-3
Q199 0.498 0.016 0.062 !       0.71 eA-3
)
;
_shelx_fab_checksum              18937
loop_
_space_group_symop_operation_xyz
'x, y, z'
'-x, -y, -z'
loop_
_atom_site_label
_atom_site_type_symbol
_atom_site_fract_x
_atom_site_fract_y
_atom_site_fract_z
_atom_site_U_iso_or_equiv
_atom_site_adp_type
_atom_site_occupancy
_atom_site_site_symmetry_order
_atom_site_calc_flag
_atom_site_refinement_flags_posn
_atom_site_refinement_flags_adp
_atom_site_refinement_flags_occupancy
_atom_site_disorder_assembly
_atom_site_disorder_group
Cd1 Cd 0.58337(4) 0.10941(2) 1.18556(2) 0.05465(15) Uani 0.75 1 d . . P . .
Co1 Co 0.58337(4) 0.10941(2) 1.18556(2) 0.05465(15) Uani 0.25 1 d . . P . .
Cd2 Cd 0.500000 0.000000 1.000000 0.04848(16) Uani 0.75 2 d S . P . .
Co2 Co 0.500000 0.000000 1.000000 0.04848(16) Uani 0.25 2 d S . P . .
O1 O 0.7370(3) 0.1828(3) 1.0563(2) 0.0675(9) Uani 1 1 d . . . . .
O2 O 0.5593(3) 0.1368(2) 1.0211(2) 0.0528(7) Uani 1 1 d . . . . .
O3 O 0.6111(4) 0.9539(2) 0.2419(3) 0.0850(12) Uani 1 1 d . . . . .
O4 O 0.6122(3) 0.9080(2) 0.1134(2) 0.0639(9) Uani 1 1 d . . . . .
O5 O 1.4635(5) 0.2488(3) 0.1870(3) 0.0929(13) Uani 1 1 d . . . . .
O6 O 1.4026(5) 0.1060(3) 0.2938(3) 0.0981(14) Uani 1 1 d . . . . .
C1 C 0.6688(5) 0.1804(3) 0.9952(3) 0.0487(10) Uani 1 1 d . . . . .
C2 C 0.7132(5) 0.2328(3) 0.8884(3) 0.0482(10) Uani 1 1 d . . . . .
C3 C 0.6219(5) 0.2633(3) 0.8223(3) 0.0529(11) Uani 1 1 d . . . . .
H3 H 0.533807 0.249917 0.844712 0.064 Uiso 1 1 calc R U . . .
C4 C 0.6620(5) 0.3126(3) 0.7253(3) 0.0539(11) Uani 1 1 d . . . . .
H4 H 0.600185 0.334510 0.682078 0.065 Uiso 1 1 calc R U . . .
C5 C 0.7919(4) 0.3309(3) 0.6893(3) 0.0433(9) Uani 1 1 d . . . . .
C6 C 0.8800(5) 0.3007(3) 0.7553(3) 0.0567(11) Uani 1 1 d . . . . .
H6 H 0.968328 0.312470 0.732427 0.068 Uiso 1 1 calc R U . . .
C7 C 0.8416(5) 0.2537(3) 0.8540(3) 0.0542(11) Uani 1 1 d . . . . .
H7 H 0.903202 0.236008 0.897545 0.065 Uiso 1 1 calc R U . . .
C8 C 0.6306(5) 0.8927(3) 0.1988(3) 0.0553(11) Uani 1 1 d . . . . .
C9 C 0.6779(4) 0.7938(3) 0.2578(3) 0.0455(10) Uani 1 1 d . . . . .
C10 C 0.7124(4) 0.7228(3) 0.2161(3) 0.0495(10) Uani 1 1 d . . . . .
H10 H 0.705663 0.737335 0.149939 0.059 Uiso 1 1 calc R U . . .
C11 C 0.7567(4) 0.6312(3) 0.2710(3) 0.0499(10) Uani 1 1 d . . . . .
H11 H 0.780850 0.584703 0.241261 0.060 Uiso 1 1 calc R U . . .
C12 C 0.7658(4) 0.6069(3) 0.3700(3) 0.0435(9) Uani 1 1 d . . . . .
C13 C 0.7300(5) 0.6772(3) 0.4115(3) 0.0514(11) Uani 1 1 d . . . . .
H13 H 0.734159 0.662235 0.478137 0.062 Uiso 1 1 calc R U . . .
C14 C 0.6877(5) 0.7699(3) 0.3555(3) 0.0541(11) Uani 1 1 d . . . . .
H14 H 0.665561 0.817018 0.384761 0.065 Uiso 1 1 calc R U . . .
C15 C 1.3906(6) 0.1976(4) 0.2585(4) 0.0674(14) Uani 1 1 d . . . . .
C16 C 1.2853(5) 0.2453(3) 0.3046(3) 0.0591(12) Uani 1 1 d . . . . .
C17 C 1.2026(6) 0.1894(3) 0.3851(4) 0.0701(15) Uani 1 1 d . . . . .
H17 H 1.214703 0.120917 0.411727 0.084 Uiso 1 1 calc R U . . .
C18 C 1.1013(5) 0.2329(3) 0.4274(4) 0.0653(14) Uani 1 1 d . . . . .
H18 H 1.043638 0.193053 0.479927 0.078 Uiso 1 1 calc R U . . .
C19 C 1.0849(5) 0.3350(3) 0.3924(3) 0.0476(10) Uani 1 1 d . . . . .
C20 C 1.1722(5) 0.3907(3) 0.3128(3) 0.0581(12) Uani 1 1 d . . . . .
H20 H 1.163717 0.459584 0.287578 0.070 Uiso 1 1 calc R U . . .
C21 C 1.2698(5) 0.3466(3) 0.2712(3) 0.0629(13) Uani 1 1 d . . . . .
H21 H 1.327732 0.386055 0.218586 0.075 Uiso 1 1 calc R U . . .
C22 C 0.8359(4) 0.3791(3) 0.5835(3) 0.0438(9) Uani 1 1 d . . . . .
C23 C 0.7771(4) 0.4647(3) 0.5266(3) 0.0452(10) Uani 1 1 d . . . . .
H23 H 0.706602 0.491452 0.555623 0.054 Uiso 1 1 calc R U . . .
C24 C 0.8211(4) 0.5114(3) 0.4275(3) 0.0433(9) Uani 1 1 d . . . . .
C25 C 0.9212(4) 0.4677(3) 0.3849(3) 0.0449(10) Uani 1 1 d . . . . .
H25 H 0.950152 0.497198 0.317869 0.054 Uiso 1 1 calc R U . . .
C26 C 0.9793(4) 0.3816(3) 0.4392(3) 0.0424(9) Uani 1 1 d . . . . .
C27 C 0.9385(4) 0.3396(3) 0.5391(3) 0.0471(10) Uani 1 1 d . . . . .
H27 H 0.981144 0.283639 0.576968 0.056 Uiso 1 1 calc R U . . .
O7 O 0.708(2) 0.1417(9) 1.2890(12) 0.092(3) Uani 0.659(9) 1 d D U P A 1
N1 N 0.6729(10) 0.1626(8) 1.4330(7) 0.088(3) Uani 0.659(9) 1 d D U P A 1
C28 C 0.7251(15) 0.1089(10) 1.6025(9) 0.148(6) Uani 0.659(9) 1 d D U P A 1
H28A H 0.687688 0.080787 1.670331 0.222 Uiso 0.659(9) 1 calc R U P A 1
H28B H 0.792433 0.065785 1.588617 0.222 Uiso 0.659(9) 1 calc R U P A 1
H28C H 0.761578 0.172940 1.589872 0.222 Uiso 0.659(9) 1 calc R U P A 1
C29 C 0.6222(12) 0.1199(12) 1.5384(8) 0.106(4) Uani 0.659(9) 1 d D U P A 1
H29A H 0.584413 0.055152 1.552405 0.127 Uiso 0.659(9) 1 calc R U P A 1
H29B H 0.553554 0.162322 1.553660 0.127 Uiso 0.659(9) 1 calc R U P A 1
C30 C 0.5955(18) 0.3310(12) 1.381(2) 0.158(7) Uani 0.659(9) 1 d D U P A 1
H30A H 0.623371 0.399240 1.352507 0.237 Uiso 0.659(9) 1 calc R U P A 1
H30B H 0.541126 0.317450 1.339776 0.237 Uiso 0.659(9) 1 calc R U P A 1
H30C H 0.547226 0.319156 1.445152 0.237 Uiso 0.659(9) 1 calc R U P A 1
C31 C 0.7119(13) 0.2646(9) 1.3905(9) 0.102(4) Uani 0.659(9) 1 d D U P A 1
H31A H 0.761471 0.277248 1.326021 0.122 Uiso 0.659(9) 1 calc R U P A 1
H31B H 0.767582 0.278956 1.431575 0.122 Uiso 0.659(9) 1 calc R U P A 1
C32 C 0.6711(11) 0.1090(7) 1.3765(8) 0.091(3) Uani 0.659(9) 1 d D U P A 1
H32 H 0.640102 0.043955 1.405059 0.109 Uiso 0.659(9) 1 calc R U P A 1
O7A O 0.694(6) 0.1108(18) 1.296(2) 0.103(7) Uani 0.341(9) 1 d D U P A 2
N1A N 0.6713(14) 0.2252(12) 1.3757(10) 0.062(4) Uani 0.341(9) 1 d D U P A 2
C28A C 0.698(4) 0.122(3) 1.538(3) 0.205(17) Uani 0.341(9) 1 d D U P A 2
H28D H 0.658033 0.068044 1.594196 0.308 Uiso 0.341(9) 1 calc R U P A 2
H28E H 0.782071 0.101274 1.515419 0.308 Uiso 0.341(9) 1 calc R U P A 2
H28F H 0.706588 0.178520 1.555686 0.308 Uiso 0.341(9) 1 calc R U P A 2
C29A C 0.615(3) 0.1474(19) 1.4581(19) 0.118(7) Uani 0.341(9) 1 d D U P A 2
H29C H 0.604461 0.089769 1.440434 0.141 Uiso 0.341(9) 1 calc R U P A 2
H29D H 0.528817 0.167181 1.480787 0.141 Uiso 0.341(9) 1 calc R U P A 2
C30A C 0.558(3) 0.378(2) 1.384(4) 0.157(12) Uani 0.341(9) 1 d D U P A 2
H30D H 0.577646 0.443551 1.381336 0.235 Uiso 0.341(9) 1 calc R U P A 2
H30E H 0.509564 0.383040 1.331753 0.235 Uiso 0.341(9) 1 calc R U P A 2
H30F H 0.508086 0.342481 1.446292 0.235 Uiso 0.341(9) 1 calc R U P A 2
C31A C 0.682(2) 0.3240(16) 1.373(3) 0.105(7) Uani 0.341(9) 1 d D U P A 2
H31C H 0.732646 0.362434 1.311195 0.126 Uiso 0.341(9) 1 calc R U P A 2
H31D H 0.731173 0.322017 1.425332 0.126 Uiso 0.341(9) 1 calc R U P A 2
C32A C 0.703(2) 0.1975(15) 1.2980(13) 0.090(5) Uani 0.341(9) 1 d D U P A 2
H32A H 0.734931 0.246995 1.238967 0.109 Uiso 0.341(9) 1 calc R U P A 2
O8 O 0.6664(16) -0.0041(12) 0.9000(11) 0.058(3) Uani 0.559(10) 1 d D U P B 1
N2 N 0.8636(15) -0.0762(11) 0.8686(15) 0.106(4) Uani 0.559(10) 1 d D U P B 1
C33 C 1.024(2) 0.0482(15) 0.756(2) 0.240(9) Uani 0.559(10) 1 d D U P B 1
H33A H 1.029338 0.106355 0.697315 0.360 Uiso 0.559(10) 1 calc R U P B 1
H33B H 1.048760 0.065215 0.808816 0.360 Uiso 0.559(10) 1 calc R U P B 1
H33C H 1.081936 -0.001869 0.745100 0.360 Uiso 0.559(10) 1 calc R U P B 1
C34 C 0.892(2) 0.0107(16) 0.7825(18) 0.202(9) Uani 0.559(10) 1 d D U P B 1
H34A H 0.868667 -0.003158 0.727100 0.242 Uiso 0.559(10) 1 calc R U P B 1
H34B H 0.835645 0.063614 0.790519 0.242 Uiso 0.559(10) 1 calc R U P B 1
C35 C 0.982(2) -0.2065(17) 0.8167(16) 0.169(8) Uani 0.559(10) 1 d D U P B 1
H35A H 1.035386 -0.264385 0.840861 0.254 Uiso 0.559(10) 1 calc R U P B 1
H35B H 0.905209 -0.224684 0.797669 0.254 Uiso 0.559(10) 1 calc R U P B 1
H35C H 1.030435 -0.157702 0.760642 0.254 Uiso 0.559(10) 1 calc R U P B 1
C36 C 0.9439(18) -0.1637(13) 0.8966(13) 0.146(6) Uani 0.559(10) 1 d D U P B 1
H36A H 0.897542 -0.214344 0.953436 0.176 Uiso 0.559(10) 1 calc R U P B 1
H36B H 1.022573 -0.147465 0.916466 0.176 Uiso 0.559(10) 1 calc R U P B 1
C37 C 0.742(2) -0.0709(19) 0.9162(19) 0.119(7) Uani 0.559(10) 1 d D U P B 1
H37 H 0.713410 -0.128203 0.968995 0.142 Uiso 0.559(10) 1 calc R U P B 1
O8A O 0.692(3) 0.008(2) 0.893(2) 0.103(7) Uani 0.441(10) 1 d D U P B 2
N2A N 0.869(4) -0.054(3) 0.865(3) 0.172(6) Uani 0.441(10) 1 d . U P B 2
C33A C 1.029(3) 0.014(2) 0.906(2) 0.240(9) Uani 0.441(10) 1 d D U P B 2
H33D H 1.084353 0.071434 0.875595 0.360 Uiso 0.441(10) 1 calc R U P B 2
H33E H 0.979736 0.017038 0.965294 0.360 Uiso 0.441(10) 1 calc R U P B 2
H33F H 1.082081 -0.045061 0.921846 0.360 Uiso 0.441(10) 1 calc R U P B 2
C34A C 0.941(3) 0.011(2) 0.839(3) 0.186(8) Uani 0.441(10) 1 d D U P B 2
H34C H 0.891125 0.072223 0.821727 0.223 Uiso 0.441(10) 1 calc R U P B 2
H34D H 0.993060 0.010372 0.778453 0.223 Uiso 0.441(10) 1 calc R U P B 2
C35A C 0.907(5) -0.234(3) 0.891(3) 0.288(18) Uani 0.441(10) 1 d D U P B 2
H35D H 0.931062 -0.284835 0.864402 0.432 Uiso 0.441(10) 1 calc R U P B 2
H35E H 0.965243 -0.234347 0.936256 0.432 Uiso 0.441(10) 1 calc R U P B 2
H35F H 0.819323 -0.245552 0.924994 0.432 Uiso 0.441(10) 1 calc R U P B 2
C36A C 0.913(3) -0.137(2) 0.811(2) 0.196(8) Uani 0.441(10) 1 d D U P B 2
H36C H 0.854045 -0.134736 0.764747 0.235 Uiso 0.441(10) 1 calc R U P B 2
H36D H 1.000799 -0.123468 0.776074 0.235 Uiso 0.441(10) 1 calc R U P B 2
C37A C 0.739(4) -0.070(2) 0.893(3) 0.116(6) Uani 0.441(10) 1 d D U P B 2
H37A H 0.694623 -0.130008 0.908894 0.139 Uiso 0.441(10) 1 calc R U P B 2
loop_
_atom_site_aniso_label
_atom_site_aniso_U_11
_atom_site_aniso_U_22
_atom_site_aniso_U_33
_atom_site_aniso_U_23
_atom_site_aniso_U_13
_atom_site_aniso_U_12
Cd1 0.0699(3) 0.0454(2) 0.0368(2) -0.00841(16) 0.00696(18) 0.01912(18)
Co1 0.0699(3) 0.0454(2) 0.0368(2) -0.00841(16) 0.00696(18) 0.01912(18)
Cd2 0.0525(4) 0.0450(3) 0.0386(3) -0.0046(2) -0.0073(2) 0.0092(2)
Co2 0.0525(4) 0.0450(3) 0.0386(3) -0.0046(2) -0.0073(2) 0.0092(2)
O1 0.062(2) 0.090(2) 0.0446(18) -0.0145(17) -0.0108(17) -0.0040(18)
O2 0.052(2) 0.0512(16) 0.0418(17) -0.0058(13) 0.0071(14) -0.0016(14)
O3 0.126(4) 0.059(2) 0.057(2) -0.0109(18) -0.010(2) 0.037(2)
O4 0.072(3) 0.0576(18) 0.051(2) -0.0046(15) -0.0188(18) 0.0134(16)
O5 0.104(4) 0.080(2) 0.073(3) -0.018(2) 0.021(2) 0.033(2)
O6 0.106(4) 0.055(2) 0.117(3) -0.032(2) 0.035(3) 0.013(2)
C1 0.048(3) 0.047(2) 0.044(2) -0.0111(19) 0.000(2) 0.010(2)
C2 0.057(3) 0.042(2) 0.039(2) -0.0081(18) -0.004(2) -0.0020(19)
C3 0.041(3) 0.061(3) 0.045(2) -0.005(2) -0.002(2) 0.000(2)
C4 0.045(3) 0.062(3) 0.041(2) -0.001(2) -0.009(2) 0.005(2)
C5 0.047(3) 0.0368(19) 0.038(2) -0.0049(17) -0.0025(19) 0.0019(17)
C6 0.042(3) 0.062(3) 0.052(3) -0.006(2) 0.001(2) 0.000(2)
C7 0.044(3) 0.064(3) 0.041(2) -0.002(2) -0.007(2) -0.003(2)
C8 0.056(3) 0.051(2) 0.050(3) -0.008(2) -0.006(2) 0.011(2)
C9 0.040(3) 0.048(2) 0.041(2) -0.0087(18) -0.0038(19) 0.0072(18)
C10 0.053(3) 0.050(2) 0.039(2) -0.0085(19) -0.008(2) 0.009(2)
C11 0.053(3) 0.047(2) 0.047(2) -0.0148(19) -0.008(2) 0.0086(19)
C12 0.043(3) 0.042(2) 0.038(2) -0.0047(17) -0.0096(19) 0.0055(17)
C13 0.061(3) 0.049(2) 0.036(2) -0.0072(19) -0.008(2) 0.011(2)
C14 0.060(3) 0.050(2) 0.048(3) -0.014(2) -0.009(2) 0.014(2)
C15 0.069(4) 0.064(3) 0.070(4) -0.031(3) 0.001(3) 0.015(3)
C16 0.067(4) 0.050(2) 0.057(3) -0.020(2) 0.000(3) 0.011(2)
C17 0.080(4) 0.044(2) 0.075(4) -0.015(2) 0.008(3) 0.012(2)
C18 0.074(4) 0.043(2) 0.068(3) -0.014(2) 0.008(3) 0.005(2)
C19 0.056(3) 0.043(2) 0.041(2) -0.0135(19) -0.006(2) 0.0082(19)
C20 0.073(4) 0.043(2) 0.048(3) -0.009(2) 0.000(2) 0.015(2)
C21 0.070(4) 0.054(3) 0.051(3) -0.010(2) 0.009(2) 0.010(2)
C22 0.047(3) 0.0387(19) 0.036(2) -0.0030(17) -0.0023(19) -0.0029(17)
C23 0.049(3) 0.039(2) 0.042(2) -0.0093(18) -0.004(2) 0.0040(18)
C24 0.041(3) 0.042(2) 0.041(2) -0.0096(18) -0.0043(19) 0.0034(17)
C25 0.048(3) 0.042(2) 0.036(2) -0.0043(17) -0.0021(19) 0.0027(18)
C26 0.046(3) 0.0363(19) 0.042(2) -0.0112(17) -0.0029(19) 0.0031(17)
C27 0.049(3) 0.0383(19) 0.048(2) -0.0086(18) -0.009(2) 0.0084(18)
O7 0.120(8) 0.082(8) 0.085(5) -0.042(6) -0.015(5) -0.009(8)
N1 0.099(7) 0.091(6) 0.072(5) -0.026(5) 0.003(5) -0.041(5)
C28 0.211(16) 0.141(11) 0.074(7) -0.003(8) -0.026(8) -0.083(11)
C29 0.108(10) 0.121(8) 0.073(6) -0.022(6) 0.014(6) -0.022(8)
C30 0.161(16) 0.102(10) 0.221(17) -0.066(12) -0.038(17) -0.003(10)
C31 0.139(10) 0.071(6) 0.090(7) -0.017(6) -0.018(7) -0.029(6)
C32 0.106(8) 0.090(6) 0.080(5) -0.031(5) -0.014(6) -0.016(5)
O7A 0.153(16) 0.101(13) 0.065(10) -0.040(10) -0.017(10) -0.014(16)
N1A 0.086(9) 0.057(7) 0.045(6) -0.021(5) 0.003(6) -0.036(6)
C28A 0.23(3) 0.16(2) 0.14(2) 0.08(2) -0.06(2) -0.04(3)
C29A 0.139(16) 0.099(11) 0.090(10) -0.009(10) 0.013(11) -0.042(12)
C30A 0.12(2) 0.13(2) 0.25(3) -0.11(2) -0.01(2) -0.003(15)
C31A 0.100(15) 0.089(10) 0.133(16) -0.052(11) 0.004(15) -0.030(13)
C32A 0.113(12) 0.091(10) 0.071(8) -0.034(8) -0.010(9) 0.001(11)
O8 0.051(6) 0.050(5) 0.053(5) -0.005(4) 0.022(4) 0.004(4)
N2 0.058(6) 0.132(8) 0.148(9) -0.079(6) -0.009(6) 0.028(5)
C33 0.134(13) 0.161(13) 0.35(2) -0.019(15) 0.003(14) 0.009(10)
C34 0.143(13) 0.168(12) 0.234(16) -0.020(11) 0.027(12) -0.004(11)
C35 0.138(17) 0.186(17) 0.218(19) -0.119(15) -0.027(15) 0.063(13)
C36 0.110(11) 0.152(10) 0.165(12) -0.060(10) 0.014(10) 0.045(9)
C37 0.094(9) 0.148(11) 0.097(12) -0.032(9) -0.005(8) 0.054(8)
O8A 0.090(12) 0.069(9) 0.131(13) -0.008(9) -0.024(10) 0.000(9)
N2A 0.129(10) 0.186(12) 0.160(12) -0.050(10) 0.071(10) 0.015(9)
C33A 0.134(13) 0.161(13) 0.35(2) -0.019(15) 0.003(14) 0.009(10)
C34A 0.126(14) 0.155(13) 0.234(18) -0.061(14) 0.083(12) 0.015(10)
C35A 0.29(4) 0.195(16) 0.34(4) -0.068(19) 0.00(3) 0.03(3)
C36A 0.169(16) 0.217(15) 0.210(17) -0.099(12) -0.006(14) 0.028(14)
C37A 0.133(11) 0.113(10) 0.115(15) -0.056(10) -0.013(10) -0.012(10)
loop_
_atom_type_symbol
_atom_type_description
_atom_type_scat_dispersion_real
_atom_type_scat_dispersion_imag
_atom_type_scat_source
C C 0.0033 0.0016 'International Tables Vol C Tables 4.2.6.8 and 6.1.1.4'
Cd Cd -0.8075 1.2024 'International Tables Vol C Tables 4.2.6.8 and 6.1.1.4'
Co Co 0.3494 0.9721 'International Tables Vol C Tables 4.2.6.8 and 6.1.1.4'
N N 0.0061 0.0033 'International Tables Vol C Tables 4.2.6.8 and 6.1.1.4'
O O 0.0106 0.0060 'International Tables Vol C Tables 4.2.6.8 and 6.1.1.4'
H H 0.0000 0.0000 'International Tables Vol C Tables 4.2.6.8 and 6.1.1.4'
loop_
_geom_angle_atom_site_label_1
_geom_angle_atom_site_label_2
_geom_angle_atom_site_label_3
_geom_angle
_geom_angle_site_symmetry_1
_geom_angle_site_symmetry_3
O3 Cd1 O7A 84.9(7) 1_546 .
O3 Cd1 O1 110.68(14) 1_546 .
O7A Cd1 O1 96.0(11) . .
O3 Cd1 O6 94.33(15) 1_546 1_456
O1 Cd1 O6 154.95(13) . 1_456
O3 Cd1 O7 95.0(4) 1_546 .
O1 Cd1 O7 89.7(4) . .
O6 Cd1 O7 89.5(5) 1_456 .
O3 Cd1 O5 150.20(16) 1_546 1_456
O1 Cd1 O5 99.05(14) . 1_456
O6 Cd1 O5 55.91(14) 1_456 1_456
O7 Cd1 O5 86.8(5) . 1_456
O3 Cd1 O2 101.37(12) 1_546 .
O7A Cd1 O2 152.2(12) . .
O1 Cd1 O2 56.29(11) . .
O6 Cd1 O2 118.82(15) 1_456 .
O7 Cd1 O2 145.6(4) . .
O5 Cd1 O2 93.34(12) 1_456 .
O3 Cd1 C15 122.50(17) 1_546 1_456
O1 Cd1 C15 126.80(16) . 1_456
O6 Cd1 C15 28.18(15) 1_456 1_456
O7 Cd1 C15 87.1(5) . 1_456
O5 Cd1 C15 27.75(15) 1_456 1_456
O2 Cd1 C15 108.40(14) . 1_456
O3 Cd1 C1 109.72(13) 1_546 .
O7A Cd1 C1 123.8(11) . .
O1 Cd1 C1 27.72(12) . .
O6 Cd1 C1 141.21(16) 1_456 .
O7 Cd1 C1 117.1(4) . .
O5 Cd1 C1 95.60(13) 1_456 .
O2 Cd1 C1 28.64(12) . .
C15 Cd1 C1 120.02(15) 1_456 .
O8 Cd2 O8 180.0(9) 2_657 .
O8 Cd2 O4 85.6(5) 2_657 2_666
O8 Cd2 O4 94.4(5) . 2_666
O8 Cd2 O4 94.4(5) 2_657 1_546
O8 Cd2 O4 85.6(5) . 1_546
O4 Cd2 O4 180.00(14) 2_666 1_546
O8 Cd2 O2 84.5(5) 2_657 .
O8 Cd2 O2 95.5(5) . .
O4 Cd2 O2 89.13(11) 2_666 .
O4 Cd2 O2 90.87(11) 1_546 .
O8 Cd2 O2 95.5(5) 2_657 2_657
O8 Cd2 O2 84.5(5) . 2_657
O4 Cd2 O2 90.87(11) 2_666 2_657
O4 Cd2 O2 89.13(11) 1_546 2_657
O2 Cd2 O2 180.0 . 2_657
O4 Cd2 O8A 95.0(8) 2_666 .
O4 Cd2 O8A 85.0(8) 1_546 .
O2 Cd2 O8A 89.8(8) . .
O2 Cd2 O8A 90.2(8) 2_657 .
O8 Cd2 O8A 5.7(13) 2_657 2_657
O8 Cd2 O8A 174.3(13) . 2_657
O4 Cd2 O8A 85.0(8) 2_666 2_657
O4 Cd2 O8A 95.0(8) 1_546 2_657
O2 Cd2 O8A 90.2(8) . 2_657
O2 Cd2 O8A 89.8(8) 2_657 2_657
O8A Cd2 O8A 180.0 . 2_657
C1 O1 Cd1 93.5(3) . .
C1 O2 Cd2 128.7(3) . .
C1 O2 Cd1 88.4(2) . .
Cd2 O2 Cd1 112.83(11) . .
C8 O3 Cd1 130.7(3) . 1_564
C8 O4 Cd2 141.8(3) . 1_564
C15 O5 Cd1 90.3(3) . 1_654
C15 O6 Cd1 92.0(3) . 1_654
O1 C1 O2 121.4(4) . .
O1 C1 C2 119.6(4) . .
O2 C1 C2 119.0(4) . .
O1 C1 Cd1 58.7(2) . .
O2 C1 Cd1 62.9(2) . .
C2 C1 Cd1 173.0(3) . .
C7 C2 C3 119.1(4) . .
C7 C2 C1 121.2(4) . .
C3 C2 C1 119.7(4) . .
C4 C3 C2 119.8(5) . .
C4 C3 H3 120.1 . .
C2 C3 H3 120.1 . .
C3 C4 C5 121.6(4) . .
C3 C4 H4 119.2 . .
C5 C4 H4 119.2 . .
C6 C5 C4 117.8(4) . .
C6 C5 C22 120.6(4) . .
C4 C5 C22 121.6(4) . .
C5 C6 C7 121.7(5) . .
C5 C6 H6 119.2 . .
C7 C6 H6 119.2 . .
C2 C7 C6 120.0(4) . .
C2 C7 H7 120.0 . .
C6 C7 H7 120.0 . .
O4 C8 O3 125.7(4) . .
O4 C8 C9 118.7(4) . .
O3 C8 C9 115.6(4) . .
C14 C9 C10 118.2(4) . .
C14 C9 C8 120.9(4) . .
C10 C9 C8 120.9(4) . .
C11 C10 C9 120.8(4) . .
C11 C10 H10 119.6 . .
C9 C10 H10 119.6 . .
C10 C11 C12 120.9(4) . .
C10 C11 H11 119.6 . .
C12 C11 H11 119.6 . .
C13 C12 C11 118.1(3) . .
C13 C12 C24 120.7(3) . .
C11 C12 C24 121.0(4) . .
C12 C13 C14 120.7(4) . .
C12 C13 H13 119.6 . .
C14 C13 H13 119.6 . .
C9 C14 C13 121.2(4) . .
C9 C14 H14 119.4 . .
C13 C14 H14 119.4 . .
O5 C15 O6 121.8(5) . .
O5 C15 C16 119.5(5) . .
O6 C15 C16 118.8(5) . .
O5 C15 Cd1 62.0(3) . 1_654
O6 C15 Cd1 59.8(3) . 1_654
C16 C15 Cd1 176.8(4) . 1_654
C21 C16 C17 117.9(4) . .
C21 C16 C15 121.6(5) . .
C17 C16 C15 120.5(4) . .
C16 C17 C18 121.1(4) . .
C16 C17 H17 119.5 . .
C18 C17 H17 119.5 . .
C17 C18 C19 120.7(5) . .
C17 C18 H18 119.7 . .
C19 C18 H18 119.7 . .
C18 C19 C20 117.3(4) . .
C18 C19 C26 120.7(4) . .
C20 C19 C26 121.9(3) . .
C21 C20 C19 121.2(4) . .
C21 C20 H20 119.4 . .
C19 C20 H20 119.4 . .
C20 C21 C16 121.7(5) . .
C20 C21 H21 119.1 . .
C16 C21 H21 119.1 . .
C27 C22 C23 118.6(4) . .
C27 C22 C5 119.8(3) . .
C23 C22 C5 121.6(4) . .
C24 C23 C22 121.4(4) . .
C24 C23 H23 119.3 . .
C22 C23 H23 119.3 . .
C25 C24 C23 118.3(3) . .
C25 C24 C12 120.8(4) . .
C23 C24 C12 120.8(4) . .
C26 C25 C24 121.4(4) . .
C26 C25 H25 119.3 . .
C24 C25 H25 119.3 . .
C25 C26 C27 119.1(4) . .
C25 C26 C19 120.8(4) . .
C27 C26 C19 120.0(3) . .
C22 C27 C26 121.0(3) . .
C22 C27 H27 119.5 . .
C26 C27 H27 119.5 . .
C32 O7 Cd1 117.8(14) . .
C32 N1 C31 120.3(11) . .
C32 N1 C29 119.7(10) . .
C31 N1 C29 119.7(10) . .
C29 C28 H28A 109.5 . .
C29 C28 H28B 109.5 . .
H28A C28 H28B 109.5 . .
C29 C28 H28C 109.5 . .
H28A C28 H28C 109.5 . .
H28B C28 H28C 109.5 . .
N1 C29 C28 112.4(11) . .
N1 C29 H29A 109.1 . .
C28 C29 H29A 109.1 . .
N1 C29 H29B 109.1 . .
C28 C29 H29B 109.1 . .
H29A C29 H29B 107.9 . .
C31 C30 H30A 109.5 . .
C31 C30 H30B 109.5 . .
H30A C30 H30B 109.5 . .
C31 C30 H30C 109.5 . .
H30A C30 H30C 109.5 . .
H30B C30 H30C 109.5 . .
N1 C31 C30 110.5(12) . .
N1 C31 H31A 109.6 . .
C30 C31 H31A 109.6 . .
N1 C31 H31B 109.6 . .
C30 C31 H31B 109.6 . .
H31A C31 H31B 108.1 . .
O7 C32 N1 122.2(11) . .
O7 C32 H32 118.9 . .
N1 C32 H32 118.9 . .
C32A O7A Cd1 112(3) . .
C32A N1A C29A 112(2) . .
C32A N1A C31A 124.4(19) . .
C29A N1A C31A 124(2) . .
C29A C28A H28D 109.5 . .
C29A C28A H28E 109.5 . .
H28D C28A H28E 109.5 . .
C29A C28A H28F 109.5 . .
H28D C28A H28F 109.5 . .
H28E C28A H28F 109.5 . .
N1A C29A C28A 110(2) . .
N1A C29A H29C 109.7 . .
C28A C29A H29C 109.7 . .
N1A C29A H29D 109.7 . .
C28A C29A H29D 109.7 . .
H29C C29A H29D 108.2 . .
C31A C30A H30D 109.5 . .
C31A C30A H30E 109.5 . .
H30D C30A H30E 109.5 . .
C31A C30A H30F 109.5 . .
H30D C30A H30F 109.5 . .
H30E C30A H30F 109.5 . .
N1A C31A C30A 116.9(18) . .
N1A C31A H31C 108.1 . .
C30A C31A H31C 108.1 . .
N1A C31A H31D 108.1 . .
C30A C31A H31D 108.1 . .
H31C C31A H31D 107.3 . .
O7A C32A N1A 127(2) . .
O7A C32A H32A 116.5 . .
N1A C32A H32A 116.5 . .
C37 O8 Cd2 123.1(14) . .
C37 N2 C36 123.1(16) . .
C37 N2 C34 111.1(17) . .
C36 N2 C34 125.4(17) . .
C34 C33 H33A 109.5 . .
C34 C33 H33B 109.5 . .
H33A C33 H33B 109.5 . .
C34 C33 H33C 109.5 . .
H33A C33 H33C 109.5 . .
H33B C33 H33C 109.5 . .
C33 C34 N2 118(2) . .
C33 C34 H34A 107.7 . .
N2 C34 H34A 107.7 . .
C33 C34 H34B 107.7 . .
N2 C34 H34B 107.7 . .
H34A C34 H34B 107.1 . .
C36 C35 H35A 109.5 . .
C36 C35 H35B 109.5 . .
H35A C35 H35B 109.5 . .
C36 C35 H35C 109.5 . .
H35A C35 H35C 109.5 . .
H35B C35 H35C 109.5 . .
N2 C36 C35 114.5(15) . .
N2 C36 H36A 108.6 . .
C35 C36 H36A 108.6 . .
N2 C36 H36B 108.6 . .
C35 C36 H36B 108.6 . .
H36A C36 H36B 107.6 . .
O8 C37 N2 129(2) . .
O8 C37 H37 115.3 . .
N2 C37 H37 115.3 . .
C37A O8A Cd2 116(2) . .
C34A N2A C37A 139(4) . .
C34A N2A C36A 112(3) . .
C37A N2A C36A 103(3) . .
C34A C33A H33D 109.5 . .
C34A C33A H33E 109.5 . .
H33D C33A H33E 109.5 . .
C34A C33A H33F 109.5 . .
H33D C33A H33F 109.5 . .
H33E C33A H33F 109.5 . .
N2A C34A C33A 118(4) . .
N2A C34A H34C 107.9 . .
C33A C34A H34C 107.9 . .
N2A C34A H34D 107.9 . .
C33A C34A H34D 107.9 . .
H34C C34A H34D 107.2 . .
C36A C35A H35D 109.5 . .
C36A C35A H35E 109.5 . .
H35D C35A H35E 109.5 . .
C36A C35A H35F 109.5 . .
H35D C35A H35F 109.5 . .
H35E C35A H35F 109.5 . .
C35A C36A N2A 106(3) . .
C35A C36A H36C 110.6 . .
N2A C36A H36C 110.6 . .
C35A C36A H36D 110.6 . .
N2A C36A H36D 110.6 . .
H36C C36A H36D 108.7 . .
O8A C37A N2A 106(3) . .
O8A C37A H37A 127.1 . .
N2A C37A H37A 127.1 . .
loop_
_geom_bond_atom_site_label_1
_geom_bond_atom_site_label_2
_geom_bond_distance
_geom_bond_site_symmetry_2
Cd1 O3 2.133(3) 1_546
Cd1 O7A 2.15(5) .
Cd1 O1 2.285(4) .
Cd1 O6 2.291(4) 1_456
Cd1 O7 2.34(2) .
Cd1 O5 2.338(3) 1_456
Cd1 O2 2.377(3) .
Cd1 C15 2.649(5) 1_456
Cd1 C1 2.668(4) .
Cd2 O8 2.135(11) 2_657
Cd2 O8 2.135(11) .
Cd2 O4 2.188(3) 2_666
Cd2 O4 2.188(3) 1_546
Cd2 O2 2.255(3) .
Cd2 O2 2.255(3) 2_657
Cd2 O8A 2.36(2) .
Cd2 O8A 2.36(2) 2_657
O1 C1 1.243(5) .
O2 C1 1.279(5) .
O3 C8 1.266(5) .
O4 C8 1.248(5) .
O5 C15 1.233(7) .
O6 C15 1.251(6) .
C1 C2 1.504(6) .
C2 C7 1.377(6) .
C2 C3 1.410(6) .
C3 C4 1.369(6) .
C3 H3 0.9400 .
C4 C5 1.391(6) .
C4 H4 0.9400 .
C5 C6 1.383(6) .
C5 C22 1.483(6) .
C6 C7 1.383(6) .
C6 H6 0.9400 .
C7 H7 0.9400 .
C8 C9 1.493(5) .
C9 C14 1.382(6) .
C9 C10 1.394(5) .
C10 C11 1.386(5) .
C10 H10 0.9400 .
C11 C12 1.399(5) .
C11 H11 0.9400 .
C12 C13 1.385(5) .
C12 C24 1.484(5) .
C13 C14 1.395(5) .
C13 H13 0.9400 .
C14 H14 0.9400 .
C15 C16 1.490(7) .
C16 C21 1.385(6) .
C16 C17 1.383(7) .
C17 C18 1.396(7) .
C17 H17 0.9400 .
C18 C19 1.398(6) .
C18 H18 0.9400 .
C19 C20 1.401(6) .
C19 C26 1.488(6) .
C20 C21 1.372(6) .
C20 H20 0.9400 .
C21 H21 0.9400 .
C22 C27 1.390(6) .
C22 C23 1.400(5) .
C23 C24 1.398(6) .
C23 H23 0.9400 .
C24 C25 1.392(6) .
C25 C26 1.388(5) .
C25 H25 0.9400 .
C26 C27 1.395(6) .
C27 H27 0.9400 .
O7 C32 1.222(15) .
N1 C32 1.340(11) .
N1 C31 1.443(12) .
N1 C29 1.486(12) .
C28 C29 1.504(14) .
C28 H28A 0.9700 .
C28 H28B 0.9700 .
C28 H28C 0.9700 .
C29 H29A 0.9800 .
C29 H29B 0.9800 .
C30 C31 1.508(14) .
C30 H30A 0.9700 .
C30 H30B 0.9700 .
C30 H30C 0.9700 .
C31 H31A 0.9800 .
C31 H31B 0.9800 .
C32 H32 0.9400 .
O7A C32A 1.281(18) .
N1A C32A 1.348(15) .
N1A C29A 1.411(16) .
N1A C31A 1.436(16) .
C28A C29A 1.498(19) .
C28A H28D 0.9700 .
C28A H28E 0.9700 .
C28A H28F 0.9700 .
C29A H29C 0.9800 .
C29A H29D 0.9800 .
C30A C31A 1.501(18) .
C30A H30D 0.9700 .
C30A H30E 0.9700 .
C30A H30F 0.9700 .
C31A H31C 0.9800 .
C31A H31D 0.9800 .
C32A H32A 0.9400 .
O8 C37 1.198(15) .
N2 C37 1.382(18) .
N2 C36 1.455(15) .
N2 C34 1.445(17) .
C33 C34 1.458(17) .
C33 H33A 0.9700 .
C33 H33B 0.9700 .
C33 H33C 0.9700 .
C34 H34A 0.9800 .
C34 H34B 0.9800 .
C35 C36 1.527(16) .
C35 H35A 0.9700 .
C35 H35B 0.9700 .
C35 H35C 0.9700 .
C36 H36A 0.9800 .
C36 H36B 0.9800 .
C37 H37 0.9400 .
O8A C37A 1.225(18) .
N2A C34A 1.15(4) .
N2A C37A 1.38(4) .
N2A C36A 1.69(4) .
C33A C34A 1.472(18) .
C33A H33D 0.9700 .
C33A H33E 0.9700 .
C33A H33F 0.9700 .
C34A H34C 0.9800 .
C34A H34D 0.9800 .
C35A C36A 1.478(19) .
C35A H35D 0.9700 .
C35A H35E 0.9700 .
C35A H35F 0.9700 .
C36A H36C 0.9800 .
C36A H36D 0.9800 .
C37A H37A 0.9400 .
