#------------------------------------------------------------------------------
#$Date: 2019-11-17 13:04:36 +0200 (Sun, 17 Nov 2019) $
#$Revision: 230036 $
#$URL: file:///home/coder/svn-repositories/cod/cif/7/04/75/7047516.cif $
#------------------------------------------------------------------------------
#
# This file is available in the Crystallography Open Database (COD),
# http://www.crystallography.net/
#
# All data on this site have been placed in the public domain by the
# contributors.
#
data_7047516
loop_
_publ_author_name
'Chao, Meng-Yao'
'Chen, Jing'
'Young, David J.'
'Zhang, Wen-Hua'
'Lang, Jian-Ping'
_publ_section_title
;
 Smoothing the single-crystal to single-crystal conversions of a
 two-dimensional metal-organic framework via the hetero-metal doping of
 the linear trimetallic secondary building unit.
;
_journal_issue                   38
_journal_name_full
'Dalton transactions (Cambridge, England : 2003)'
_journal_page_first              13722
_journal_page_last               13729
_journal_paper_doi               10.1039/c8dt02813c
_journal_volume                  47
_journal_year                    2018
_chemical_formula_moiety
'C64 H42 Cd2.25 Co0.75 N2 O14, C5 H4 N [+ solvent]'
_chemical_formula_sum            'C69 H46 Cd2.25 Co0.75 N3 O14'
_chemical_formula_weight         1438.18
_space_group_crystal_system      triclinic
_space_group_IT_number           2
_space_group_name_Hall           '-P 1'
_space_group_name_H-M_alt        'P -1'
_symmetry_space_group_name_Hall  '-P 1'
_symmetry_space_group_name_H-M   'P -1'
_atom_sites_solution_hydrogens   mixed
_audit_creation_method           SHELXL-2016/6
_audit_update_record
;
2018-07-09 deposited with the CCDC.
2018-09-10 downloaded from the CCDC.
;
_cell_angle_alpha                71.710(5)
_cell_angle_beta                 68.562(5)
_cell_angle_gamma                63.287(4)
_cell_formula_units_Z            2
_cell_length_a                   16.367(3)
_cell_length_b                   16.829(3)
_cell_length_c                   18.460(4)
_cell_measurement_reflns_used    9771
_cell_measurement_temperature    220(2)
_cell_measurement_theta_max      28.36
_cell_measurement_theta_min      2.33
_cell_volume                     4158.8(14)
_computing_cell_refinement       'Bruker D8 Quest'
_computing_data_collection       'Bruker D8 Quest'
_computing_data_reduction        'Bruker D8 Quest'
_computing_molecular_graphics    'SHELXL-2013 (Sheldrick, 2013)'
_computing_publication_material  'publCIF (Westrip, 2010)'
_computing_structure_refinement  'SHELXL-2016/6 (Sheldrick, 2016)'
_computing_structure_solution    'SHELXT 2014/5 (Sheldrick, 2014)'
_diffrn_ambient_temperature      220(2)
_diffrn_measured_fraction_theta_full 0.997
_diffrn_measured_fraction_theta_max 0.997
_diffrn_measurement_device_type  'Bruker D8 Quest'
_diffrn_measurement_method       'phi and omega scans'
_diffrn_radiation_type           MoK\a
_diffrn_radiation_wavelength     0.71073
_diffrn_reflns_av_R_equivalents  0.0943
_diffrn_reflns_av_unetI/netI     0.0796
_diffrn_reflns_Laue_measured_fraction_full 0.997
_diffrn_reflns_Laue_measured_fraction_max 0.997
_diffrn_reflns_limit_h_max       19
_diffrn_reflns_limit_h_min       -19
_diffrn_reflns_limit_k_max       20
_diffrn_reflns_limit_k_min       -20
_diffrn_reflns_limit_l_max       21
_diffrn_reflns_limit_l_min       -21
_diffrn_reflns_number            85048
_diffrn_reflns_point_group_measured_fraction_full 0.997
_diffrn_reflns_point_group_measured_fraction_max 0.997
_diffrn_reflns_theta_full        25.027
_diffrn_reflns_theta_max         25.027
_diffrn_reflns_theta_min         2.291
_diffrn_standards_decay_%        0
_diffrn_standards_interval_count 0
_diffrn_standards_interval_time  0
_diffrn_standards_number         0
_exptl_absorpt_coefficient_mu    0.769
_exptl_absorpt_correction_T_max  0.860
_exptl_absorpt_correction_T_min  0.834
_exptl_absorpt_correction_type   multi-scan
_exptl_absorpt_process_details
;
 Sheldrick, G.M. SADABS (Program for Scaling and Correction of Area Detector
 Data), version 2008/1; University of G\"ottingen: G\"ottingen, Germany, 2008.
;
_exptl_crystal_colour            pink
_exptl_crystal_density_diffrn    1.148
_exptl_crystal_description       BLOCK
_exptl_crystal_F_000             1442
_exptl_crystal_size_max          0.400
_exptl_crystal_size_mid          0.200
_exptl_crystal_size_min          0.200
_refine_diff_density_max         2.791
_refine_diff_density_min         -2.350
_refine_diff_density_rms         0.168
_refine_ls_extinction_method     none
_refine_ls_goodness_of_fit_ref   1.091
_refine_ls_hydrogen_treatment    constr
_refine_ls_matrix_type           full
_refine_ls_number_parameters     752
_refine_ls_number_reflns         14636
_refine_ls_number_restraints     472
_refine_ls_restrained_S_all      1.074
_refine_ls_R_factor_all          0.1860
_refine_ls_R_factor_gt           0.1269
_refine_ls_shift/su_max          0.000
_refine_ls_shift/su_mean         0.000
_refine_ls_structure_factor_coef Fsqd
_refine_ls_weighting_details
'w=1/[\s^2^(Fo^2^)+(0.0676P)^2^+97.1698P] where P=(Fo^2^+2Fc^2^)/3'
_refine_ls_weighting_scheme      calc
_refine_ls_wR_factor_gt          0.2710
_refine_ls_wR_factor_ref         0.3098
_reflns_Friedel_coverage         0.000
_reflns_number_gt                8816
_reflns_number_total             14636
_reflns_threshold_expression     'I > 2\s(I)'
_cod_data_source_file            c8dt02813c2.cif
_cod_data_source_block           4
_cod_depositor_comments
'Adding full bibliography for 7047515--7047518.cif.'
_cod_database_code               7047516
_publcif_datablock.id            {e94378f8-4807-42f0-a913-10c94e3125d8}
_shelx_shelxl_version_number     2016/6
_shelx_space_group_comment
;
The symmetry employed for this shelxl refinement is uniquely defined
by the following loop, which should always be used as a source of
symmetry information in preference to the above space-group names.
They are only intended as comments.
;
_shelx_estimated_absorpt_t_min   0.748
_shelx_estimated_absorpt_t_max   0.861
_shelx_res_file
;
TITL CD2CO1_BPY in P-1
    CD3.res
    created by SHELXL-2016/6 at 13:25:24 on 09-Jul-2018
CELL 0.71073  16.36720  16.82920  18.45970  71.7095  68.5620  63.2872
ZERR   2.00   0.00300   0.00310   0.00350   0.0049   0.0048   0.0042
LATT  1
SFAC C H N O CO CD
UNIT 138 92 6 28 1.5 4.5

TEMP -53.000
SIZE 0.20 0.20 0.40
L.S. 30
BOND $H
ACTA
FMAP 2
PLAN 6
SIMU N3 > C74
DELU N3 > C74
SIMU O9 > C51A
DELU O9 > C51A
SHEL 99999 0.84
EADP C46 C47 C48 C49 C50 C51 C45 O9 O10
EADP C46A C47A C48A C49A C50A C51A C45A O9A O10A
EADP C19 C20 C21 C22 C23 C24
SIMU C6 > C10
DELU C6 > C10
DFIX 1.45 0.02 C45A C46A
EXYZ CD1 CO1
EADP CD1 CO1
EXYZ CD2 CO2
EADP CD2 CO2
EXYZ CD3 CO3
EADP CD3 CO3

OMIT    -1  -1   1
OMIT     1   2   2
OMIT     2   3   1
OMIT     2   3   4
OMIT    -1   2   3
OMIT     4  -4   1
OMIT     3   1   0
OMIT     4   3   2
OMIT     2   3   3
OMIT     2   1   3
OMIT     2   5   3
OMIT     0   3   6
OMIT     6  14   3
OMIT     2   2   4
OMIT     8  12   2
OMIT     5   9   3
OMIT    -2  -1   2

ABIN
WGHT    0.067600   97.169800
FVAR       0.19215   0.65866
CD1   6    0.874697    0.383655    0.439805    10.75000    0.03375    0.03325 =
         0.06548   -0.01581   -0.01913   -0.00986
CO1   5    0.874697    0.383655    0.439805    10.25000    0.03375    0.03325 =
         0.06548   -0.01581   -0.01913   -0.00986
CD2   6    0.947947    0.307423    0.244650    10.75000    0.03337    0.04003 =
         0.05809   -0.01338   -0.02140   -0.01055
CO2   5    0.947947    0.307423    0.244650    10.25000    0.03337    0.04003 =
         0.05809   -0.01338   -0.02140   -0.01055
CD3   6    1.024758    0.230437    0.043135    10.75000    0.04573    0.03334 =
         0.06617   -0.01706   -0.02550   -0.01019
CO3   5    1.024758    0.230437    0.043135    10.25000    0.04573    0.03334 =
         0.06617   -0.01706   -0.02550   -0.01019
O1    4    0.816879    0.271160    0.483311    11.00000    0.06848    0.04280 =
         0.08620   -0.01188   -0.04178   -0.02261
O2    4    0.831974    0.334618    0.358955    11.00000    0.03942    0.03341 =
         0.06689   -0.00458   -0.01732   -0.02261
O3    4    0.737778   -0.488771    0.459445    11.00000    0.04404    0.04447 =
         0.07725   -0.01215   -0.01552   -0.02111
O4    4    0.868427   -0.471747    0.390669    11.00000    0.02764    0.02626 =
         0.16848   -0.03231   -0.00826   -0.00629
O5    4    0.053267    0.248138    0.308921    11.00000    0.03925    0.05448 =
         0.09243   -0.02185   -0.03456   -0.01531
O6    4    0.025212    0.344195    0.381847    11.00000    0.02749    0.06849 =
         0.12820   -0.04701   -0.03688    0.00899
O7    4    1.061537    0.280200    0.130619    11.00000    0.04695    0.04342 =
         0.07325   -0.01502   -0.02575   -0.01923
O8    4    1.075256    0.346966    0.008366    11.00000    0.12111    0.08743 =
         0.05089    0.00676   -0.05250   -0.06195
O11   4    1.871636    0.278055    0.095969    11.00000    0.04509    0.05898 =
         0.11484   -0.04353   -0.02065   -0.01000
O12   4    1.842547    0.362366    0.181555    11.00000    0.05054    0.10374 =
         0.07797   -0.04500   -0.03473    0.00044
O13   4    0.938701    0.446424    0.230462    11.00000    0.06889    0.04110 =
         0.08343   -0.01509   -0.02171   -0.01570
AFIX   3
H13A  2    0.901610    0.489834    0.206732    11.00000   -1.20000
H13B  2    0.972501    0.455065    0.249122    11.00000   -1.20000
AFIX   0
O14   4    0.958326    0.169360    0.259996    11.00000    0.08538    0.05225 =
         0.11867   -0.00812   -0.03281   -0.03235
AFIX   3
H14A  2    0.925015    0.160220    0.241176    11.00000   -1.20000
H14B  2    0.995836    0.126210    0.283516    11.00000   -1.20000
AFIX   0
N1    3    0.902499    0.360480    0.557096    11.00000    0.05384    0.04422 =
         0.09430   -0.01110   -0.02998   -0.02419
C1    1    0.942035    0.410276    0.567169    11.00000    0.07534    0.07308 =
         0.09852    0.01134   -0.03139   -0.05761
AFIX  43
H1    2    0.951260    0.458419    0.526782    11.00000   -1.20000
AFIX   0
C2    1    0.968709    0.392981    0.633514    11.00000    0.06726    0.06148 =
         0.11857   -0.01522   -0.05014   -0.03553
AFIX  43
H2    2    0.998668    0.427305    0.637274    11.00000   -1.20000
AFIX   0
C3    1    0.952914    0.327048    0.694503    11.00000    0.03949    0.05944 =
         0.06045   -0.01244   -0.01666   -0.02562
C4    1    0.910468    0.278084    0.683171    11.00000    0.13028    0.09668 =
         0.07508   -0.01039   -0.04287   -0.06874
AFIX  43
H4    2    0.896964    0.232059    0.724064    11.00000   -1.20000
AFIX   0
C5    1    0.887509    0.295663    0.612644    11.00000    0.12949    0.06465 =
         0.07613    0.01046   -0.05876   -0.06824
AFIX  43
H5    2    0.861050    0.260166    0.605613    11.00000   -1.20000
AFIX  66
C6    1    0.983779    0.304220    0.767315    11.00000    0.04287    0.07402 =
         0.07620   -0.02938   -0.01141   -0.02959
C7    1    0.985133    0.370904    0.795629    11.00000    0.04099    0.06590 =
         0.06785   -0.01643   -0.02113   -0.02054
AFIX  43
H7    2    0.971833    0.429983    0.766225    11.00000   -1.20000
AFIX  65
C8    1    1.006153    0.350227    0.867424    11.00000    0.05430    0.06081 =
         0.08152   -0.02214   -0.03067   -0.02342
AFIX  43
H8    2    1.007069    0.395323    0.886571    11.00000   -1.20000
AFIX  65
N2    3    1.025819    0.262866    0.910904    11.00000    0.07044    0.06070 =
         0.07509   -0.02281   -0.02325   -0.03308
C9    1    1.024466    0.196181    0.882591    11.00000    0.08215    0.05868 =
         0.09643   -0.02418   -0.03949   -0.02496
AFIX  43
H9    2    1.037765    0.137103    0.911995    11.00000   -1.20000
AFIX  65
C10   1    1.003446    0.216857    0.810796    11.00000    0.08452    0.06760 =
         0.08662   -0.03047   -0.03432   -0.02562
AFIX  43
H10   2    1.002530    0.171761    0.791649    11.00000   -1.20000
AFIX   0
C11   1    0.805892    0.280166    0.416693    11.00000    0.01746    0.04959 =
         0.05944   -0.02293   -0.02091   -0.00265
C12   1    0.755185    0.227756    0.410673    11.00000    0.02468    0.03657 =
         0.06383   -0.01025   -0.01343   -0.02113
C13   1    0.748773    0.154049    0.463224    11.00000    0.04774    0.04977 =
         0.08758   -0.00528   -0.04465   -0.02386
AFIX  43
H13   2    0.778896    0.133043    0.504046    11.00000   -1.20000
AFIX   0
C14   1    0.700166    0.108157    0.459854    11.00000    0.05822    0.05233 =
         0.08835    0.01139   -0.04798   -0.01755
AFIX  43
H14   2    0.697363    0.056621    0.498297    11.00000   -1.20000
AFIX   0
C15   1    0.655421    0.135588    0.401685    11.00000    0.03041    0.04906 =
         0.08669   -0.02143   -0.02109   -0.01118
C16   1    0.659913    0.216226    0.346100    11.00000    0.03321    0.03469 =
         0.11205   -0.01952   -0.03610   -0.00601
AFIX  43
H16   2    0.628599    0.239001    0.305885    11.00000   -1.20000
AFIX   0
C17   1    0.710100    0.259986    0.351866    11.00000    0.03425    0.03409 =
         0.06797   -0.01753   -0.01631   -0.00590
AFIX  43
H17   2    0.713519    0.312470    0.315151    11.00000   -1.20000
AFIX   0
C18   1    0.781567   -0.437022    0.421102    11.00000    0.03405    0.03844 =
         0.09242   -0.01379   -0.02459   -0.01815
C19   1    0.731497   -0.340480    0.413696    11.00000    0.03059    0.03211 =
         0.11660   -0.01673   -0.01863   -0.01304
C20   1    0.632825   -0.298566    0.444529    11.00000    0.03059    0.03211 =
         0.11660   -0.01673   -0.01863   -0.01304
AFIX  43
H20   2    0.596346   -0.334186    0.472256    11.00000   -1.20000
AFIX   0
C21   1    0.590727   -0.208290    0.434559    11.00000    0.03059    0.03211 =
         0.11660   -0.01673   -0.01863   -0.01304
AFIX  43
H21   2    0.524215   -0.182015    0.451501    11.00000   -1.20000
AFIX   0
C22   1    0.640124   -0.152835    0.400912    11.00000    0.03059    0.03211 =
         0.11660   -0.01673   -0.01863   -0.01304
C23   1    0.737673   -0.192202    0.366969    11.00000    0.03059    0.03211 =
         0.11660   -0.01673   -0.01863   -0.01304
AFIX  43
H23   2    0.772873   -0.155501    0.338693    11.00000   -1.20000
AFIX   0
C24   1    0.781110   -0.283185    0.374984    11.00000    0.03059    0.03211 =
         0.11660   -0.01673   -0.01863   -0.01304
AFIX  43
H24   2    0.847081   -0.308756    0.353720    11.00000   -1.20000
AFIX   0
C25   1    0.077520    0.276645    0.348427    11.00000    0.02967    0.04009 =
         0.06639   -0.00445   -0.02132   -0.01141
C26   1    0.179300    0.229432    0.355891    11.00000    0.02267    0.05400 =
         0.05849   -0.02071   -0.02091    0.00722
C27   1    0.210795    0.258400    0.397163    11.00000    0.03917    0.06863 =
         0.12430   -0.05561   -0.05103    0.01813
AFIX  43
H27   2    0.169993    0.310025    0.420156    11.00000   -1.20000
AFIX   0
C28   1    0.301034    0.213877    0.406048    11.00000    0.03959    0.05226 =
         0.11813   -0.04599   -0.03964    0.01466
AFIX  43
H28   2    0.320744    0.233048    0.437171    11.00000   -1.20000
AFIX   0
C29   1    0.361772    0.142180    0.369883    11.00000    0.02052    0.04824 =
         0.09819   -0.02006   -0.03118    0.00196
C30   1    0.329573    0.109790    0.329428    11.00000    0.03525    0.04854 =
         0.09693   -0.02877   -0.03077    0.00216
AFIX  43
H30   2    0.370682    0.058329    0.306280    11.00000   -1.20000
AFIX   0
C31   1    0.239442    0.152037    0.323299    11.00000    0.04656    0.05086 =
         0.07618   -0.01388   -0.03863   -0.00598
AFIX  43
H31   2    0.217381    0.129163    0.297039    11.00000   -1.20000
AFIX   0
C32   1    0.602117    0.088195    0.395214    11.00000    0.01716    0.04013 =
         0.11281   -0.02287   -0.01759   -0.01284
C33   1    0.642954   -0.004585    0.402192    11.00000    0.02138    0.03377 =
         0.09833   -0.02105   -0.01518   -0.00593
AFIX  43
H33   2    0.704111   -0.035868    0.409974    11.00000   -1.20000
AFIX   0
C34   1    0.593756   -0.053621    0.397771    11.00000    0.02709    0.02875 =
         0.08567   -0.00926   -0.01817   -0.00802
C35   1    0.502875   -0.004910    0.386965    11.00000    0.02783    0.05135 =
         0.11806   -0.02162   -0.03046   -0.01398
AFIX  43
H35   2    0.469753   -0.036333    0.383394    11.00000   -1.20000
AFIX   0
C36   1    0.459595    0.088127    0.381297    11.00000    0.02215    0.03685 =
         0.09935   -0.02579   -0.02780    0.01802
C37   1    0.510264    0.133926    0.383711    11.00000    0.02913    0.03279 =
         0.10467   -0.02527   -0.02922   -0.00476
AFIX  43
H37   2    0.482762    0.197334    0.377515    11.00000   -1.20000
AFIX   0
C38   1    1.088442    0.335921    0.073240    11.00000    0.04677    0.03535 =
         0.06723   -0.01611   -0.01545   -0.01593
C39   1    1.136378    0.383361    0.084560    11.00000    0.06049    0.03099 =
         0.05792   -0.00951   -0.03161   -0.01449
C40   1    1.141911    0.462039    0.033009    11.00000    0.05767    0.06646 =
         0.06673   -0.00717   -0.02692   -0.02685
AFIX  43
H40   2    1.112018    0.485473   -0.008191    11.00000   -1.20000
AFIX   0
C41   1    1.190336    0.506665    0.040882    11.00000    0.04466    0.04421 =
         0.09278   -0.00694   -0.02260   -0.03239
AFIX  43
H41   2    1.192129    0.560433    0.005618    11.00000   -1.20000
AFIX   0
C42   1    1.236702    0.472840    0.100648    11.00000    0.03452    0.01886 =
         0.07865   -0.00459   -0.01870   -0.01156
C43   1    1.232426    0.394107    0.150970    11.00000    0.06711    0.06560 =
         0.06277   -0.00396   -0.04132   -0.03244
AFIX  43
H43   2    1.264809    0.369196    0.190620    11.00000   -1.20000
AFIX   0
C44   1    1.182499    0.351398    0.144782    11.00000    0.04856    0.05863 =
         0.06434   -0.00338   -0.02624   -0.03612
AFIX  43
H44   2    1.178762    0.299158    0.181749    11.00000   -1.20000
AFIX   0
PART   1
O9    4    1.042033    1.091263    0.046246    21.00000    0.06811    0.02744 =
         0.12720   -0.01238   -0.05779   -0.01021
O10   4    1.149495    1.100875    0.062388    21.00000    0.06811    0.02744 =
         0.12720   -0.01238   -0.05779   -0.01021
C45   1    1.114193    1.054909    0.063835    21.00000    0.06811    0.02744 =
         0.12720   -0.01238   -0.05779   -0.01021
AFIX  66
C46   1    1.161052    0.949937    0.067167    21.00000    0.06811    0.02744 =
         0.12720   -0.01238   -0.05779   -0.01021
C47   1    1.233200    0.906121    0.105283    21.00000    0.06811    0.02744 =
         0.12720   -0.01238   -0.05779   -0.01021
AFIX  43
H47   2    1.250897    0.939721    0.124747    21.00000   -1.20000
AFIX  65
C48   1    1.279180    0.812619    0.114615    21.00000    0.06811    0.02744 =
         0.12720   -0.01238   -0.05779   -0.01021
AFIX  43
H48   2    1.327972    0.782988    0.140391    21.00000   -1.20000
AFIX  65
C49   1    1.253012    0.762934    0.085833    21.00000    0.06811    0.02744 =
         0.12720   -0.01238   -0.05779   -0.01021
C50   1    1.180864    0.806749    0.047718    21.00000    0.06811    0.02744 =
         0.12720   -0.01238   -0.05779   -0.01021
AFIX  43
H50   2    1.163168    0.773148    0.028254    21.00000   -1.20000
AFIX  65
C51   1    1.134883    0.900250    0.038384    21.00000    0.06811    0.02744 =
         0.12720   -0.01238   -0.05779   -0.01021
AFIX  43
H51   2    1.086092    0.929881    0.012608    21.00000   -1.20000
AFIX   0
PART   2
O9A   4    1.018165    1.082378    0.048288   -21.00000    0.07309    0.02968 =
         0.12975   -0.01638   -0.05680   -0.00888
O10A  4    1.099044    1.081841    0.139073   -21.00000    0.07309    0.02968 =
         0.12975   -0.01638   -0.05680   -0.00888
C45A  1    1.102261    1.043586    0.070912   -21.00000    0.07309    0.02968 =
         0.12975   -0.01638   -0.05680   -0.00888
AFIX  66
C46A  1    1.149888    0.946890    0.095938   -21.00000    0.07309    0.02968 =
         0.12975   -0.01638   -0.05680   -0.00888
C47A  1    1.199192    0.892710    0.152564   -21.00000    0.07309    0.02968 =
         0.12975   -0.01638   -0.05680   -0.00888
AFIX  43
H47A  2    1.199392    0.918410    0.190920   -21.00000   -1.20000
AFIX  65
C48A  1    1.248199    0.800526    0.152472   -21.00000    0.07309    0.02968 =
         0.12975   -0.01638   -0.05680   -0.00888
AFIX  43
H48A  2    1.281541    0.763886    0.190766   -21.00000   -1.20000
AFIX  65
C49A  1    1.247903    0.762521    0.095755   -21.00000    0.07309    0.02968 =
         0.12975   -0.01638   -0.05680   -0.00888
C50A  1    1.198599    0.816700    0.039129   -21.00000    0.07309    0.02968 =
         0.12975   -0.01638   -0.05680   -0.00888
AFIX  43
H50A  2    1.198399    0.790998    0.000773   -21.00000   -1.20000
AFIX  65
C51A  1    1.149591    0.908884    0.039219   -21.00000    0.07309    0.02968 =
         0.12975   -0.01638   -0.05680   -0.00888
AFIX  43
H51A  2    1.116249    0.945523    0.000925   -21.00000   -1.20000
AFIX   0
PART   0
C52   1    1.818472    0.335348    0.140835    11.00000    0.04364    0.04388 =
         0.05378   -0.01188   -0.03243   -0.00451
C53   1    1.717232    0.381880    0.137928    11.00000    0.04797    0.03986 =
         0.04995   -0.00920   -0.01691   -0.01960
C54   1    1.678296    0.347373    0.105599    11.00000    0.05025    0.04114 =
         0.09044   -0.03272   -0.01136   -0.02405
AFIX  43
H54   2    1.715796    0.292111    0.087610    11.00000   -1.20000
AFIX   0
C55   1    1.586572    0.391468    0.099043    11.00000    0.04443    0.06667 =
         0.08657   -0.02621   -0.02549   -0.02762
AFIX  43
H55   2    1.561367    0.364620    0.079482    11.00000   -1.20000
AFIX   0
C56   1    1.531553    0.474824    0.121048    11.00000    0.03983    0.02643 =
         0.06682   -0.01609   -0.01524   -0.01384
C57   1    1.571453    0.504678    0.156903    11.00000    0.03639    0.03923 =
         0.10900   -0.04390   -0.01529   -0.00152
AFIX  43
H57   2    1.534392    0.558509    0.177304    11.00000   -1.20000
AFIX   0
C58   1    1.661623    0.459234    0.163584    11.00000    0.04187    0.04936 =
         0.09621   -0.04259   -0.03851   -0.00038
AFIX  43
H58   2    1.685429    0.483375    0.187162    11.00000   -1.20000
AFIX   0
C59   1    1.290464    0.520612    0.104323    11.00000    0.05751    0.03481 =
         0.06221    0.00092   -0.03952   -0.01158
C60   1    1.251455    0.613137    0.096311    11.00000    0.04499    0.04915 =
         0.08615   -0.01781   -0.03442   -0.00760
AFIX  43
H60   2    1.189629    0.643923    0.089944    11.00000   -1.20000
AFIX   0
C61   1    1.298375    0.662912    0.097145    11.00000    0.03735    0.04298 =
         0.07566   -0.01576   -0.02800   -0.00858
C62   1    1.388951    0.617463    0.106206    11.00000    0.04943    0.02488 =
         0.09934   -0.00835   -0.03863   -0.01668
AFIX  43
H62   2    1.422378    0.650270    0.106771    11.00000   -1.20000
AFIX   0
C63   1    1.431993    0.523531    0.114567    11.00000    0.03050    0.04035 =
         0.06312   -0.00426   -0.02076   -0.02111
C64   1    1.380336    0.476349    0.112853    11.00000    0.03093    0.02681 =
         0.07810   -0.00503   -0.01897   -0.00738
AFIX  43
H64   2    1.408470    0.413070    0.117694    11.00000   -1.20000
AFIX  66
N3    3    0.309028    0.922357    0.264461    10.50000    0.04596    0.05753 =
         0.13996   -0.06326   -0.06629    0.03063
C65   1    0.322825    0.844528    0.322043    10.50000    0.06410    0.10924 =
         0.12188   -0.04204   -0.02203    0.01177
AFIX  43
H65   2    0.271023    0.836903    0.363549    10.50000   -1.20000
AFIX  65
C66   1    0.413221    0.777975    0.318250    10.50000    0.06861    0.05272 =
         0.10656   -0.02190   -0.02943    0.01157
AFIX  43
H66   2    0.422551    0.725343    0.357190    10.50000   -1.20000
AFIX  65
C67   1    0.489822    0.789250    0.256875    10.50000    0.04870    0.03176 =
         0.12866   -0.01934   -0.05219   -0.00858
C68   1    0.476026    0.867078    0.199292    10.50000    0.06118    0.01466 =
         0.13495   -0.03062   -0.03221    0.00889
AFIX  43
H68   2    0.527829    0.874702    0.157787    10.50000   -1.20000
AFIX  65
C69   1    0.385630    0.933632    0.203085    10.50000    0.07625    0.02583 =
         0.15384   -0.03013   -0.06234    0.01704
AFIX  43
H69   2    0.376301    0.986264    0.164144    10.50000   -1.20000
AFIX  66
C70   1    0.590396    0.713698    0.246029    10.50000    0.05349    0.03049 =
         0.07423   -0.00870   -0.03633   -0.00787
C71   1    0.604850    0.628753    0.293678    10.50000    0.06166    0.03109 =
         0.06976   -0.01056   -0.03118   -0.01115
AFIX  43
H71   2    0.553301    0.616521    0.332039    10.50000   -1.20000
AFIX  65
C72   1    0.695531    0.561895    0.284602    10.50000    0.07155    0.03178 =
         0.07073   -0.01433   -0.04473   -0.00657
AFIX  43
H72   2    0.705305    0.504450    0.316825    10.50000   -1.20000
AFIX  65
N4    3    0.771758    0.579982    0.227877    10.50000    0.05439    0.03939 =
         0.10242   -0.03056   -0.04358   -0.00460
C73   1    0.757306    0.664927    0.180228    10.50000    0.05565    0.07213 =
         0.11229   -0.00104   -0.02355   -0.02758
AFIX  43
H73   2    0.808856    0.677158    0.141867    10.50000   -1.20000
AFIX  65
C74   1    0.666625    0.731785    0.189303    10.50000    0.06457    0.04941 =
         0.12504    0.00563   -0.02372   -0.02066
AFIX  43
H74   2    0.656851    0.789230    0.157079    10.50000   -1.20000

AFIX   0
HKLF 4

REM  CD2CO1_BPY in P-1
REM R1 =  0.1269 for    8816 Fo > 4sig(Fo)  and  0.1860 for all   14636 data
REM    752 parameters refined using    472 restraints

END

WGHT      0.0687    100.6424

REM Highest difference peak  2.791,  deepest hole -2.350,  1-sigma level  0.168
Q1    1   1.1426  1.0721  0.2271  11.00000  0.05    2.79
Q2    1   1.1030  0.1559  0.8442  11.00000  0.05    1.83
Q3    1   0.5933  0.5458  0.3517  11.00000  0.05    1.63
Q4    1   1.0000  0.2144  0.1032  11.00000  0.05    1.41
Q5    1   0.9286  0.2918  0.3062  11.00000  0.05    1.37
Q6    1   0.8928  0.3928  0.3780  11.00000  0.05    1.33
;
_shelx_res_checksum              32231
_shelx_fab_file
;
    2    0    0     49.82      0.00
    3    0    0     27.93      0.00
    4    0    0      3.43      0.00
    5    0    0     -9.50      0.00
    6    0    0     -2.75      0.00
    7    0    0    -10.14      0.00
    8    0    0     -9.88      0.00
    9    0    0     -0.43      0.00
   10    0    0      5.25      0.00
   11    0    0      0.24      0.00
   12    0    0     -0.31      0.00
   13    0    0      1.54      0.00
   14    0    0     -5.80      0.00
   15    0    0      2.96      0.00
   16    0    0     -2.88      0.00
  -16    1    0      0.48      0.00
  -15    1    0     -0.95      0.00
  -14    1    0     -3.59      0.00
  -13    1    0      4.65      0.00
  -12    1    0     -3.33      0.00
  -11    1    0     -3.72      0.00
  -10    1    0      9.82      0.00
   -9    1    0     -7.77      0.00
   -8    1    0      1.57      0.00
   -7    1    0    -11.81      0.00
   -6    1    0    -11.36      0.00
   -5    1    0      8.29      0.00
   -4    1    0     12.27      0.00
   -3    1    0     15.29      0.00
   -2    1    0      6.57      0.00
   -1    1    0    149.23      0.00
    2    1    0     13.50      0.00
    4    1    0    -11.14      0.00
    5    1    0    -19.41      0.00
    6    1    0      4.72      0.00
    7    1    0    -13.54      0.00
    8    1    0      1.01      0.00
    9    1    0     -3.24      0.00
   10    1    0     14.23      0.00
   11    1    0    -17.86      0.00
   12    1    0     18.39      0.00
   13    1    0     -4.86      0.00
   14    1    0     -3.38      0.00
   15    1    0     -1.33      0.00
   16    1    0      0.47      0.00
   17    1    0      3.10      0.00
  -15    2    0     -2.24      0.00
  -14    2    0      5.58      0.00
  -13    2    0     -5.62      0.00
  -12    2    0     -0.92      0.00
  -11    2    0      1.27      0.00
  -10    2    0      8.43      0.00
   -9    2    0     -4.22      0.00
   -8    2    0     -9.57      0.00
   -7    2    0     -6.60      0.00
   -6    2    0     10.64      0.00
   -5    2    0    -20.35      0.00
   -4    2    0     43.49      0.00
   -3    2    0     26.70      0.00
   -1    2    0     54.22      0.00
    0    2    0    151.95      0.00
    1    2    0     41.57      0.00
    2    2    0    -21.96      0.00
    3    2    0      4.65      0.00
    4    2    0    -16.04      0.00
    5    2    0     -9.13      0.00
    6    2    0      1.54      0.00
    7    2    0     -5.02      0.00
    8    2    0     -3.63      0.00
    9    2    0     15.75      0.00
   10    2    0    -15.47      0.00
   11    2    0     15.90      0.00
   12    2    0     -5.64      0.00
   13    2    0      1.62      0.00
   14    2    0     -1.79      0.00
   15    2    0      1.92      0.00
   16    2    0     -0.39      0.00
   17    2    0     -2.18      0.00
  -15    3    0     -0.73      0.00
  -14    3    0      1.65      0.00
  -13    3    0      1.60      0.00
  -12    3    0     -3.79      0.00
  -11    3    0      3.45      0.00
  -10    3    0     -5.23      0.00
   -9    3    0      4.80      0.00
   -8    3    0     -0.30      0.00
   -7    3    0      3.27      0.00
   -6    3    0    -19.30      0.00
   -5    3    0     18.01      0.00
   -4    3    0     27.03      0.00
   -3    3    0    -15.24      0.00
   -2    3    0     47.52      0.00
   -1    3    0     45.80      0.00
    0    3    0    -15.20      0.00
    1    3    0     70.64      0.00
    2    3    0    -16.61      0.00
    3    3    0     15.70      0.00
    4    3    0    -34.65      0.00
    5    3    0     -3.96      0.00
    6    3    0     12.59      0.00
    7    3    0     -5.08      0.00
    8    3    0      5.58      0.00
    9    3    0      3.21      0.00
   10    3    0     -0.55      0.00
   11    3    0     -1.25      0.00
   12    3    0     -2.57      0.00
   13    3    0      6.95      0.00
   14    3    0     -9.09      0.00
   15    3    0      4.28      0.00
   16    3    0     -1.47      0.00
   17    3    0     -0.85      0.00
  -14    4    0      0.83      0.00
  -13    4    0     -3.67      0.00
  -12    4    0      3.30      0.00
  -11    4    0     -4.02      0.00
  -10    4    0      2.56      0.00
   -9    4    0     -0.30      0.00
   -8    4    0      1.92      0.00
   -7    4    0     -1.97      0.00
   -6    4    0      9.12      0.00
   -5    4    0      2.31      0.00
   -4    4    0     14.44      0.00
   -3    4    0     30.80      0.00
   -2    4    0    -17.17      0.00
   -1    4    0     30.94      0.00
    0    4    0    -21.08      0.00
    1    4    0     41.66      0.00
    2    4    0     12.53      0.00
    3    4    0    -51.11      0.00
    4    4    0     17.46      0.00
    5    4    0     11.91      0.00
    6    4    0    -14.40      0.00
    7    4    0     18.38      0.00
    8    4    0     -1.31      0.00
    9    4    0     -0.08      0.00
   10    4    0     -1.36      0.00
   11    4    0     -1.54      0.00
   12    4    0    -10.80      0.00
   13    4    0      7.26      0.00
   14    4    0     -3.33      0.00
   15    4    0      7.21      0.00
   16    4    0     -5.79      0.00
   17    4    0     -2.94      0.00
  -14    5    0      3.07      0.00
  -13    5    0      2.61      0.00
  -12    5    0     -8.27      0.00
  -11    5    0      3.05      0.00
  -10    5    0    -10.46      0.00
   -9    5    0     16.60      0.00
   -8    5    0      0.71      0.00
   -7    5    0      0.77      0.00
   -6    5    0      7.68      0.00
   -5    5    0      8.23      0.00
   -4    5    0      8.08      0.00
   -3    5    0      7.44      0.00
   -2    5    0     10.24      0.00
   -1    5    0    -15.80      0.00
    0    5    0     20.48      0.00
    1    5    0    -31.69      0.00
    2    5    0     23.32      0.00
    3    5    0    -11.66      0.00
    4    5    0      5.48      0.00
    5    5    0     -2.61      0.00
    6    5    0     12.81      0.00
    7    5    0     14.52      0.00
    8    5    0    -16.70      0.00
    9    5    0      8.26      0.00
   10    5    0     -3.92      0.00
   11    5    0     -2.59      0.00
   12    5    0     -6.76      0.00
   13    5    0      4.77      0.00
   14    5    0      3.72      0.00
   15    5    0     -4.96      0.00
   16    5    0      1.23      0.00
   17    5    0      1.25      0.00
   18    5    0     -1.33      0.00
  -13    6    0      1.01      0.00
  -12    6    0     -0.69      0.00
  -11    6    0     -6.62      0.00
  -10    6    0      2.22      0.00
   -9    6    0      3.87      0.00
   -8    6    0      7.51      0.00
   -7    6    0      4.24      0.00
   -6    6    0      0.75      0.00
   -5    6    0     16.64      0.00
   -4    6    0     -9.37      0.00
   -3    6    0     11.46      0.00
   -2    6    0    -11.23      0.00
   -1    6    0      0.61      0.00
    0    6    0    -22.04      0.00
    1    6    0     28.51      0.00
    2    6    0    -31.61      0.00
    3    6    0     16.72      0.00
    4    6    0     -2.12      0.00
    5    6    0      7.91      0.00
    6    6    0      9.30      0.00
    7    6    0      1.26      0.00
    8    6    0      6.19      0.00
    9    6    0     -8.40      0.00
   10    6    0      7.86      0.00
   11    6    0    -11.10      0.00
   12    6    0     -0.35      0.00
   13    6    0      6.93      0.00
   14    6    0     -3.67      0.00
   15    6    0      6.03      0.00
   16    6    0     -2.39      0.00
   17    6    0     -1.68      0.00
   18    6    0     -0.05      0.00
  -13    7    0      1.12      0.00
  -12    7    0     -8.79      0.00
  -11    7    0      3.36      0.00
  -10    7    0     -1.62      0.00
   -9    7    0      7.10      0.00
   -8    7    0      4.96      0.00
   -7    7    0     -1.53      0.00
   -6    7    0     10.51      0.00
   -5    7    0      1.63      0.00
   -4    7    0     -4.17      0.00
   -3    7    0      3.59      0.00
   -2    7    0    -14.74      0.00
   -1    7    0     -3.47      0.00
    0    7    0     23.77      0.00
    1    7    0    -47.01      0.00
    2    7    0     16.23      0.00
    3    7    0     20.50      0.00
    4    7    0    -24.07      0.00
    5    7    0     19.10      0.00
    6    7    0      5.99      0.00
    7    7    0      5.66      0.00
    8    7    0     -8.11      0.00
    9    7    0      5.27      0.00
   10    7    0     -0.68      0.00
   11    7    0     -0.63      0.00
   12    7    0     -0.61      0.00
   13    7    0      2.91      0.00
   14    7    0      0.88      0.00
   15    7    0     -6.48      0.00
   16    7    0      5.95      0.00
   17    7    0      1.15      0.00
   18    7    0     -0.58      0.00
  -12    8    0     -2.75      0.00
  -11    8    0      2.10      0.00
  -10    8    0      0.27      0.00
   -9    8    0      3.90      0.00
   -8    8    0      3.31      0.00
   -7    8    0      1.52      0.00
   -6    8    0      5.99      0.00
   -5    8    0      3.30      0.00
   -4    8    0     -2.61      0.00
   -3    8    0     -3.14      0.00
   -2    8    0      5.53      0.00
   -1    8    0     -4.38      0.00
    0    8    0    -11.69      0.00
    1    8    0      2.67      0.00
    2    8    0     -2.76      0.00
    3    8    0     10.27      0.00
    4    8    0     -9.74      0.00
    5    8    0      2.52      0.00
    6    8    0      9.56      0.00
    7    8    0     -2.58      0.00
    8    8    0     -0.59      0.00
    9    8    0     12.92      0.00
   10    8    0     -6.88      0.00
   11    8    0     -6.62      0.00
   12    8    0     11.17      0.00
   13    8    0     -9.95      0.00
   14    8    0      2.06      0.00
   15    8    0      6.84      0.00
   16    8    0     -2.83      0.00
   17    8    0     -0.97      0.00
   18    8    0      3.41      0.00
  -11    9    0      7.19      0.00
  -10    9    0      1.55      0.00
   -9    9    0     -4.12      0.00
   -8    9    0      4.12      0.00
   -7    9    0      6.28      0.00
   -6    9    0      0.91      0.00
   -5    9    0     -6.26      0.00
   -4    9    0     14.70      0.00
   -3    9    0     -4.25      0.00
   -2    9    0     -9.89      0.00
   -1    9    0     24.35      0.00
    0    9    0    -21.30      0.00
    1    9    0     -5.05      0.00
    2    9    0      7.79      0.00
    3    9    0     -5.10      0.00
    4    9    0      1.02      0.00
    5    9    0     -9.07      0.00
    6    9    0     19.80      0.00
    7    9    0    -11.62      0.00
    8    9    0     10.14      0.00
    9    9    0      1.73      0.00
   10    9    0     -7.68      0.00
   11    9    0     11.21      0.00
   12    9    0     -3.71      0.00
   13    9    0     -1.97      0.00
   14    9    0      0.36      0.00
   15    9    0      2.05      0.00
   16    9    0      4.09      0.00
   17    9    0     -1.93      0.00
   18    9    0      3.52      0.00
  -10   10    0     -3.38      0.00
   -9   10    0     -0.75      0.00
   -8   10    0      3.89      0.00
   -7   10    0     -4.12      0.00
   -6   10    0      0.40      0.00
   -5   10    0      1.83      0.00
   -4   10    0     -4.49      0.00
   -3   10    0      3.66      0.00
   -2   10    0     16.40      0.00
   -1   10    0    -17.15      0.00
    0   10    0      3.80      0.00
    1   10    0     -5.84      0.00
    2   10    0      4.76      0.00
    3   10    0     -2.88      0.00
    4   10    0     -6.13      0.00
    5   10    0      7.58      0.00
    6   10    0     -3.73      0.00
    7   10    0      2.50      0.00
    8   10    0     12.71      0.00
    9   10    0     -1.35      0.00
   10   10    0      0.80      0.00
   11   10    0      1.89      0.00
   12   10    0      1.47      0.00
   13   10    0     -3.19      0.00
   14   10    0      2.37      0.00
   15   10    0      8.10      0.00
   16   10    0     -6.32      0.00
   17   10    0      7.74      0.00
   -9   11    0     -8.84      0.00
   -8   11    0      1.04      0.00
   -7   11    0      3.20      0.00
   -6   11    0     -8.89      0.00
   -5   11    0     -1.62      0.00
   -4   11    0     -0.29      0.00
   -3   11    0      1.90      0.00
   -2   11    0      0.49      0.00
   -1   11    0      6.70      0.00
    0   11    0     -8.07      0.00
    1   11    0      1.04      0.00
    2   11    0      5.71      0.00
    3   11    0    -17.49      0.00
    4   11    0     14.09      0.00
    5   11    0     -1.30      0.00
    6   11    0     -5.72      0.00
    7   11    0     11.09      0.00
    8   11    0      3.60      0.00
    9   11    0     -5.91      0.00
   10   11    0      7.44      0.00
   11   11    0      3.90      0.00
   12   11    0      1.02      0.00
   13   11    0     -2.51      0.00
   14   11    0      3.92      0.00
   15   11    0      2.15      0.00
   16   11    0     -4.01      0.00
   17   11    0     11.02      0.00
   -8   12    0     -6.25      0.00
   -7   12    0     -3.06      0.00
   -6   12    0      4.91      0.00
   -5   12    0     -5.92      0.00
   -4   12    0     -6.52      0.00
   -3   12    0      2.22      0.00
   -2   12    0      3.38      0.00
   -1   12    0     -3.52      0.00
    0   12    0     -1.51      0.00
    1   12    0     -2.30      0.00
    2   12    0      5.91      0.00
    3   12    0     -4.66      0.00
    4   12    0      1.22      0.00
    5   12    0     -2.68      0.00
    6   12    0     -8.26      0.00
    7   12    0      6.33      0.00
    8   12    0      2.88      0.00
    9   12    0     -4.39      0.00
   10   12    0      4.27      0.00
   11   12    0      2.66      0.00
   12   12    0      0.56      0.00
   13   12    0      2.31      0.00
   14   12    0      1.42      0.00
   15   12    0     -4.34      0.00
   16   12    0      7.99      0.00
   17   12    0      1.79      0.00
   -7   13    0     11.50      0.00
   -6   13    0     -8.71      0.00
   -5   13    0      3.07      0.00
   -4   13    0     -7.52      0.00
   -3   13    0     -4.89      0.00
   -2   13    0     -1.33      0.00
   -1   13    0     -3.06      0.00
    0   13    0      1.41      0.00
    1   13    0     -2.65      0.00
    2   13    0      0.54      0.00
    3   13    0     -3.06      0.00
    4   13    0     -2.33      0.00
    5   13    0     -2.48      0.00
    6   13    0     -8.46      0.00
    7   13    0     -1.56      0.00
    8   13    0     -2.30      0.00
    9   13    0     -4.95      0.00
   10   13    0      5.47      0.00
   11   13    0      1.90      0.00
   12   13    0      2.15      0.00
   13   13    0      4.08      0.00
   14   13    0     -5.52      0.00
   15   13    0      2.06      0.00
   16   13    0      1.35      0.00
   -6   14    0      5.10      0.00
   -5   14    0     -0.38      0.00
   -4   14    0     -7.90      0.00
   -3   14    0     -6.71      0.00
   -2   14    0     -6.05      0.00
   -1   14    0     -0.35      0.00
    0   14    0     -4.60      0.00
    1   14    0      0.64      0.00
    2   14    0      0.96      0.00
    3   14    0      1.89      0.00
    4   14    0     -9.73      0.00
    5   14    0      0.71      0.00
    6   14    0    -15.35      0.00
    7   14    0      0.93      0.00
    8   14    0     -3.20      0.00
    9   14    0      1.21      0.00
   10   14    0     -3.34      0.00
   11   14    0      4.08      0.00
   12   14    0      4.55      0.00
   13   14    0     -0.75      0.00
   14   14    0     -4.42      0.00
   15   14    0      5.47      0.00
   16   14    0     -2.50      0.00
   -4   15    0     -8.82      0.00
   -3   15    0     -9.84      0.00
   -2   15    0     -1.10      0.00
   -1   15    0      1.85      0.00
    0   15    0     -3.82      0.00
    1   15    0     -0.02      0.00
    2   15    0      1.33      0.00
    3   15    0     -1.40      0.00
    4   15    0     -2.45      0.00
    5   15    0     -4.05      0.00
    6   15    0     -5.02      0.00
    7   15    0      1.48      0.00
    8   15    0    -10.33      0.00
    9   15    0     10.52      0.00
   10   15    0     -7.82      0.00
   11   15    0      6.45      0.00
   12   15    0      2.61      0.00
   13   15    0     -1.03      0.00
   14   15    0     -1.18      0.00
   15   15    0      2.89      0.00
   -3   16    0     -6.36      0.00
   -2   16    0     -1.38      0.00
   -1   16    0      0.24      0.00
    0   16    0      1.39      0.00
    1   16    0      0.94      0.00
    2   16    0     -2.03      0.00
    3   16    0      1.61      0.00
    4   16    0     -2.37      0.00
    5   16    0     -2.64      0.00
    6   16    0     -0.65      0.00
    7   16    0     -3.55      0.00
    8   16    0      4.13      0.00
    9   16    0      3.50      0.00
   10   16    0     -2.30      0.00
   11   16    0      6.24      0.00
   12   16    0     -1.92      0.00
   13   16    0     -4.00      0.00
   14   16    0      7.95      0.00
   -1   17    0     10.21      0.00
    0   17    0     -8.17      0.00
    1   17    0      2.62      0.00
    2   17    0     -1.40      0.00
    3   17    0     -2.71      0.00
    4   17    0     -1.50      0.00
    5   17    0      1.46      0.00
    6   17    0     -0.74      0.00
    7   17    0      1.13      0.00
    8   17    0     -0.16      0.00
    9   17    0     12.01      0.00
   10   17    0     -5.33      0.00
   11   17    0      2.50      0.00
   12   17    0      0.55      0.00
   13   17    0      0.33      0.00
    2   18    0     -1.46      0.00
    3   18    0     -3.04      0.00
    4   18    0      0.51      0.00
    5   18    0     -2.74      0.00
    6   18    0      3.70      0.00
    7   18    0     -1.86      0.00
    8   18    0      5.21      0.00
    9   18    0      2.37      0.00
   10   18    0      7.15      0.00
   11   18    0     -2.87      0.00
    7   19    0     -1.30      0.00
  -10  -18    1     -7.29      0.00
   -9  -18    1     -2.33      0.00
   -8  -18    1     -1.10      0.00
   -7  -18    1     -6.50      0.00
   -6  -18    1     -1.20      0.00
   -5  -18    1      2.51      0.00
   -4  -18    1      3.00      0.00
   -3  -18    1      4.49      0.00
   -2  -18    1     -0.40      0.00
  -12  -17    1     -6.48      0.00
  -11  -17    1     -0.89      0.00
  -10  -17    1     -5.60      0.00
   -9  -17    1      0.28      0.00
   -8  -17    1     -3.25      0.00
   -7  -17    1     -6.48      0.00
   -6  -17    1      0.79      0.00
   -5  -17    1      1.15      0.00
   -4  -17    1      2.82      0.00
   -3  -17    1      6.45      0.00
   -2  -17    1     -4.37      0.00
   -1  -17    1      3.75      0.00
    0  -17    1     -4.00      0.00
    1  -17    1      8.88      0.00
  -14  -16    1      1.68      0.00
  -13  -16    1     -5.91      0.00
  -12  -16    1     -1.82      0.00
  -11  -16    1      4.53      0.00
  -10  -16    1    -11.43      0.00
   -9  -16    1      4.89      0.00
   -8  -16    1     -3.46      0.00
   -7  -16    1     -3.35      0.00
   -6  -16    1     -1.09      0.00
   -5  -16    1      6.32      0.00
   -4  -16    1      1.45      0.00
   -3  -16    1      3.08      0.00
   -2  -16    1     -4.08      0.00
   -1  -16    1     -0.72      0.00
    0  -16    1      3.81      0.00
    1  -16    1     -1.40      0.00
    2  -16    1      7.59      0.00
    3  -16    1      6.27      0.00
  -15  -15    1      0.81      0.00
  -14  -15    1      0.89      0.00
  -13  -15    1     -2.21      0.00
  -12  -15    1     -3.62      0.00
  -11  -15    1      0.73      0.00
  -10  -15    1     -2.08      0.00
   -9  -15    1      0.19      0.00
   -8  -15    1     -1.77      0.00
   -7  -15    1      3.50      0.00
   -6  -15    1      1.45      0.00
   -5  -15    1      5.31      0.00
   -4  -15    1      3.21      0.00
   -3  -15    1     -1.27      0.00
   -2  -15    1     -5.03      0.00
   -1  -15    1      2.17      0.00
    0  -15    1      2.65      0.00
    1  -15    1      3.35      0.00
    2  -15    1      4.85      0.00
    3  -15    1      2.85      0.00
    4  -15    1      0.26      0.00
  -15  -14    1      5.34      0.00
  -14  -14    1     -6.31      0.00
  -13  -14    1      0.41      0.00
  -12  -14    1     -1.30      0.00
  -11  -14    1     -2.55      0.00
  -10  -14    1      1.07      0.00
   -9  -14    1      3.57      0.00
   -8  -14    1     -4.60      0.00
   -7  -14    1      5.11      0.00
   -6  -14    1      2.91      0.00
   -5  -14    1     10.24      0.00
   -4  -14    1      0.84      0.00
   -3  -14    1     -3.18      0.00
   -2  -14    1      1.72      0.00
   -1  -14    1     -3.76      0.00
    0  -14    1      3.46      0.00
    1  -14    1      1.93      0.00
    2  -14    1      2.61      0.00
    3  -14    1      8.33      0.00
    4  -14    1     -8.83      0.00
    5  -14    1      5.79      0.00
    6  -14    1    -10.30      0.00
  -16  -13    1      2.16      0.00
  -15  -13    1     -1.72      0.00
  -14  -13    1     -2.93      0.00
  -13  -13    1      2.82      0.00
  -12  -13    1     -4.13      0.00
  -11  -13    1     -3.68      0.00
  -10  -13    1      5.68      0.00
   -9  -13    1     -5.98      0.00
   -8  -13    1     -1.28      0.00
   -7  -13    1      8.16      0.00
   -6  -13    1      4.10      0.00
   -5  -13    1      2.21      0.00
   -4  -13    1      3.86      0.00
   -3  -13    1     -4.64      0.00
   -2  -13    1     -1.59      0.00
   -1  -13    1      5.27      0.00
    0  -13    1     -1.31      0.00
    1  -13    1     -3.77      0.00
    2  -13    1      3.16      0.00
    3  -13    1      0.33      0.00
    4  -13    1      0.15      0.00
    5  -13    1     -7.10      0.00
    6  -13    1     -2.11      0.00
    7  -13    1      5.62      0.00
  -16  -12    1     -1.36      0.00
  -15  -12    1     -4.19      0.00
  -14  -12    1      4.04      0.00
  -13  -12    1     -0.93      0.00
  -12  -12    1     -8.35      0.00
  -11  -12    1      1.04      0.00
  -10  -12    1      2.71      0.00
   -9  -12    1     -5.95      0.00
   -8  -12    1     -1.62      0.00
   -7  -12    1      1.05      0.00
   -6  -12    1      2.77      0.00
   -5  -12    1     -5.88      0.00
   -4  -12    1     15.13      0.00
   -3  -12    1     -9.21      0.00
   -2  -12    1     -3.44      0.00
   -1  -12    1      4.74      0.00
    0  -12    1     -4.91      0.00
    1  -12    1     -1.64      0.00
    2  -12    1     -1.32      0.00
    3  -12    1      0.65      0.00
    4  -12    1     -5.21      0.00
    5  -12    1      2.39      0.00
    6  -12    1     -9.06      0.00
    7  -12    1      2.19      0.00
    8  -12    1     13.82      0.00
  -17  -11    1      3.79      0.00
  -16  -11    1     -3.30      0.00
  -15  -11    1     -0.21      0.00
  -14  -11    1      5.64      0.00
  -13  -11    1     -4.86      0.00
  -12  -11    1     -2.53      0.00
  -11  -11    1     -0.85      0.00
  -10  -11    1     -2.68      0.00
   -9  -11    1     -6.02      0.00
   -8  -11    1     -4.81      0.00
   -7  -11    1      9.91      0.00
   -6  -11    1     -9.47      0.00
   -5  -11    1      3.11      0.00
   -4  -11    1      5.51      0.00
   -3  -11    1    -13.57      0.00
   -2  -11    1     10.57      0.00
   -1  -11    1     -5.09      0.00
    0  -11    1      3.21      0.00
    1  -11    1    -10.19      0.00
    2  -11    1     -1.85      0.00
    3  -11    1      1.59      0.00
    4  -11    1     -0.20      0.00
    5  -11    1     -8.18      0.00
    6  -11    1      1.46      0.00
    7  -11    1      2.77      0.00
    8  -11    1      1.38      0.00
    9  -11    1      7.21      0.00
  -17  -10    1      2.53      0.00
  -16  -10    1     -3.43      0.00
  -15  -10    1      7.08      0.00
  -14  -10    1      1.76      0.00
  -13  -10    1     -4.19      0.00
  -12  -10    1     -3.47      0.00
  -11  -10    1      1.27      0.00
  -10  -10    1     -2.07      0.00
   -9  -10    1     -4.35      0.00
   -8  -10    1      2.88      0.00
   -7  -10    1     -6.81      0.00
   -6  -10    1      3.17      0.00
   -5  -10    1      1.65      0.00
   -4  -10    1      3.25      0.00
   -3  -10    1     -3.38      0.00
   -2  -10    1     -3.89      0.00
   -1  -10    1      9.58      0.00
    0  -10    1    -15.61      0.00
    1  -10    1      2.09      0.00
    2  -10    1      4.05      0.00
    3  -10    1    -11.67      0.00
    4  -10    1      3.64      0.00
    5  -10    1      1.09      0.00
    6  -10    1    -10.56      0.00
    7  -10    1     -3.55      0.00
    8  -10    1     11.27      0.00
    9  -10    1     -6.92      0.00
   10  -10    1     -1.94      0.00
  -17   -9    1     -3.02      0.00
  -16   -9    1      6.05      0.00
  -15   -9    1     -2.86      0.00
  -14   -9    1      7.98      0.00
  -13   -9    1     -2.68      0.00
  -12   -9    1      0.27      0.00
  -11   -9    1      3.71      0.00
  -10   -9    1    -11.66      0.00
   -9   -9    1      0.62      0.00
   -8   -9    1     12.84      0.00
   -7   -9    1    -13.40      0.00
   -6   -9    1      7.36      0.00
   -5   -9    1      7.69      0.00
   -4   -9    1    -10.58      0.00
   -3   -9    1      2.05      0.00
   -2   -9    1     -1.91      0.00
   -1   -9    1      1.76      0.00
    0   -9    1     -2.69      0.00
    1   -9    1     -6.95      0.00
    2   -9    1     -2.70      0.00
    3   -9    1      4.06      0.00
    4   -9    1      3.52      0.00
    5   -9    1    -11.53      0.00
    6   -9    1     -0.93      0.00
    7   -9    1     -6.14      0.00
    8   -9    1     -5.71      0.00
    9   -9    1     -0.09      0.00
   10   -9    1     -1.63      0.00
   11   -9    1     -0.94      0.00
  -17   -8    1     -3.04      0.00
  -16   -8    1      8.78      0.00
  -15   -8    1     -0.81      0.00
  -14   -8    1      2.26      0.00
  -13   -8    1     -0.11      0.00
  -12   -8    1      2.42      0.00
  -11   -8    1     -0.40      0.00
  -10   -8    1     -6.07      0.00
   -9   -8    1     13.52      0.00
   -8   -8    1    -10.22      0.00
   -7   -8    1     -2.00      0.00
   -6   -8    1      4.09      0.00
   -5   -8    1      4.51      0.00
   -4   -8    1     -2.79      0.00
   -3   -8    1    -21.00      0.00
   -2   -8    1     30.74      0.00
   -1   -8    1    -23.98      0.00
    0   -8    1     -8.95      0.00
    1   -8    1     13.24      0.00
    2   -8    1     -1.45      0.00
    3   -8    1     -1.01      0.00
    4   -8    1      6.93      0.00
    5   -8    1     -7.00      0.00
    6   -8    1     -4.23      0.00
    7   -8    1     -6.17      0.00
    8   -8    1     -9.58      0.00
    9   -8    1     -0.37      0.00
   10   -8    1     -2.05      0.00
   11   -8    1      3.92      0.00
   12   -8    1     -1.02      0.00
  -17   -7    1      2.18      0.00
  -16   -7    1     -3.14      0.00
  -15   -7    1      2.11      0.00
  -14   -7    1      3.62      0.00
  -13   -7    1     -0.28      0.00
  -12   -7    1      8.26      0.00
  -11   -7    1    -10.62      0.00
  -10   -7    1      5.06      0.00
   -9   -7    1     -1.52      0.00
   -8   -7    1      0.86      0.00
   -7   -7    1     -1.31      0.00
   -6   -7    1     -4.96      0.00
   -5   -7    1      6.42      0.00
   -4   -7    1    -24.99      0.00
   -3   -7    1     23.98      0.00
   -2   -7    1    -25.53      0.00
   -1   -7    1      6.59      0.00
    0   -7    1      6.89      0.00
    1   -7    1     -7.62      0.00
    2   -7    1     -1.70      0.00
    3   -7    1     22.20      0.00
    4   -7    1    -15.26      0.00
    5   -7    1      0.75      0.00
    6   -7    1      5.92      0.00
    7   -7    1    -25.52      0.00
    8   -7    1      4.69      0.00
    9   -7    1     -5.93      0.00
   10   -7    1      3.28      0.00
   11   -7    1      3.35      0.00
   12   -7    1     -8.15      0.00
   13   -7    1      7.40      0.00
  -17   -6    1     -0.71      0.00
  -16   -6    1      6.75      0.00
  -15   -6    1     -4.22      0.00
  -14   -6    1     -2.16      0.00
  -13   -6    1      9.79      0.00
  -12   -6    1     -4.59      0.00
  -11   -6    1     -1.16      0.00
  -10   -6    1      6.72      0.00
   -9   -6    1      3.54      0.00
   -8   -6    1     -5.74      0.00
   -7   -6    1     -3.91      0.00
   -6   -6    1     -6.29      0.00
   -5   -6    1     -0.16      0.00
   -4   -6    1     -4.81      0.00
   -3   -6    1    -17.80      0.00
   -2   -6    1     27.34      0.00
   -1   -6    1    -20.74      0.00
    0   -6    1      6.25      0.00
    1   -6    1     -1.29      0.00
    2   -6    1      1.49      0.00
    3   -6    1      1.55      0.00
    4   -6    1     -4.99      0.00
    5   -6    1     -2.71      0.00
    6   -6    1    -10.96      0.00
    7   -6    1      0.18      0.00
    8   -6    1    -17.54      0.00
    9   -6    1      9.46      0.00
   10   -6    1     -2.08      0.00
   11   -6    1      4.85      0.00
   12   -6    1     -2.95      0.00
   13   -6    1     -1.20      0.00
  -17   -5    1      1.59      0.00
  -16   -5    1     -6.20      0.00
  -15   -5    1      4.58      0.00
  -14   -5    1      0.80      0.00
  -13   -5    1      5.09      0.00
  -12   -5    1     -0.55      0.00
  -11   -5    1      2.93      0.00
  -10   -5    1      2.41      0.00
   -9   -5    1      3.43      0.00
   -8   -5    1     -6.06      0.00
   -7   -5    1      2.97      0.00
   -6   -5    1     -2.85      0.00
   -5   -5    1    -23.68      0.00
   -4   -5    1     23.14      0.00
   -3   -5    1     -7.67      0.00
   -2   -5    1    -33.63      0.00
   -1   -5    1     47.63      0.00
    0   -5    1    -28.41      0.00
    1   -5    1      5.01      0.00
    2   -5    1    -12.24      0.00
    3   -5    1    -10.12      0.00
    4   -5    1     -4.98      0.00
    5   -5    1    -10.68      0.00
    6   -5    1     -2.55      0.00
    7   -5    1    -10.90      0.00
    8   -5    1      0.39      0.00
    9   -5    1     -0.45      0.00
   10   -5    1      4.26      0.00
   11   -5    1     -1.78      0.00
   12   -5    1      2.87      0.00
   13   -5    1     -2.12      0.00
   14   -5    1      0.39      0.00
  -17   -4    1      1.16      0.00
  -16   -4    1     -0.98      0.00
  -15   -4    1      5.75      0.00
  -14   -4    1     -1.59      0.00
  -13   -4    1     -0.29      0.00
  -12   -4    1      6.54      0.00
  -11   -4    1      1.88      0.00
  -10   -4    1     -0.73      0.00
   -9   -4    1      5.16      0.00
   -8   -4    1     -3.10      0.00
   -7   -4    1     -1.31      0.00
   -6   -4    1     -7.14      0.00
   -5   -4    1     13.80      0.00
   -4   -4    1    -11.25      0.00
   -3   -4    1    -14.92      0.00
   -2   -4    1     12.80      0.00
   -1   -4    1     10.12      0.00
    0   -4    1    -37.07      0.00
    1   -4    1     -0.03      0.00
    2   -4    1    -17.35      0.00
    3   -4    1    -17.92      0.00
    5   -4    1      2.89      0.00
    6   -4    1    -10.91      0.00
    7   -4    1     -2.55      0.00
    8   -4    1     -7.58      0.00
    9   -4    1     14.29      0.00
   10   -4    1     -6.57      0.00
   11   -4    1      8.49      0.00
   12   -4    1     -4.56      0.00
   13   -4    1     -1.76      0.00
   14   -4    1      0.85      0.00
   15   -4    1      0.76      0.00
  -17   -3    1     -1.07      0.00
  -16   -3    1     -2.49      0.00
  -15   -3    1      5.83      0.00
  -14   -3    1     -3.69      0.00
  -13   -3    1      8.06      0.00
  -12   -3    1     -6.93      0.00
  -11   -3    1     11.51      0.00
  -10   -3    1    -10.20      0.00
   -9   -3    1      3.49      0.00
   -8   -3    1     -0.12      0.00
   -7   -3    1      0.22      0.00
   -6   -3    1      3.41      0.00
   -5   -3    1      6.57      0.00
   -4   -3    1      8.21      0.00
   -3   -3    1     -5.04      0.00
   -2   -3    1    -15.51      0.00
   -1   -3    1    -37.32      0.00
    0   -3    1     -5.73      0.00
    1   -3    1     -4.46      0.00
    2   -3    1    -31.39      0.00
    3   -3    1    -63.88      0.00
    4   -3    1     23.01      0.00
    5   -3    1    -13.13      0.00
    6   -3    1    -10.26      0.00
    7   -3    1     12.23      0.00
    8   -3    1      1.44      0.00
    9   -3    1    -10.19      0.00
   10   -3    1      8.79      0.00
   11   -3    1      0.38      0.00
   12   -3    1      5.35      0.00
   13   -3    1     -7.88      0.00
   14   -3    1      0.74      0.00
   15   -3    1      1.58      0.00
  -17   -2    1     -2.46      0.00
  -16   -2    1      4.07      0.00
  -15   -2    1     -1.31      0.00
  -14   -2    1      3.67      0.00
  -13   -2    1    -11.48      0.00
  -12   -2    1     17.12      0.00
  -11   -2    1     -8.27      0.00
  -10   -2    1     -4.73      0.00
   -9   -2    1      0.48      0.00
   -8   -2    1      7.91      0.00
   -7   -2    1     -9.25      0.00
   -6   -2    1     24.64      0.00
   -5   -2    1     16.43      0.00
   -4   -2    1    -32.50      0.00
   -3   -2    1     50.79      0.00
   -2   -2    1    -93.82      0.00
   -1   -2    1      3.44      0.00
    0   -2    1    -83.15      0.00
    1   -2    1     -0.01      0.00
    2   -2    1    -49.54      0.00
    3   -2    1    -35.86      0.00
    4   -2    1    -13.39      0.00
    5   -2    1      1.22      0.00
    6   -2    1      8.72      0.00
    7   -2    1     -6.46      0.00
    8   -2    1      6.53      0.00
    9   -2    1     -4.29      0.00
   10   -2    1      8.24      0.00
   11   -2    1      2.24      0.00
   12   -2    1     -3.97      0.00
   13   -2    1      0.70      0.00
   14   -2    1      0.92      0.00
   15   -2    1     -1.73      0.00
   16   -2    1      3.20      0.00
  -16   -1    1     -5.42      0.00
  -15   -1    1      6.71      0.00
  -14   -1    1     -0.33      0.00
  -13   -1    1     -0.48      0.00
  -12   -1    1      3.06      0.00
  -11   -1    1     -4.03      0.00
  -10   -1    1     -0.85      0.00
   -9   -1    1      4.05      0.00
   -8   -1    1     -0.65      0.00
   -7   -1    1      5.65      0.00
   -6   -1    1     14.09      0.00
   -5   -1    1      1.15      0.00
   -4   -1    1     20.69      0.00
   -3   -1    1    -35.40      0.00
   -2   -1    1     56.40      0.00
    1   -1    1    -43.51      0.00
    2   -1    1   -100.31      0.00
    3   -1    1    -35.48      0.00
    4   -1    1     16.31      0.00
    5   -1    1    -13.26      0.00
    6   -1    1     12.53      0.00
    7   -1    1     14.53      0.00
    8   -1    1    -10.07      0.00
    9   -1    1      2.25      0.00
   10   -1    1      2.11      0.00
   11   -1    1      4.54      0.00
   12   -1    1      0.82      0.00
   13   -1    1      0.35      0.00
   14   -1    1     -1.29      0.00
   15   -1    1      2.77      0.00
   16   -1    1     -0.16      0.00
  -16    0    1      0.12      0.00
  -15    0    1      4.21      0.00
  -14    0    1     -0.91      0.00
  -13    0    1      2.53      0.00
  -12    0    1      5.35      0.00
  -11    0    1    -10.37      0.00
  -10    0    1      6.20      0.00
   -9    0    1      0.60      0.00
   -8    0    1      1.62      0.00
   -7    0    1     12.85      0.00
   -6    0    1      2.00      0.00
   -5    0    1      1.22      0.00
   -4    0    1      7.32      0.00
   -3    0    1     -7.03      0.00
   -2    0    1   -111.65      0.00
    2    0    1     -4.30      0.00
    3    0    1    -10.43      0.00
    4    0    1    -22.99      0.00
    5    0    1      5.88      0.00
    6    0    1     23.27      0.00
    7    0    1    -15.86      0.00
    8    0    1     19.38      0.00
    9    0    1    -18.18      0.00
   10    0    1     20.52      0.00
   11    0    1    -12.50      0.00
   12    0    1      4.87      0.00
   13    0    1      8.51      0.00
   14    0    1     -4.98      0.00
   15    0    1      1.22      0.00
   16    0    1     -0.64      0.00
  -16    1    1      0.85      0.00
  -15    1    1      1.99      0.00
  -14    1    1      3.25      0.00
  -13    1    1      3.53      0.00
  -12    1    1     -4.73      0.00
  -11    1    1     -3.55      0.00
  -10    1    1     10.93      0.00
   -9    1    1     -4.40      0.00
   -8    1    1     11.94      0.00
   -7    1    1     -7.76      0.00
   -6    1    1      4.93      0.00
   -5    1    1      0.68      0.00
   -4    1    1    -16.55      0.00
   -3    1    1     10.04      0.00
   -2    1    1    -58.96      0.00
   -1    1    1   -210.10      0.00
    2    1    1    -41.17      0.00
    3    1    1     -5.76      0.00
    4    1    1     14.95      0.00
    5    1    1     -7.44      0.00
    6    1    1      7.93      0.00
    7    1    1      8.97      0.00
    8    1    1    -17.76      0.00
    9    1    1     18.31      0.00
   10    1    1    -17.35      0.00
   11    1    1      6.27      0.00
   12    1    1      9.26      0.00
   13    1    1     -3.45      0.00
   14    1    1     -0.64      0.00
   15    1    1      1.35      0.00
   16    1    1      0.48      0.00
   17    1    1     -2.23      0.00
  -15    2    1     -1.16      0.00
  -14    2    1      3.52      0.00
  -13    2    1      1.25      0.00
  -12    2    1     -2.86      0.00
  -11    2    1      3.28      0.00
  -10    2    1     -3.80      0.00
   -9    2    1      5.90      0.00
   -8    2    1     -0.87      0.00
   -7    2    1     14.54      0.00
   -6    2    1    -10.64      0.00
   -5    2    1    -25.01      0.00
   -4    2    1     38.05      0.00
   -3    2    1    -66.39      0.00
   -2    2    1    -55.01      0.00
   -1    2    1     27.09      0.00
    0    2    1   -124.24      0.00
    1    2    1     69.93      0.00
    2    2    1      5.72      0.00
    3    2    1     25.73      0.00
    4    2    1      2.13      0.00
    5    2    1    -19.06      0.00
    6    2    1     12.54      0.00
    7    2    1    -12.06      0.00
    8    2    1      2.16      0.00
    9    2    1     -7.18      0.00
   10    2    1      0.28      0.00
   11    2    1      5.04      0.00
   12    2    1     -1.05      0.00
   13    2    1      7.04      0.00
   14    2    1     -5.06      0.00
   15    2    1      0.22      0.00
   16    2    1     -0.60      0.00
   17    2    1      2.38      0.00
  -15    3    1      0.30      0.00
  -14    3    1      3.96      0.00
  -13    3    1     -4.12      0.00
  -12    3    1      2.88      0.00
  -11    3    1     -2.91      0.00
  -10    3    1      5.41      0.00
   -9    3    1      1.95      0.00
   -8    3    1      3.09      0.00
   -7    3    1     -7.69      0.00
   -6    3    1     -1.37      0.00
   -5    3    1     -6.27      0.00
   -4    3    1    -32.00      0.00
   -3    3    1     23.20      0.00
   -2    3    1    -37.40      0.00
   -1    3    1    -24.06      0.00
    0    3    1    -43.72      0.00
    1    3    1     74.03      0.00
    3    3    1      5.78      0.00
    4    3    1     -7.78      0.00
    5    3    1     13.23      0.00
    6    3    1    -11.10      0.00
    7    3    1    -12.51      0.00
    8    3    1     -1.08      0.00
    9    3    1     -0.44      0.00
   10    3    1     -5.86      0.00
   11    3    1     19.78      0.00
   12    3    1    -11.85      0.00
   13    3    1      5.55      0.00
   14    3    1     -4.71      0.00
   15    3    1      6.66      0.00
   16    3    1      1.85      0.00
   17    3    1     -1.16      0.00
  -14    4    1     -0.46      0.00
  -13    4    1      5.33      0.00
  -12    4    1     -1.77      0.00
  -11    4    1      4.62      0.00
  -10    4    1     -7.81      0.00
   -9    4    1      2.17      0.00
   -8    4    1      6.41      0.00
   -7    4    1     -4.16      0.00
   -6    4    1    -14.75      0.00
   -5    4    1    -16.34      0.00
   -4    4    1      1.85      0.00
   -3    4    1    -32.09      0.00
   -2    4    1     28.33      0.00
   -1    4    1    -34.64      0.00
    0    4    1     32.65      0.00
    1    4    1    -15.55      0.00
    2    4    1     43.33      0.00
    3    4    1     11.99      0.00
    4    4    1      8.32      0.00
    5    4    1     -3.46      0.00
    6    4    1    -26.78      0.00
    7    4    1     22.50      0.00
    8    4    1    -22.28      0.00
    9    4    1     -1.52      0.00
   10    4    1     12.69      0.00
   11    4    1      4.82      0.00
   12    4    1     -4.26      0.00
   13    4    1      2.54      0.00
   14    4    1     -0.03      0.00
   15    4    1     -0.05      0.00
   16    4    1      3.37      0.00
   17    4    1      2.20      0.00
   18    4    1      2.05      0.00
  -14    5    1      0.83      0.00
  -13    5    1     -1.13      0.00
  -12    5    1      4.41      0.00
  -11    5    1      0.88      0.00
  -10    5    1     -7.15      0.00
   -9    5    1      8.36      0.00
   -8    5    1     -9.39      0.00
   -7    5    1     -6.08      0.00
   -6    5    1    -10.13      0.00
   -5    5    1     -3.39      0.00
   -4    5    1    -34.01      0.00
   -3    5    1     36.48      0.00
   -2    5    1    -26.88      0.00
   -1    5    1     22.72      0.00
    0    5    1    -14.48      0.00
    1    5    1     25.72      0.00
    2    5    1     22.55      0.00
    3    5    1     -2.24      0.00
    4    5    1      4.19      0.00
    5    5    1      0.78      0.00
    6    5    1     -8.60      0.00
    7    5    1     -2.63      0.00
    8    5    1     -2.74      0.00
    9    5    1     -4.05      0.00
   10    5    1     16.04      0.00
   11    5    1     -1.16      0.00
   12    5    1     -7.36      0.00
   13    5    1      1.95      0.00
   14    5    1     -1.56      0.00
   15    5    1      4.01      0.00
   16    5    1      3.21      0.00
   17    5    1      2.17      0.00
   18    5    1     -3.73      0.00
  -13    6    1      5.89      0.00
  -12    6    1     -2.82      0.00
  -11    6    1     -0.35      0.00
  -10    6    1     -4.87      0.00
   -9    6    1      0.36      0.00
   -8    6    1      1.55      0.00
   -7    6    1     -8.37      0.00
   -6    6    1     -8.21      0.00
   -5    6    1     -6.36      0.00
   -4    6    1     -4.45      0.00
   -3    6    1      6.70      0.00
   -2    6    1      7.68      0.00
   -1    6    1    -12.95      0.00
    0    6    1     46.21      0.00
    1    6    1     -9.28      0.00
    2    6    1    -25.87      0.00
    3    6    1     49.70      0.00
    4    6    1    -20.86      0.00
    5    6    1     -6.96      0.00
    6    6    1      3.59      0.00
    7    6    1      5.77      0.00
    8    6    1    -15.47      0.00
    9    6    1      8.31      0.00
   10    6    1     -1.42      0.00
   11    6    1      4.58      0.00
   12    6    1     -6.78      0.00
   13    6    1     -1.20      0.00
   14    6    1      4.32      0.00
   15    6    1     -4.37      0.00
   16    6    1      4.43      0.00
   17    6    1      2.40      0.00
   18    6    1      0.55      0.00
  -12    7    1     -1.43      0.00
  -11    7    1     -0.30      0.00
  -10    7    1     -3.73      0.00
   -9    7    1      2.16      0.00
   -8    7    1     -4.83      0.00
   -7    7    1      0.99      0.00
   -6    7    1     -8.71      0.00
   -5    7    1      0.93      0.00
   -4    7    1      4.44      0.00
   -3    7    1     -2.53      0.00
   -2    7    1      5.55      0.00
   -1    7    1     16.85      0.00
    0    7    1     -2.27      0.00
    1    7    1      3.22      0.00
    2    7    1     -6.53      0.00
    3    7    1     20.53      0.00
    4    7    1    -17.77      0.00
    5    7    1      2.70      0.00
    6    7    1      0.12      0.00
    7    7    1     -5.96      0.00
    8    7    1      1.35      0.00
    9    7    1     -0.62      0.00
   10    7    1      9.17      0.00
   11    7    1    -12.48      0.00
   12    7    1      5.07      0.00
   13    7    1     -1.65      0.00
   14    7    1     -7.81      0.00
   15    7    1      9.96      0.00
   16    7    1      3.91      0.00
   17    7    1     -4.11      0.00
   18    7    1      1.52      0.00
  -12    8    1     -8.77      0.00
  -11    8    1      3.67      0.00
  -10    8    1     -1.63      0.00
   -9    8    1     -3.95      0.00
   -8    8    1      0.54      0.00
   -7    8    1     -3.15      0.00
   -6    8    1      2.98      0.00
   -5    8    1     -5.94      0.00
   -4    8    1      2.81      0.00
   -3    8    1     10.54      0.00
   -2    8    1    -20.39      0.00
   -1    8    1     21.33      0.00
    0    8    1     10.66      0.00
    1    8    1    -14.92      0.00
    2    8    1      0.90      0.00
    3    8    1     11.83      0.00
    4    8    1     -4.24      0.00
    5    8    1    -15.79      0.00
    6    8    1     16.18      0.00
    7    8    1     -7.93      0.00
    8    8    1     -2.26      0.00
    9    8    1      9.48      0.00
   10    8    1    -11.77      0.00
   11    8    1      8.43      0.00
   12    8    1      3.19      0.00
   13    8    1     -7.41      0.00
   14    8    1      4.15      0.00
   15    8    1     -1.80      0.00
   16    8    1      3.72      0.00
   17    8    1     -2.20      0.00
   18    8    1      2.53      0.00
  -11    9    1      1.24      0.00
  -10    9    1     -2.62      0.00
   -9    9    1     -7.25      0.00
   -8    9    1      2.70      0.00
   -7    9    1      1.31      0.00
   -6    9    1     -4.18      0.00
   -5    9    1      3.46      0.00
   -4    9    1      5.31      0.00
   -3    9    1    -21.55      0.00
   -2    9    1     20.50      0.00
   -1    9    1     -0.77      0.00
    0    9    1     -8.88      0.00
    1    9    1      3.15      0.00
    2    9    1      9.38      0.00
    3    9    1     -4.12      0.00
    4    9    1      0.86      0.00
    5    9    1     -6.88      0.00
    6    9    1      5.00      0.00
    7    9    1     -7.77      0.00
    8    9    1      1.06      0.00
    9    9    1      8.59      0.00
   10    9    1     -3.18      0.00
   11    9    1      3.06      0.00
   12    9    1      3.89      0.00
   13    9    1     -5.14      0.00
   14    9    1     -3.42      0.00
   15    9    1      8.84      0.00
   16    9    1     -4.91      0.00
   17    9    1     -1.47      0.00
   18    9    1      0.01      0.00
  -10   10    1     -2.30      0.00
   -9   10    1     -5.75      0.00
   -8   10    1      2.51      0.00
   -7   10    1      2.75      0.00
   -6   10    1      4.13      0.00
   -5   10    1     -1.72      0.00
   -4   10    1     -0.20      0.00
   -3   10    1      1.16      0.00
   -2   10    1    -12.33      0.00
   -1   10    1     12.03      0.00
    0   10    1     -1.98      0.00
    1   10    1     -3.07      0.00
    2   10    1      9.47      0.00
    3   10    1    -12.69      0.00
    4   10    1      4.77      0.00
    5   10    1     -4.87      0.00
    6   10    1      0.75      0.00
    7   10    1     -8.20      0.00
    8   10    1     18.52      0.00
    9   10    1    -16.52      0.00
   10   10    1      5.38      0.00
   11   10    1      8.15      0.00
   12   10    1     -4.30      0.00
   13   10    1      2.92      0.00
   14   10    1     -1.84      0.00
   15   10    1      0.44      0.00
   16   10    1     -5.16      0.00
   17   10    1     -1.55      0.00
   18   10    1      0.94      0.00
   -9   11    1      1.61      0.00
   -8   11    1      4.25      0.00
   -7   11    1     -2.75      0.00
   -6   11    1      5.01      0.00
   -5   11    1     12.30      0.00
   -4   11    1    -14.14      0.00
   -3   11    1     -0.35      0.00
   -2   11    1     10.17      0.00
   -1   11    1     -9.02      0.00
    0   11    1      6.37      0.00
    1   11    1     -7.11      0.00
    2   11    1      3.40      0.00
    3   11    1     -3.12      0.00
    4   11    1     -5.36      0.00
    5   11    1      6.57      0.00
    6   11    1    -12.45      0.00
    7   11    1      8.75      0.00
    8   11    1     -1.53      0.00
    9   11    1      1.16      0.00
   10   11    1      4.62      0.00
   11   11    1     -3.39      0.00
   12   11    1      2.65      0.00
   13   11    1      0.19      0.00
   14   11    1      2.26      0.00
   15   11    1     -5.73      0.00
   16   11    1     -3.50      0.00
   17   11    1      2.49      0.00
   18   11    1     -2.32      0.00
   -8   12    1     -9.31      0.00
   -7   12    1     12.74      0.00
   -6   12    1      1.86      0.00
   -5   12    1      0.38      0.00
   -4   12    1      0.21      0.00
   -3   12    1      0.38      0.00
   -2   12    1     -0.21      0.00
   -1   12    1      3.06      0.00
    0   12    1      3.81      0.00
    1   12    1     -4.21      0.00
    2   12    1      3.54      0.00
    3   12    1    -11.24      0.00
    4   12    1      1.06      0.00
    5   12    1      6.37      0.00
    6   12    1     -3.57      0.00
    7   12    1      5.68      0.00
    8   12    1      6.11      0.00
    9   12    1     -4.73      0.00
   10   12    1      2.93      0.00
   11   12    1     -3.04      0.00
   12   12    1      4.49      0.00
   13   12    1      1.93      0.00
   14   12    1     -1.99      0.00
   15   12    1     -3.11      0.00
   16   12    1     -1.65      0.00
   17   12    1     -2.71      0.00
   -7   13    1     -7.12      0.00
   -6   13    1      7.00      0.00
   -5   13    1      6.01      0.00
   -4   13    1     -2.22      0.00
   -3   13    1      2.99      0.00
   -2   13    1      0.25      0.00
   -1   13    1      7.90      0.00
    0   13    1      1.06      0.00
    1   13    1     -2.67      0.00
    2   13    1     -4.38      0.00
    3   13    1      8.71      0.00
    4   13    1     -7.50      0.00
    5   13    1      8.54      0.00
    6   13    1      2.24      0.00
    7   13    1      2.20      0.00
    8   13    1      4.72      0.00
    9   13    1      4.51      0.00
   10   13    1     -3.84      0.00
   11   13    1     -1.18      0.00
   12   13    1      2.46      0.00
   13   13    1      4.46      0.00
   14   13    1     -7.44      0.00
   15   13    1      0.35      0.00
   16   13    1      1.62      0.00
   17   13    1     -2.83      0.00
   -6   14    1      3.71      0.00
   -5   14    1      2.98      0.00
   -4   14    1      5.30      0.00
   -3   14    1     -2.18      0.00
   -2   14    1     -0.51      0.00
   -1   14    1      7.39      0.00
    0   14    1      2.52      0.00
    1   14    1     -2.26      0.00
    2   14    1     -0.60      0.00
    3   14    1      1.17      0.00
    4   14    1     -3.70      0.00
    5   14    1      8.52      0.00
    6   14    1      0.52      0.00
    7   14    1     10.09      0.00
    8   14    1     -4.92      0.00
    9   14    1      4.97      0.00
   10   14    1     -5.02      0.00
   11   14    1      1.05      0.00
   12   14    1      5.11      0.00
   13   14    1     -0.93      0.00
   14   14    1     -4.56      0.00
   15   14    1      5.87      0.00
   16   14    1     -7.78      0.00
   -4   15    1      2.46      0.00
   -3   15    1     -3.00      0.00
   -2   15    1     -0.14      0.00
   -1   15    1      1.03      0.00
    0   15    1     -1.19      0.00
    1   15    1     -2.14      0.00
    2   15    1     -0.59      0.00
    3   15    1     -0.39      0.00
    4   15    1     -1.20      0.00
    5   15    1      3.50      0.00
    6   15    1      3.27      0.00
    7   15    1     -3.17      0.00
    8   15    1      0.25      0.00
    9   15    1      4.88      0.00
   10   15    1     -6.91      0.00
   11   15    1      4.72      0.00
   12   15    1      5.28      0.00
   13   15    1     -5.73      0.00
   14   15    1      1.26      0.00
   15   15    1     -0.12      0.00
   16   15    1     -3.53      0.00
   -3   16    1     -3.95      0.00
   -2   16    1    -10.87      0.00
   -1   16    1      9.83      0.00
    0   16    1     -8.35      0.00
    1   16    1     -1.48      0.00
    2   16    1     -0.24      0.00
    3   16    1     -2.89      0.00
    4   16    1     -1.92      0.00
    5   16    1      0.97      0.00
    6   16    1      1.23      0.00
    7   16    1      1.08      0.00
    8   16    1     -8.05      0.00
    9   16    1      4.42      0.00
   10   16    1     -4.01      0.00
   11   16    1      4.10      0.00
   12   16    1      1.54      0.00
   13   16    1      1.13      0.00
   14   16    1      1.74      0.00
   15   16    1     -6.93      0.00
   -1   17    1     -1.91      0.00
    0   17    1     -2.15      0.00
    1   17    1     -2.73      0.00
    2   17    1      3.38      0.00
    3   17    1     -5.21      0.00
    4   17    1     -0.55      0.00
    5   17    1      3.61      0.00
    6   17    1     -3.59      0.00
    7   17    1     -4.52      0.00
    8   17    1     -0.05      0.00
    9   17    1     -4.91      0.00
   10   17    1      2.99      0.00
   11   17    1      4.66      0.00
   12   17    1      1.15      0.00
   13   17    1     -1.59      0.00
   14   17    1      0.77      0.00
    1   18    1      3.87      0.00
    2   18    1      0.69      0.00
    3   18    1     -5.05      0.00
    4   18    1      2.24      0.00
    5   18    1     -1.97      0.00
    6   18    1     -0.46      0.00
    7   18    1     -3.31      0.00
    8   18    1     -0.92      0.00
    9   18    1     -3.38      0.00
   10   18    1      5.75      0.00
   11   18    1     -2.10      0.00
   12   18    1      3.77      0.00
    5   19    1      0.89      0.00
    6   19    1     -3.43      0.00
    7   19    1      0.82      0.00
    8   19    1     -2.50      0.00
    9   19    1     -2.08      0.00
   -9  -18    2      5.99      0.00
   -8  -18    2      6.77      0.00
   -7  -18    2      0.12      0.00
   -6  -18    2      2.09      0.00
   -5  -18    2     -4.93      0.00
   -4  -18    2     -6.04      0.00
   -3  -18    2      4.45      0.00
  -11  -17    2     10.43      0.00
  -10  -17    2     -1.96      0.00
   -9  -17    2     -0.40      0.00
   -8  -17    2      7.24      0.00
   -7  -17    2      4.65      0.00
   -6  -17    2     -5.85      0.00
   -5  -17    2     -2.70      0.00
   -4  -17    2     -2.36      0.00
   -3  -17    2      1.35      0.00
   -2  -17    2     -4.30      0.00
   -1  -17    2     -2.21      0.00
    0  -17    2     -1.04      0.00
  -13  -16    2     -2.23      0.00
  -12  -16    2      4.16      0.00
  -11  -16    2      1.25      0.00
  -10  -16    2     -0.31      0.00
   -9  -16    2      2.78      0.00
   -8  -16    2      2.54      0.00
   -7  -16    2     -0.52      0.00
   -6  -16    2     -1.70      0.00
   -5  -16    2     -2.54      0.00
   -4  -16    2     -3.82      0.00
   -3  -16    2      4.39      0.00
   -2  -16    2     -4.61      0.00
   -1  -16    2     -2.59      0.00
    0  -16    2     -0.94      0.00
    1  -16    2      0.76      0.00
    2  -16    2     -1.37      0.00
  -14  -15    2     -4.04      0.00
  -13  -15    2     -4.68      0.00
  -12  -15    2      2.05      0.00
  -11  -15    2      1.96      0.00
  -10  -15    2      0.77      0.00
   -9  -15    2      0.51      0.00
   -8  -15    2      0.13      0.00
   -7  -15    2     -4.29      0.00
   -6  -15    2     -2.75      0.00
   -5  -15    2     -0.17      0.00
   -4  -15    2     -1.85      0.00
   -3  -15    2     -1.02      0.00
   -2  -15    2      1.42      0.00
   -1  -15    2     -4.61      0.00
    0  -15    2      3.41      0.00
    1  -15    2     -3.84      0.00
    2  -15    2     -2.79      0.00
    3  -15    2      6.23      0.00
    4  -15    2     -3.91      0.00
  -15  -14    2      0.40      0.00
  -14  -14    2     -7.90      0.00
  -13  -14    2      0.96      0.00
  -12  -14    2      0.42      0.00
  -11  -14    2     -1.16      0.00
  -10  -14    2      1.45      0.00
   -9  -14    2     -1.08      0.00
   -8  -14    2     -6.89      0.00
   -7  -14    2      0.81      0.00
   -6  -14    2     -1.45      0.00
   -5  -14    2     -4.07      0.00
   -4  -14    2      2.17      0.00
   -3  -14    2     -4.45      0.00
   -2  -14    2      0.54      0.00
   -1  -14    2     -1.33      0.00
    0  -14    2      0.41      0.00
    1  -14    2      1.09      0.00
    2  -14    2      1.65      0.00
    3  -14    2      0.95      0.00
    4  -14    2      1.85      0.00
    5  -14    2      1.38      0.00
    6  -14    2      0.76      0.00
  -15  -13    2     -1.62      0.00
  -14  -13    2     -2.55      0.00
  -13  -13    2      1.99      0.00
  -12  -13    2     -3.45      0.00
  -11  -13    2     -2.16      0.00
  -10  -13    2      2.76      0.00
   -9  -13    2     -3.32      0.00
   -8  -13    2     -1.78      0.00
   -7  -13    2     -1.47      0.00
   -6  -13    2     -0.85      0.00
   -5  -13    2     -4.25      0.00
   -4  -13    2      2.52      0.00
   -3  -13    2      1.87      0.00
   -2  -13    2     -4.09      0.00
   -1  -13    2      2.60      0.00
    0  -13    2     -2.71      0.00
    1  -13    2      4.50      0.00
    2  -13    2      0.49      0.00
    3  -13    2      7.41      0.00
    4  -13    2     -1.02      0.00
    5  -13    2      6.01      0.00
    6  -13    2      0.28      0.00
    7  -13    2      0.63      0.00
  -16  -12    2     -0.02      0.00
  -15  -12    2     -3.99      0.00
  -14  -12    2      1.91      0.00
  -13  -12    2     -0.05      0.00
  -12  -12    2     -3.06      0.00
  -11  -12    2      4.08      0.00
  -10  -12    2     -2.22      0.00
   -9  -12    2     -3.59      0.00
   -8  -12    2     -3.32      0.00
   -7  -12    2      4.15      0.00
   -6  -12    2      4.31      0.00
   -5  -12    2     -9.47      0.00
   -4  -12    2     14.55      0.00
   -3  -12    2     -9.31      0.00
   -2  -12    2      0.32      0.00
   -1  -12    2      6.62      0.00
    0  -12    2      0.69      0.00
    1  -12    2      0.21      0.00
    2  -12    2      2.60      0.00
    3  -12    2      2.15      0.00
    4  -12    2      4.22      0.00
    5  -12    2      2.22      0.00
    6  -12    2      0.17      0.00
    7  -12    2      2.55      0.00
    8  -12    2     -2.32      0.00
  -16  -11    2     -6.51      0.00
  -15  -11    2     -0.51      0.00
  -14  -11    2      4.10      0.00
  -13  -11    2     -2.55      0.00
  -12  -11    2     -1.22      0.00
  -11  -11    2      1.92      0.00
  -10  -11    2     -2.16      0.00
   -9  -11    2     -0.98      0.00
   -8  -11    2      0.94      0.00
   -7  -11    2      1.87      0.00
   -6  -11    2     -4.64      0.00
   -5  -11    2      2.75      0.00
   -4  -11    2      6.31      0.00
   -3  -11    2      4.35      0.00
   -2  -11    2     -2.49      0.00
   -1  -11    2      6.59      0.00
    0  -11    2      2.30      0.00
    1  -11    2     -3.30      0.00
    2  -11    2      6.33      0.00
    3  -11    2     -4.66      0.00
    4  -11    2      1.44      0.00
    5  -11    2      5.46      0.00
    6  -11    2      5.65      0.00
    7  -11    2    -13.62      0.00
    8  -11    2      8.87      0.00
    9  -11    2     -0.46      0.00
  -17  -10    2    -10.55      0.00
  -16  -10    2      3.50      0.00
  -15  -10    2     -3.68      0.00
  -14  -10    2     -1.97      0.00
  -13  -10    2     -0.33      0.00
  -12  -10    2      2.75      0.00
  -11  -10    2      1.61      0.00
  -10  -10    2     -1.38      0.00
   -9  -10    2     -9.07      0.00
   -8  -10    2      2.51      0.00
   -7  -10    2     -0.42      0.00
   -6  -10    2     -5.76      0.00
   -5  -10    2     11.73      0.00
   -4  -10    2      0.87      0.00
   -3  -10    2      0.04      0.00
   -2  -10    2      8.85      0.00
   -1  -10    2      4.88      0.00
    0  -10    2      4.49      0.00
    1  -10    2      2.09      0.00
    2  -10    2     -7.62      0.00
    3  -10    2     -4.67      0.00
    4  -10    2      8.27      0.00
    5  -10    2      2.10      0.00
    6  -10    2      0.03      0.00
    7  -10    2      4.36      0.00
    8  -10    2     -2.44      0.00
    9  -10    2      3.50      0.00
   10  -10    2      4.72      0.00
  -17   -9    2     -7.23      0.00
  -16   -9    2      2.28      0.00
  -15   -9    2     -1.45      0.00
  -14   -9    2     -2.57      0.00
  -13   -9    2     -0.01      0.00
  -12   -9    2     -1.26      0.00
  -11   -9    2      2.43      0.00
  -10   -9    2     -6.58      0.00
   -9   -9    2      0.95      0.00
   -8   -9    2      2.25      0.00
   -7   -9    2    -18.11      0.00
   -6   -9    2      7.43      0.00
   -5   -9    2      2.77      0.00
   -4   -9    2     11.50      0.00
   -3   -9    2     -3.77      0.00
   -2   -9    2     14.11      0.00
   -1   -9    2     11.25      0.00
    0   -9    2     -2.87      0.00
    1   -9    2     -4.72      0.00
    2   -9    2      5.87      0.00
    3   -9    2    -12.45      0.00
    4   -9    2      1.63      0.00
    5   -9    2      9.22      0.00
    6   -9    2      0.33      0.00
    7   -9    2      4.88      0.00
    8   -9    2      4.71      0.00
    9   -9    2      1.95      0.00
   10   -9    2      1.78      0.00
   11   -9    2      1.35      0.00
  -17   -8    2     -1.89      0.00
  -16   -8    2      6.09      0.00
  -15   -8    2    -10.64      0.00
  -14   -8    2      1.74      0.00
  -13   -8    2     -0.95      0.00
  -12   -8    2      4.60      0.00
  -11   -8    2      0.34      0.00
  -10   -8    2     -6.82      0.00
   -9   -8    2     -0.77      0.00
   -8   -8    2     -2.60      0.00
   -7   -8    2     -5.78      0.00
   -6   -8    2      0.24      0.00
   -5   -8    2     13.00      0.00
   -4   -8    2     -3.76      0.00
   -3   -8    2     15.56      0.00
   -2   -8    2      8.29      0.00
   -1   -8    2      0.52      0.00
    0   -8    2      7.68      0.00
    1   -8    2      3.33      0.00
    2   -8    2    -25.97      0.00
    3   -8    2      8.45      0.00
    4   -8    2      2.90      0.00
    5   -8    2    -13.28      0.00
    6   -8    2     25.74      0.00
    7   -8    2     -6.81      0.00
    8   -8    2      6.14      0.00
    9   -8    2      1.53      0.00
   10   -8    2     -0.18      0.00
   11   -8    2      8.79      0.00
   12   -8    2     -3.38      0.00
  -17   -7    2     -3.54      0.00
  -16   -7    2      1.82      0.00
  -15   -7    2      3.20      0.00
  -14   -7    2     -5.82      0.00
  -13   -7    2      4.38      0.00
  -12   -7    2      4.63      0.00
  -11   -7    2    -11.21      0.00
  -10   -7    2      5.30      0.00
   -9   -7    2      6.42      0.00
   -8   -7    2    -15.47      0.00
   -7   -7    2      9.17      0.00
   -6   -7    2     -8.79      0.00
   -5   -7    2      6.87      0.00
   -4   -7    2     22.61      0.00
   -3   -7    2    -15.93      0.00
   -2   -7    2     27.43      0.00
   -1   -7    2     -2.25      0.00
    0   -7    2     -3.07      0.00
    1   -7    2     -8.64      0.00
    2   -7    2     -3.77      0.00
    3   -7    2      0.71      0.00
    4   -7    2    -10.07      0.00
    5   -7    2     14.87      0.00
    6   -7    2     -2.00      0.00
    7   -7    2     12.76      0.00
    8   -7    2     -4.75      0.00
    9   -7    2      1.04      0.00
   10   -7    2     -0.23      0.00
   11   -7    2      6.58      0.00
   12   -7    2     -0.11      0.00
   13   -7    2      4.99      0.00
  -17   -6    2      3.24      0.00
  -16   -6    2     -3.07      0.00
  -15   -6    2     -1.37      0.00
  -14   -6    2      2.09      0.00
  -13   -6    2      5.38      0.00
  -12   -6    2     -2.89      0.00
  -11   -6    2     -1.46      0.00
  -10   -6    2      3.21      0.00
   -9   -6    2     -9.00      0.00
   -8   -6    2      5.59      0.00
   -7   -6    2     -5.63      0.00
   -6   -6    2      9.41      0.00
   -5   -6    2     -2.83      0.00
   -4   -6    2     -3.26      0.00
   -3   -6    2     38.20      0.00
   -2   -6    2    -33.27      0.00
   -1   -6    2     16.98      0.00
    0   -6    2      1.00      0.00
    1   -6    2    -10.62      0.00
    2   -6    2     -2.10      0.00
    3   -6    2      7.29      0.00
    4   -6    2      1.60      0.00
    5   -6    2      2.28      0.00
    6   -6    2     18.08      0.00
    7   -6    2     -5.18      0.00
    8   -6    2      1.31      0.00
    9   -6    2     -3.51      0.00
   10   -6    2      1.85      0.00
   11   -6    2      3.86      0.00
   12   -6    2      0.35      0.00
   13   -6    2      1.66      0.00
  -17   -5    2     -2.22      0.00
  -16   -5    2      1.16      0.00
  -15   -5    2      0.02      0.00
  -14   -5    2      3.04      0.00
  -13   -5    2     -2.07      0.00
  -12   -5    2     -2.94      0.00
  -11   -5    2     -0.75      0.00
  -10   -5    2     -3.94      0.00
   -9   -5    2      5.01      0.00
   -8   -5    2     -4.53      0.00
   -7   -5    2      6.53      0.00
   -6   -5    2    -13.68      0.00
   -5   -5    2      7.20      0.00
   -4   -5    2     15.37      0.00
   -3   -5    2    -19.77      0.00
   -2   -5    2     -2.55      0.00
   -1   -5    2     35.30      0.00
    0   -5    2    -40.51      0.00
    1   -5    2     21.16      0.00
    2   -5    2      6.87      0.00
    3   -5    2      3.71      0.00
    4   -5    2     10.57      0.00
    5   -5    2     16.17      0.00
    6   -5    2     -0.70      0.00
    7   -5    2     13.96      0.00
    8   -5    2    -21.10      0.00
    9   -5    2      9.63      0.00
   10   -5    2     -7.80      0.00
   11   -5    2      5.51      0.00
   12   -5    2      3.23      0.00
   13   -5    2     -2.14      0.00
   14   -5    2      3.08      0.00
  -17   -4    2      1.35      0.00
  -16   -4    2     -6.28      0.00
  -15   -4    2      3.84      0.00
  -14   -4    2     -2.60      0.00
  -13   -4    2     -0.15      0.00
  -12   -4    2     -6.60      0.00
  -11   -4    2      6.39      0.00
  -10   -4    2     -7.25      0.00
   -9   -4    2      4.85      0.00
   -8   -4    2     -2.22      0.00
   -7   -4    2     -3.00      0.00
   -6   -4    2      2.16      0.00
   -5   -4    2    -15.67      0.00
   -4   -4    2     13.99      0.00
   -3   -4    2     -8.46      0.00
   -2   -4    2     -4.58      0.00
   -1   -4    2     -6.01      0.00
    0   -4    2      0.40      0.00
    1   -4    2     18.92      0.00
    2   -4    2     31.12      0.00
    3   -4    2    -10.76      0.00
    4   -4    2     18.80      0.00
    5   -4    2     20.20      0.00
    6   -4    2     -1.86      0.00
    7   -4    2     -3.91      0.00
    8   -4    2      5.42      0.00
    9   -4    2     -8.66      0.00
   10   -4    2     -3.03      0.00
   11   -4    2      1.35      0.00
   12   -4    2      3.40      0.00
   13   -4    2      0.34      0.00
   14   -4    2      1.75      0.00
   15   -4    2     -0.59      0.00
  -17   -3    2     -3.96      0.00
  -16   -3    2      2.95      0.00
  -15   -3    2     -1.10      0.00
  -14   -3    2      4.67      0.00
  -13   -3    2    -16.41      0.00
  -12   -3    2      8.36      0.00
  -11   -3    2      1.65      0.00
  -10   -3    2     -0.38      0.00
   -9   -3    2     -2.76      0.00
   -8   -3    2      7.89      0.00
   -7   -3    2     -7.39      0.00
   -6   -3    2    -24.68      0.00
   -5   -3    2     41.24      0.00
   -4   -3    2    -55.51      0.00
   -3   -3    2     26.77      0.00
   -2   -3    2    -23.34      0.00
   -1   -3    2     10.41      0.00
    0   -3    2     -7.50      0.00
    1   -3    2     40.83      0.00
    2   -3    2     21.52      0.00
    3   -3    2      9.71      0.00
    4   -3    2     15.12      0.00
    5   -3    2      9.39      0.00
    6   -3    2      6.05      0.00
    7   -3    2     -3.78      0.00
    8   -3    2     -0.45      0.00
    9   -3    2    -10.74      0.00
   10   -3    2      3.05      0.00
   11   -3    2      1.49      0.00
   12   -3    2     -0.56      0.00
   13   -3    2      0.17      0.00
   14   -3    2      2.65      0.00
   15   -3    2     -1.14      0.00
  -16   -2    2     -1.58      0.00
  -15   -2    2      0.26      0.00
  -14   -2    2     -0.87      0.00
  -13   -2    2     -3.10      0.00
  -12   -2    2      0.76      0.00
  -11   -2    2      4.90      0.00
  -10   -2    2     -1.94      0.00
   -9   -2    2      4.87      0.00
   -8   -2    2      1.27      0.00
   -7   -2    2    -19.21      0.00
   -6   -2    2     12.50      0.00
   -5   -2    2    -24.51      0.00
   -4   -2    2      9.25      0.00
   -3   -2    2    -20.79      0.00
   -2   -2    2     79.31      0.00
   -1   -2    2   -113.82      0.00
    0   -2    2     42.24      0.00
    1   -2    2     73.99      0.00
    2   -2    2     42.45      0.00
    3   -2    2    -22.20      0.00
    4   -2    2     26.96      0.00
    5   -2    2      7.38      0.00
    6   -2    2    -14.82      0.00
    7   -2    2     20.54      0.00
    8   -2    2     -8.50      0.00
    9   -2    2     -8.44      0.00
   10   -2    2     -0.85      0.00
   11   -2    2     -1.56      0.00
   12   -2    2      2.57      0.00
   13   -2    2      1.78      0.00
   14   -2    2     -2.01      0.00
   15   -2    2     -0.25      0.00
   16   -2    2      1.57      0.00
  -16   -1    2     -0.24      0.00
  -15   -1    2      1.79      0.00
  -14   -1    2     -2.92      0.00
  -13   -1    2     -5.23      0.00
  -12   -1    2      7.55      0.00
  -11   -1    2      0.09      0.00
  -10   -1    2     -2.27      0.00
   -9   -1    2      4.40      0.00
   -8   -1    2     -5.66      0.00
   -7   -1    2     -3.57      0.00
   -6   -1    2      1.76      0.00
   -5   -1    2     -4.91      0.00
   -4   -1    2    -14.55      0.00
   -3   -1    2     49.79      0.00
   -1   -1    2    -35.00      0.00
    0   -1    2     59.57      0.00
    1   -1    2     25.51      0.00
    2   -1    2     28.15      0.00
    3   -1    2     41.06      0.00
    4   -1    2     -4.92      0.00
    5   -1    2    -26.96      0.00
    6   -1    2     43.60      0.00
    7   -1    2    -29.34      0.00
    8   -1    2     13.28      0.00
    9   -1    2    -16.50      0.00
   10   -1    2      6.37      0.00
   11   -1    2     -3.56      0.00
   12   -1    2     -6.33      0.00
   13   -1    2      6.04      0.00
   14   -1    2     -1.10      0.00
   15   -1    2     -0.50      0.00
   16   -1    2     -1.48      0.00
  -16    0    2     -5.24      0.00
  -15    0    2      0.68      0.00
  -14    0    2     -2.57      0.00
  -13    0    2      1.30      0.00
  -12    0    2      3.09      0.00
  -11    0    2     -9.94      0.00
  -10    0    2     10.37      0.00
   -9    0    2     -6.41      0.00
   -8    0    2      1.94      0.00
   -7    0    2      7.75      0.00
   -6    0    2    -17.28      0.00
   -5    0    2      8.66      0.00
   -4    0    2     10.29      0.00
   -3    0    2     11.49      0.00
   -2    0    2    124.30      0.00
   -1    0    2   -130.49      0.00
    0    0    2      5.73      0.00
    1    0    2     99.85      0.00
    2    0    2     20.60      0.00
    3    0    2    -14.51      0.00
    4    0    2      5.39      0.00
    5    0    2      4.59      0.00
    6    0    2    -10.42      0.00
    7    0    2     20.33      0.00
    8    0    2    -18.57      0.00
    9    0    2      9.91      0.00
   10    0    2     -8.55      0.00
   11    0    2    -10.48      0.00
   12    0    2      6.11      0.00
   13    0    2     -0.04      0.00
   14    0    2     -2.70      0.00
   15    0    2      2.33      0.00
   16    0    2     -1.37      0.00
   17    0    2     -3.30      0.00
  -15    1    2     -6.10      0.00
  -14    1    2     -0.48      0.00
  -13    1    2      4.96      0.00
  -12    1    2     -5.30      0.00
  -11    1    2      2.53      0.00
  -10    1    2     -4.33      0.00
   -9    1    2     -0.36      0.00
   -8    1    2      2.05      0.00
   -7    1    2      0.12      0.00
   -6    1    2     18.83      0.00
   -5    1    2    -29.01      0.00
   -4    1    2     50.06      0.00
   -3    1    2     39.46      0.00
   -2    1    2    -32.54      0.00
   -1    1    2     49.91      0.00
    0    1    2    -38.41      0.00
    1    1    2    -27.58      0.00
    2    1    2     44.88      0.00
    3    1    2      6.30      0.00
    4    1    2      0.03      0.00
    5    1    2     -9.97      0.00
    6    1    2     20.07      0.00
    7    1    2    -13.15      0.00
    8    1    2     14.70      0.00
    9    1    2     -9.98      0.00
   10    1    2     -1.54      0.00
   11    1    2     -5.14      0.00
   12    1    2     -2.60      0.00
   13    1    2      3.08      0.00
   14    1    2      1.04      0.00
   15    1    2      1.18      0.00
   16    1    2     -5.36      0.00
   17    1    2     -2.80      0.00
  -15    2    2     -4.70      0.00
  -14    2    2      5.03      0.00
  -13    2    2     -2.72      0.00
  -12    2    2      0.73      0.00
  -11    2    2     -6.13      0.00
  -10    2    2      1.74      0.00
   -9    2    2     -2.06      0.00
   -8    2    2      8.44      0.00
   -7    2    2      0.74      0.00
   -6    2    2     -6.53      0.00
   -5    2    2     28.59      0.00
   -4    2    2    -10.25      0.00
   -3    2    2     40.57      0.00
   -2    2    2     27.11      0.00
   -1    2    2      5.23      0.00
    0    2    2   -151.38      0.00
    2    2    2     -3.70      0.00
    3    2    2    -29.20      0.00
    4    2    2     29.28      0.00
    5    2    2     -9.83      0.00
    6    2    2     21.10      0.00
    7    2    2     -3.46      0.00
    8    2    2     -4.47      0.00
    9    2    2     16.50      0.00
   10    2    2    -24.83      0.00
   11    2    2     10.80      0.00
   12    2    2     -3.81      0.00
   13    2    2     -1.75      0.00
   14    2    2      0.31      0.00
   15    2    2      1.83      0.00
   16    2    2     -2.19      0.00
   17    2    2     -7.37      0.00
  -15    3    2     -2.29      0.00
  -14    3    2      0.96      0.00
  -13    3    2     -1.27      0.00
  -12    3    2      0.08      0.00
  -11    3    2      0.24      0.00
  -10    3    2     -4.81      0.00
   -9    3    2     -0.84      0.00
   -8    3    2     -0.14      0.00
   -7    3    2     13.21      0.00
   -6    3    2     16.00      0.00
   -5    3    2    -21.65      0.00
   -4    3    2     57.02      0.00
   -3    3    2    -28.79      0.00
   -2    3    2     32.75      0.00
   -1    3    2    -31.02      0.00
    0    3    2    -25.35      0.00
    1    3    2    -37.87      0.00
    2    3    2    -14.77      0.00
    3    3    2     17.69      0.00
    5    3    2     28.02      0.00
    6    3    2    -27.12      0.00
    7    3    2     21.97      0.00
    8    3    2      8.32      0.00
    9    3    2    -17.90      0.00
   10    3    2      0.08      0.00
   11    3    2      5.21      0.00
   12    3    2     -9.76      0.00
   13    3    2      4.86      0.00
   14    3    2      1.77      0.00
   15    3    2     -5.03      0.00
   16    3    2     -4.86      0.00
   17    3    2     -2.92      0.00
   18    3    2     -1.43      0.00
  -14    4    2      2.70      0.00
  -13    4    2     -3.94      0.00
  -12    4    2     -1.78      0.00
  -11    4    2      3.89      0.00
  -10    4    2     -9.01      0.00
   -9    4    2      8.70      0.00
   -8    4    2      6.32      0.00
   -7    4    2      2.39      0.00
   -6    4    2      2.15      0.00
   -5    4    2     45.45      0.00
   -4    4    2    -42.79      0.00
   -3    4    2     47.36      0.00
   -2    4    2     -4.05      0.00
   -1    4    2    -23.95      0.00
    0    4    2    -28.36      0.00
    1    4    2    -36.69      0.00
    2    4    2     12.11      0.00
    3    4    2      1.01      0.00
    4    4    2     -3.93      0.00
    5    4    2     14.14      0.00
    6    4    2      1.41      0.00
    7    4    2      2.07      0.00
    8    4    2      4.00      0.00
    9    4    2    -15.23      0.00
   10    4    2      6.59      0.00
   11    4    2      2.46      0.00
   12    4    2     -6.70      0.00
   13    4    2      1.34      0.00
   14    4    2     -3.17      0.00
   15    4    2     -0.69      0.00
   16    4    2     -3.50      0.00
   17    4    2      0.68      0.00
   18    4    2     -3.64      0.00
  -14    5    2     -1.08      0.00
  -13    5    2     -0.40      0.00
  -12    5    2      3.74      0.00
  -11    5    2     -0.34      0.00
  -10    5    2     -2.85      0.00
   -9    5    2      1.69      0.00
   -8    5    2      5.39      0.00
   -7    5    2     12.16      0.00
   -6    5    2     14.39      0.00
   -5    5    2     -1.32      0.00
   -4    5    2      8.61      0.00
   -3    5    2      3.66      0.00
   -2    5    2      2.34      0.00
   -1    5    2    -36.47      0.00
    0    5    2      6.22      0.00
    1    5    2     -5.77      0.00
    2    5    2    -47.53      0.00
    3    5    2     25.57      0.00
    4    5    2     11.29      0.00
    5    5    2     -0.73      0.00
    6    5    2    -23.98      0.00
    7    5    2     38.80      0.00
    8    5    2    -20.89      0.00
    9    5    2      0.75      0.00
   10    5    2     -1.45      0.00
   11    5    2      2.77      0.00
   12    5    2      0.78      0.00
   13    5    2     -2.03      0.00
   14    5    2      2.39      0.00
   15    5    2     -7.55      0.00
   16    5    2     -0.77      0.00
   17    5    2      0.17      0.00
   18    5    2      1.83      0.00
  -13    6    2      0.88      0.00
  -12    6    2     -0.48      0.00
  -11    6    2      6.28      0.00
  -10    6    2     -6.13      0.00
   -8    6    2     -3.43      0.00
   -7    6    2      6.42      0.00
   -6    6    2      7.30      0.00
   -5    6    2      1.10      0.00
   -4    6    2     -0.89      0.00
   -3    6    2      7.60      0.00
   -2    6    2    -21.37      0.00
   -1    6    2      1.48      0.00
    0    6    2    -12.15      0.00
    1    6    2     -7.15      0.00
    2    6    2    -23.60      0.00
    3    6    2     34.42      0.00
    4    6    2    -13.65      0.00
    5    6    2     -9.15      0.00
    6    6    2     20.62      0.00
    7    6    2    -14.05      0.00
    8    6    2      5.53      0.00
    9    6    2     -2.35      0.00
   10    6    2      7.11      0.00
   11    6    2      1.88      0.00
   12    6    2     -2.59      0.00
   13    6    2      1.96      0.00
   14    6    2     -6.26      0.00
   15    6    2     -3.09      0.00
   16    6    2      1.95      0.00
   17    6    2      1.37      0.00
   18    6    2     -1.55      0.00
  -12    7    2     -0.24      0.00
  -11    7    2      1.60      0.00
  -10    7    2      4.52      0.00
   -9    7    2     -4.77      0.00
   -8    7    2      1.17      0.00
   -7    7    2      6.25      0.00
   -6    7    2     -6.86      0.00
   -5    7    2      2.91      0.00
   -4    7    2     -3.38      0.00
   -3    7    2      5.80      0.00
   -2    7    2    -13.18      0.00
   -1    7    2    -15.09      0.00
    0    7    2     11.66      0.00
    1    7    2      1.04      0.00
    2    7    2    -27.13      0.00
    3    7    2     23.07      0.00
    4    7    2      2.44      0.00
    5    7    2    -15.28      0.00
    6    7    2     10.40      0.00
    7    7    2     -1.41      0.00
    8    7    2     -0.14      0.00
    9    7    2      7.46      0.00
   10    7    2     -4.69      0.00
   11    7    2     -0.69      0.00
   12    7    2      7.68      0.00
   13    7    2     -8.30      0.00
   14    7    2     -1.54      0.00
   15    7    2     -3.23      0.00
   16    7    2     -1.23      0.00
   17    7    2     -2.33      0.00
   18    7    2      7.58      0.00
  -12    8    2     -1.66      0.00
  -11    8    2      6.65      0.00
  -10    8    2      3.29      0.00
   -9    8    2     -3.84      0.00
   -8    8    2      2.39      0.00
   -7    8    2     -4.56      0.00
   -6    8    2      1.92      0.00
   -5    8    2     -9.85      0.00
   -4    8    2     21.47      0.00
   -3    8    2    -19.33      0.00
   -2    8    2     -3.79      0.00
   -1    8    2     15.50      0.00
    0    8    2     -6.32      0.00
    1    8    2    -17.84      0.00
    2    8    2     13.91      0.00
    3    8    2     -1.16      0.00
    4    8    2      1.38      0.00
    5    8    2     -0.05      0.00
    6    8    2     -1.22      0.00
    7    8    2     -0.38      0.00
    8    8    2     -6.82      0.00
    9    8    2      5.99      0.00
   10    8    2      0.39      0.00
   11    8    2     -6.46      0.00
   12    8    2      6.13      0.00
   13    8    2     -8.38      0.00
   14    8    2     -6.49      0.00
   15    8    2      0.02      0.00
   16    8    2      2.36      0.00
   17    8    2     -1.72      0.00
   18    8    2      3.94      0.00
  -11    9    2      6.84      0.00
  -10    9    2      3.26      0.00
   -9    9    2     -2.39      0.00
   -8    9    2      1.20      0.00
   -7    9    2     -1.36      0.00
   -6    9    2     -1.19      0.00
   -5    9    2      2.74      0.00
   -4    9    2     -1.88      0.00
   -3    9    2     11.71      0.00
   -2    9    2    -11.60      0.00
   -1    9    2      6.80      0.00
    0    9    2      0.62      0.00
    1    9    2     -1.57      0.00
    2    9    2      3.67      0.00
    3    9    2    -11.49      0.00
    4    9    2     21.56      0.00
    5    9    2    -20.00      0.00
    6    9    2     15.65      0.00
    7    9    2    -20.20      0.00
    8    9    2     11.20      0.00
    9    9    2     -4.36      0.00
   10    9    2    -14.00      0.00
   11    9    2      8.39      0.00
   12    9    2     -5.94      0.00
   13    9    2     -5.30      0.00
   14    9    2      1.98      0.00
   15    9    2     -3.89      0.00
   16    9    2      0.94      0.00
   17    9    2      0.64      0.00
   18    9    2      3.42      0.00
  -10   10    2      2.72      0.00
   -9   10    2     -2.76      0.00
   -8   10    2      4.93      0.00
   -7   10    2     -3.43      0.00
   -6   10    2     -7.29      0.00
   -5   10    2     12.83      0.00
   -4   10    2      3.57      0.00
   -3   10    2    -12.66      0.00
   -2   10    2     15.69      0.00
   -1   10    2     -0.68      0.00
    0   10    2      1.27      0.00
    1   10    2     -2.71      0.00
    2   10    2      3.80      0.00
    3   10    2      2.16      0.00
    4   10    2      1.19      0.00
    5   10    2      8.31      0.00
    6   10    2     -9.99      0.00
    7   10    2      0.43      0.00
    8   10    2     -7.58      0.00
    9   10    2     -7.10      0.00
   10   10    2      5.61      0.00
   11   10    2     -5.31      0.00
   12   10    2     -7.20      0.00
   13   10    2      1.14      0.00
   14   10    2     -0.32      0.00
   15   10    2     -0.67      0.00
   16   10    2     -0.39      0.00
   17   10    2      1.67      0.00
   18   10    2      4.14      0.00
   -9   11    2      4.27      0.00
   -8   11    2     -8.03      0.00
   -7   11    2     -2.28      0.00
   -6   11    2      6.77      0.00
   -5   11    2      2.19      0.00
   -4   11    2     -2.53      0.00
   -3   11    2      7.56      0.00
   -2   11    2     -2.93      0.00
   -1   11    2     -4.83      0.00
    0   11    2     15.44      0.00
    1   11    2     -5.57      0.00
    2   11    2      8.25      0.00
    3   11    2      0.85      0.00
    4   11    2     -2.20      0.00
    5   11    2     12.47      0.00
    6   11    2     -8.86      0.00
    7   11    2     -7.74      0.00
    8   11    2      6.06      0.00
    9   11    2    -11.71      0.00
   10   11    2      6.71      0.00
   11   11    2    -12.07      0.00
   12   11    2     -0.30      0.00
   13   11    2      2.40      0.00
   14   11    2      1.31      0.00
   15   11    2     -1.05      0.00
   16   11    2      0.77      0.00
   17   11    2     -1.52      0.00
   18   11    2     -0.26      0.00
   -8   12    2      1.83      0.00
   -7   12    2     -4.11      0.00
   -6   12    2     -3.74      0.00
   -5   12    2     13.22      0.00
   -4   12    2     -5.65      0.00
   -3   12    2      3.99      0.00
   -2   12    2     -7.13      0.00
   -1   12    2      3.17      0.00
    0   12    2      6.91      0.00
    1   12    2      0.10      0.00
    2   12    2     -1.89      0.00
    3   12    2      7.83      0.00
    4   12    2      4.07      0.00
    5   12    2     -2.29      0.00
    6   12    2      0.09      0.00
    7   12    2     -1.50      0.00
    9   12    2     10.68      0.00
   10   12    2     -2.76      0.00
   11   12    2     -6.05      0.00
   12   12    2     -1.15      0.00
   13   12    2      3.77      0.00
   14   12    2      2.52      0.00
   15   12    2     -4.65      0.00
   16   12    2      2.31      0.00
   17   12    2     -2.49      0.00
   18   12    2      0.10      0.00
   -7   13    2     -3.37      0.00
   -6   13    2      6.09      0.00
   -5   13    2     -3.00      0.00
   -4   13    2      6.48      0.00
   -3   13    2     -4.74      0.00
   -2   13    2     -4.69      0.00
   -1   13    2     -0.54      0.00
    0   13    2      3.56      0.00
    1   13    2      4.64      0.00
    2   13    2     -1.74      0.00
    3   13    2      8.20      0.00
    4   13    2     -8.98      0.00
    5   13    2      5.74      0.00
    6   13    2      0.38      0.00
    7   13    2     -5.03      0.00
    8   13    2      0.78      0.00
    9   13    2      3.23      0.00
   10   13    2     -2.56      0.00
   11   13    2     -5.19      0.00
   12   13    2      3.04      0.00
   13   13    2      4.69      0.00
   14   13    2     -5.92      0.00
   15   13    2      8.51      0.00
   16   13    2     -5.81      0.00
   17   13    2     -4.16      0.00
   -6   14    2     -4.96      0.00
   -5   14    2      3.82      0.00
   -4   14    2      3.47      0.00
   -3   14    2     -3.74      0.00
   -2   14    2     -2.44      0.00
   -1   14    2      0.00      0.00
    0   14    2      6.79      0.00
    1   14    2     -0.27      0.00
    2   14    2     -0.03      0.00
    3   14    2      4.64      0.00
    4   14    2     -3.42      0.00
    5   14    2      2.55      0.00
    6   14    2      5.92      0.00
    7   14    2     -2.98      0.00
    8   14    2     -3.51      0.00
    9   14    2      5.85      0.00
   10   14    2     -1.40      0.00
   11   14    2     -3.61      0.00
   12   14    2      2.66      0.00
   13   14    2      1.48      0.00
   14   14    2     -0.23      0.00
   15   14    2      2.35      0.00
   16   14    2     -4.28      0.00
   17   14    2     -0.88      0.00
   -4   15    2      1.09      0.00
   -3   15    2      5.88      0.00
   -2   15    2    -11.14      0.00
   -1   15    2     12.57      0.00
    0   15    2      1.96      0.00
    1   15    2      5.62      0.00
    2   15    2      2.88      0.00
    3   15    2     -0.58      0.00
    4   15    2     -0.94      0.00
    5   15    2      2.28      0.00
    6   15    2      6.05      0.00
    7   15    2      3.43      0.00
    8   15    2     -3.23      0.00
    9   15    2      3.48      0.00
   10   15    2     -5.25      0.00
   11   15    2     -0.44      0.00
   12   15    2      0.68      0.00
   13   15    2     -2.06      0.00
   14   15    2      6.88      0.00
   15   15    2      1.81      0.00
   16   15    2     -5.66      0.00
   -3   16    2      2.71      0.00
   -2   16    2      1.19      0.00
   -1   16    2      6.23      0.00
    0   16    2      6.27      0.00
    1   16    2      3.97      0.00
    2   16    2      4.74      0.00
    3   16    2     -4.89      0.00
    4   16    2     -1.74      0.00
    5   16    2     10.59      0.00
    6   16    2      5.84      0.00
    7   16    2     -4.92      0.00
    8   16    2      1.55      0.00
    9   16    2      0.64      0.00
   10   16    2     -5.52      0.00
   11   16    2      1.74      0.00
   12   16    2     -2.87      0.00
   13   16    2      2.23      0.00
   14   16    2      4.37      0.00
   15   16    2     -0.07      0.00
   -1   17    2     10.64      0.00
    0   17    2      4.37      0.00
    1   17    2      1.14      0.00
    2   17    2      4.75      0.00
    3   17    2     -7.47      0.00
    4   17    2      1.58      0.00
    5   17    2      6.27      0.00
    6   17    2      0.68      0.00
    7   17    2     -0.06      0.00
    8   17    2      4.28      0.00
    9   17    2     -7.00      0.00
   10   17    2      2.51      0.00
   11   17    2     -5.99      0.00
   12   17    2     -0.31      0.00
   13   17    2      2.68      0.00
   14   17    2      6.01      0.00
    1   18    2      2.39      0.00
    2   18    2     -1.95      0.00
    3   18    2     -2.18      0.00
    4   18    2     -2.05      0.00
    5   18    2      7.77      0.00
    6   18    2     -3.85      0.00
    7   18    2      4.19      0.00
    8   18    2     -0.81      0.00
    9   18    2     -8.87      0.00
   10   18    2      4.08      0.00
   11   18    2     -0.44      0.00
   12   18    2      1.42      0.00
   13   18    2     -2.14      0.00
    4   19    2     -0.60      0.00
    5   19    2     -2.57      0.00
    6   19    2      2.46      0.00
    7   19    2      0.51      0.00
    8   19    2     -3.48      0.00
    9   19    2     -1.05      0.00
   10   19    2      2.17      0.00
   11   19    2      0.24      0.00
  -10  -17    3     -4.80      0.00
   -9  -17    3     -1.86      0.00
   -8  -17    3      3.19      0.00
   -7  -17    3      1.84      0.00
   -6  -17    3      0.77      0.00
   -5  -17    3      2.32      0.00
   -4  -17    3     -2.01      0.00
   -3  -17    3      5.25      0.00
   -2  -17    3      2.07      0.00
   -1  -17    3      3.89      0.00
  -12  -16    3     -1.21      0.00
  -11  -16    3      0.15      0.00
  -10  -16    3      1.98      0.00
   -9  -16    3     -0.30      0.00
   -8  -16    3      3.65      0.00
   -7  -16    3      0.69      0.00
   -6  -16    3      1.51      0.00
   -5  -16    3      3.45      0.00
   -4  -16    3     -0.42      0.00
   -3  -16    3      1.15      0.00
   -2  -16    3      3.28      0.00
   -1  -16    3     -1.09      0.00
    0  -16    3      4.46      0.00
    1  -16    3      4.38      0.00
    2  -16    3     -5.09      0.00
  -13  -15    3     -0.91      0.00
  -12  -15    3      3.25      0.00
  -11  -15    3     -0.33      0.00
  -10  -15    3      1.82      0.00
   -9  -15    3      4.54      0.00
   -8  -15    3      0.73      0.00
   -7  -15    3      1.35      0.00
   -6  -15    3      5.89      0.00
   -5  -15    3      0.85      0.00
   -4  -15    3      0.84      0.00
   -3  -15    3     -3.04      0.00
   -2  -15    3      5.56      0.00
   -1  -15    3     -0.79      0.00
    0  -15    3      0.93      0.00
    1  -15    3      0.41      0.00
    2  -15    3      2.93      0.00
    3  -15    3      0.48      0.00
    4  -15    3      0.51      0.00
  -14  -14    3      1.92      0.00
  -13  -14    3      3.39      0.00
  -12  -14    3     -1.18      0.00
  -11  -14    3      1.83      0.00
  -10  -14    3      2.96      0.00
   -9  -14    3      4.41      0.00
   -8  -14    3      4.74      0.00
   -7  -14    3      0.81      0.00
   -6  -14    3      2.45      0.00
   -5  -14    3      2.93      0.00
   -4  -14    3     -1.95      0.00
   -3  -14    3      0.84      0.00
   -2  -14    3      2.24      0.00
   -1  -14    3      2.39      0.00
    0  -14    3     -4.05      0.00
    1  -14    3      4.04      0.00
    2  -14    3     -3.03      0.00
    3  -14    3     -1.60      0.00
    4  -14    3      5.05      0.00
    5  -14    3     -4.56      0.00
  -15  -13    3      2.81      0.00
  -14  -13    3      1.55      0.00
  -13  -13    3      1.52      0.00
  -12  -13    3     -0.32      0.00
  -11  -13    3      6.47      0.00
  -10  -13    3      2.84      0.00
   -9  -13    3      2.05      0.00
   -8  -13    3      0.68      0.00
   -7  -13    3      2.82      0.00
   -6  -13    3      5.20      0.00
   -5  -13    3     -6.81      0.00
   -4  -13    3      7.28      0.00
   -3  -13    3      1.33      0.00
   -2  -13    3     -5.68      0.00
   -1  -13    3      3.80      0.00
    0  -13    3     -1.38      0.00
    1  -13    3     -0.09      0.00
    2  -13    3     -2.95      0.00
    3  -13    3      3.72      0.00
    4  -13    3     -4.80      0.00
    5  -13    3     -0.91      0.00
    6  -13    3     -7.38      0.00
    7  -13    3     -1.83      0.00
  -15  -12    3      1.04      0.00
  -14  -12    3      2.53      0.00
  -13  -12    3      4.03      0.00
  -12  -12    3     -0.97      0.00
  -11  -12    3      3.81      0.00
  -10  -12    3      1.45      0.00
   -9  -12    3      0.39      0.00
   -8  -12    3      4.01      0.00
   -7  -12    3      3.89      0.00
   -6  -12    3     -4.28      0.00
   -5  -12    3     -2.81      0.00
   -4  -12    3      2.83      0.00
   -3  -12    3      3.65      0.00
   -2  -12    3     -5.87      0.00
   -1  -12    3      1.79      0.00
    0  -12    3     -2.31      0.00
    1  -12    3     -3.32      0.00
    2  -12    3      6.09      0.00
    3  -12    3     -3.54      0.00
    4  -12    3      3.38      0.00
    5  -12    3     -8.59      0.00
    6  -12    3      7.57      0.00
    7  -12    3    -10.01      0.00
    8  -12    3     -1.07      0.00
  -16  -11    3      3.35      0.00
  -15  -11    3      2.01      0.00
  -14  -11    3      1.73      0.00
  -13  -11    3     -3.53      0.00
  -12  -11    3      4.01      0.00
  -11  -11    3      4.11      0.00
  -10  -11    3      2.15      0.00
   -9  -11    3      0.92      0.00
   -8  -11    3     -1.68      0.00
   -7  -11    3      1.48      0.00
   -6  -11    3     -0.50      0.00
   -5  -11    3     -2.38      0.00
   -4  -11    3      5.03      0.00
   -3  -11    3     -8.46      0.00
   -2  -11    3     -3.48      0.00
   -1  -11    3     -1.36      0.00
    0  -11    3     -0.59      0.00
    1  -11    3      3.70      0.00
    2  -11    3     -0.34      0.00
    3  -11    3      1.32      0.00
    4  -11    3     -1.18      0.00
    5  -11    3      5.79      0.00
    6  -11    3     -2.33      0.00
    7  -11    3     -1.27      0.00
    8  -11    3     -0.20      0.00
    9  -11    3     -2.71      0.00
  -16  -10    3      0.78      0.00
  -15  -10    3      3.57      0.00
  -14  -10    3     -2.88      0.00
  -13  -10    3      2.74      0.00
  -12  -10    3      3.13      0.00
  -11  -10    3     -2.59      0.00
  -10  -10    3      5.13      0.00
   -9  -10    3     -2.53      0.00
   -8  -10    3     10.59      0.00
   -7  -10    3     -2.77      0.00
   -6  -10    3     -7.37      0.00
   -5  -10    3      3.61      0.00
   -4  -10    3     -7.67      0.00
   -3  -10    3     -2.83      0.00
   -2  -10    3     -4.39      0.00
   -1  -10    3     -6.99      0.00
    0  -10    3      8.41      0.00
    1  -10    3     -7.66      0.00
    2  -10    3      8.33      0.00
    3  -10    3     -0.29      0.00
    4  -10    3     -1.05      0.00
    5  -10    3      3.89      0.00
    6  -10    3      4.15      0.00
    7  -10    3     -6.06      0.00
    8  -10    3     -3.85      0.00
    9  -10    3      4.71      0.00
   10  -10    3     -4.68      0.00
  -16   -9    3      9.86      0.00
  -15   -9    3     -1.59      0.00
  -14   -9    3     -6.03      0.00
  -13   -9    3      1.45      0.00
  -12   -9    3      2.33      0.00
  -11   -9    3      3.58      0.00
  -10   -9    3      2.44      0.00
   -9   -9    3     -0.79      0.00
   -8   -9    3      5.76      0.00
   -7   -9    3     -4.18      0.00
   -6   -9    3     -0.92      0.00
   -5   -9    3     -3.32      0.00
   -4   -9    3     -7.41      0.00
   -3   -9    3     -8.56      0.00
   -2   -9    3     -2.81      0.00
   -1   -9    3     -1.80      0.00
    0   -9    3     -4.43      0.00
    1   -9    3     15.22      0.00
    2   -9    3     -6.90      0.00
    3   -9    3     -4.23      0.00
    4   -9    3     13.12      0.00
    5   -9    3     -6.71      0.00
    6   -9    3      2.53      0.00
    7   -9    3     -1.87      0.00
    8   -9    3     -3.28      0.00
    9   -9    3     -4.38      0.00
   10   -9    3     -0.48      0.00
   11   -9    3     -4.79      0.00
  -16   -8    3     -3.23      0.00
  -15   -8    3      1.07      0.00
  -14   -8    3     -1.89      0.00
  -13   -8    3     -1.51      0.00
  -12   -8    3      3.48      0.00
  -11   -8    3     -3.07      0.00
  -10   -8    3     -4.54      0.00
   -9   -8    3     14.45      0.00
   -8   -8    3     -3.49      0.00
   -7   -8    3     -2.38      0.00
   -6   -8    3     -0.13      0.00
   -5   -8    3    -21.82      0.00
   -4   -8    3     10.33      0.00
   -3   -8    3    -16.63      0.00
   -2   -8    3      0.46      0.00
   -1   -8    3      2.21      0.00
    0   -8    3      6.60      0.00
    1   -8    3     -0.85      0.00
    2   -8    3     -0.36      0.00
    3   -8    3     15.51      0.00
    4   -8    3    -12.86      0.00
    5   -8    3      5.83      0.00
    6   -8    3     -2.67      0.00
    7   -8    3     -1.25      0.00
    8   -8    3     -1.06      0.00
    9   -8    3     -2.45      0.00
   10   -8    3     -7.95      0.00
   11   -8    3      0.91      0.00
   12   -8    3     -3.20      0.00
  -16   -7    3     -0.58      0.00
  -15   -7    3     -1.36      0.00
  -14   -7    3     -8.05      0.00
  -13   -7    3      0.90      0.00
  -12   -7    3      1.68      0.00
  -11   -7    3     -5.52      0.00
  -10   -7    3      8.98      0.00
   -9   -7    3     -6.56      0.00
   -8   -7    3     -0.09      0.00
   -7   -7    3      3.70      0.00
   -6   -7    3    -10.74      0.00
   -5   -7    3     -3.81      0.00
   -4   -7    3    -18.31      0.00
   -3   -7    3     13.70      0.00
   -2   -7    3     -1.98      0.00
   -1   -7    3     -4.62      0.00
    0   -7    3     15.92      0.00
    1   -7    3      9.71      0.00
    2   -7    3     -7.90      0.00
    3   -7    3      8.68      0.00
    4   -7    3      4.00      0.00
    5   -7    3    -17.21      0.00
    6   -7    3      8.57      0.00
    7   -7    3     -3.86      0.00
    8   -7    3      0.71      0.00
    9   -7    3     -1.77      0.00
   10   -7    3     -7.32      0.00
   11   -7    3      1.41      0.00
   12   -7    3     -0.60      0.00
   13   -7    3     -2.54      0.00
  -16   -6    3     -0.41      0.00
  -15   -6    3     -2.07      0.00
  -14   -6    3     -3.64      0.00
  -13   -6    3      1.47      0.00
  -12   -6    3     -1.02      0.00
  -11   -6    3     -4.22      0.00
  -10   -6    3      1.40      0.00
   -9   -6    3      3.12      0.00
   -8   -6    3     -5.19      0.00
   -7   -6    3      8.61      0.00
   -6   -6    3    -17.41      0.00
   -5   -6    3     -8.63      0.00
   -4   -6    3      7.67      0.00
   -3   -6    3      8.45      0.00
   -2   -6    3    -29.74      0.00
   -1   -6    3     51.29      0.00
    0   -6    3    -10.00      0.00
    1   -6    3     -3.66      0.00
    2   -6    3     13.45      0.00
    3   -6    3     -2.77      0.00
    4   -6    3    -17.96      0.00
    5   -6    3      8.22      0.00
    6   -6    3    -18.84      0.00
    7   -6    3     16.77      0.00
    8   -6    3     -8.15      0.00
    9   -6    3      3.87      0.00
   10   -6    3     -4.97      0.00
   11   -6    3     -2.49      0.00
   12   -6    3     -0.87      0.00
   13   -6    3      2.96      0.00
  -16   -5    3     -3.42      0.00
  -15   -5    3     -3.46      0.00
  -14   -5    3      0.30      0.00
  -13   -5    3      3.64      0.00
  -12   -5    3     -7.79      0.00
  -11   -5    3     11.61      0.00
  -10   -5    3     -5.20      0.00
   -9   -5    3     -3.61      0.00
   -8   -5    3      5.69      0.00
   -7   -5    3    -13.04      0.00
   -6   -5    3     11.52      0.00
   -5   -5    3    -13.51      0.00
   -4   -5    3      3.74      0.00
   -3   -5    3      7.29      0.00
   -2   -5    3      6.36      0.00
   -1   -5    3     13.43      0.00
    0   -5    3     -4.03      0.00
    1   -5    3      6.49      0.00
    2   -5    3      1.08      0.00
    3   -5    3    -14.30      0.00
    4   -5    3    -10.95      0.00
    5   -5    3     -8.50      0.00
    6   -5    3      0.77      0.00
    7   -5    3     -1.62      0.00
    8   -5    3      1.55      0.00
    9   -5    3      7.95      0.00
   10   -5    3     -8.66      0.00
   11   -5    3      0.03      0.00
   12   -5    3      1.91      0.00
   13   -5    3     -5.89      0.00
   14   -5    3      5.67      0.00
  -16   -4    3     -0.60      0.00
  -15   -4    3     -1.15      0.00
  -14   -4    3      7.42      0.00
  -13   -4    3     -6.05      0.00
  -12   -4    3      3.04      0.00
  -11   -4    3      2.82      0.00
  -10   -4    3     -2.91      0.00
   -9   -4    3     -1.16      0.00
   -8   -4    3     -7.13      0.00
   -7   -4    3     20.03      0.00
   -6   -4    3    -36.31      0.00
   -5   -4    3     33.93      0.00
   -4   -4    3     -0.73      0.00
   -3   -4    3     -4.18      0.00
   -2   -4    3      7.83      0.00
   -1   -4    3     29.37      0.00
    0   -4    3    -16.47      0.00
    1   -4    3      4.28      0.00
    2   -4    3      0.56      0.00
    3   -4    3    -24.36      0.00
    4   -4    3    -10.91      0.00
    5   -4    3     -3.52      0.00
    6   -4    3     -3.76      0.00
    7   -4    3     -0.43      0.00
    8   -4    3      8.61      0.00
    9   -4    3     -5.12      0.00
   10   -4    3     -0.62      0.00
   11   -4    3      0.24      0.00
   12   -4    3     -0.65      0.00
   13   -4    3     -1.95      0.00
   14   -4    3      5.92      0.00
   15   -4    3     -1.15      0.00
  -16   -3    3     -0.54      0.00
  -15   -3    3     -0.68      0.00
  -14   -3    3      1.27      0.00
  -13   -3    3     -0.81      0.00
  -12   -3    3     -0.09      0.00
  -11   -3    3      3.13      0.00
  -10   -3    3     -4.92      0.00
   -9   -3    3     -4.04      0.00
   -8   -3    3      9.48      0.00
   -7   -3    3    -17.59      0.00
   -6   -3    3     15.41      0.00
   -5   -3    3      1.72      0.00
   -4   -3    3      3.61      0.00
   -3   -3    3     -4.88      0.00
   -2   -3    3     60.54      0.00
   -1   -3    3    -31.11      0.00
    0   -3    3      0.55      0.00
    1   -3    3     -6.26      0.00
    2   -3    3      7.33      0.00
    3   -3    3    -16.37      0.00
    4   -3    3    -26.15      0.00
    5   -3    3     14.58      0.00
    6   -3    3    -22.04      0.00
    7   -3    3      4.49      0.00
    8   -3    3      8.54      0.00
    9   -3    3     -2.39      0.00
   10   -3    3     -3.44      0.00
   11   -3    3     -0.50      0.00
   12   -3    3     -2.31      0.00
   13   -3    3      5.54      0.00
   14   -3    3      0.61      0.00
   15   -3    3     -2.09      0.00
  -16   -2    3     -3.04      0.00
  -15   -2    3      2.74      0.00
  -14   -2    3     -0.27      0.00
  -13   -2    3     -5.30      0.00
  -12   -2    3     -0.72      0.00
  -11   -2    3      3.83      0.00
  -10   -2    3     -3.66      0.00
   -9   -2    3     -4.48      0.00
   -8   -2    3      2.85      0.00
   -7   -2    3     -3.63      0.00
   -6   -2    3     -3.13      0.00
   -5   -2    3     22.77      0.00
   -4   -2    3    -24.40      0.00
   -3   -2    3     31.60      0.00
   -2   -2    3     22.32      0.00
   -1   -2    3    -20.57      0.00
    0   -2    3      6.47      0.00
    1   -2    3    -17.17      0.00
    2   -2    3     -4.70      0.00
    3   -2    3    -14.62      0.00
    4   -2    3     17.52      0.00
    5   -2    3    -48.96      0.00
    6   -2    3     23.26      0.00
    7   -2    3     -7.69      0.00
    8   -2    3      6.13      0.00
    9   -2    3     -9.61      0.00
   10   -2    3      4.78      0.00
   11   -2    3     -0.74      0.00
   12   -2    3     -0.60      0.00
   13   -2    3      1.21      0.00
   14   -2    3      0.66      0.00
   15   -2    3      0.86      0.00
   16   -2    3     -0.77      0.00
  -16   -1    3     -2.41      0.00
  -15   -1    3     -2.13      0.00
  -14   -1    3     -2.14      0.00
  -13   -1    3     -1.91      0.00
  -12   -1    3      2.36      0.00
  -11   -1    3     -4.09      0.00
  -10   -1    3     -0.85      0.00
   -9   -1    3      3.46      0.00
   -8   -1    3     -9.55      0.00
   -7   -1    3      6.74      0.00
   -6   -1    3     -0.01      0.00
   -5   -1    3    -18.12      0.00
   -4   -1    3     15.06      0.00
   -3   -1    3    -27.27      0.00
   -2   -1    3     72.82      0.00
   -1   -1    3     -6.38      0.00
    0   -1    3    -85.84      0.00
    1   -1    3     14.98      0.00
    2   -1    3     23.25      0.00
    3   -1    3     -2.74      0.00
    4   -1    3    -28.56      0.00
    5   -1    3      5.90      0.00
    6   -1    3    -16.54      0.00
    7   -1    3      8.98      0.00
    8   -1    3     -2.83      0.00
    9   -1    3      4.21      0.00
   10   -1    3      0.03      0.00
   11   -1    3     -5.26      0.00
   12   -1    3      2.26      0.00
   13   -1    3      4.38      0.00
   14   -1    3     -1.44      0.00
   15   -1    3     -0.87      0.00
   16   -1    3      4.18      0.00
  -15    0    3     -0.50      0.00
  -14    0    3     -8.25      0.00
  -13    0    3      4.50      0.00
  -12    0    3     -2.63      0.00
  -11    0    3      1.84      0.00
  -10    0    3      2.12      0.00
   -9    0    3     -7.92      0.00
   -8    0    3      4.25      0.00
   -7    0    3    -12.33      0.00
   -6    0    3     10.16      0.00
   -5    0    3    -22.28      0.00
   -4    0    3    -14.39      0.00
   -3    0    3     18.10      0.00
   -2    0    3     10.29      0.00
   -1    0    3    -28.90      0.00
    0    0    3     23.88      0.00
    1    0    3    -44.38      0.00
    2    0    3      4.27      0.00
    3    0    3     25.15      0.00
    4    0    3     -5.89      0.00
    5    0    3    -36.59      0.00
    6    0    3     25.73      0.00
    7    0    3    -20.60      0.00
    8    0    3     14.82      0.00
    9    0    3     -4.07      0.00
   10    0    3      0.13      0.00
   11    0    3     -0.48      0.00
   12    0    3      1.05      0.00
   13    0    3      1.61      0.00
   14    0    3      0.35      0.00
   15    0    3      4.68      0.00
   16    0    3     -3.57      0.00
   17    0    3      3.56      0.00
  -15    1    3     -7.58      0.00
  -14    1    3      2.25      0.00
  -13    1    3     -0.86      0.00
  -12    1    3      2.03      0.00
  -11    1    3     -3.11      0.00
  -10    1    3      4.62      0.00
   -9    1    3     -6.19      0.00
   -8    1    3     -1.05      0.00
   -7    1    3      9.97      0.00
   -6    1    3    -28.48      0.00
   -5    1    3      2.56      0.00
   -4    1    3    -23.13      0.00
   -3    1    3    -11.29      0.00
   -2    1    3     12.94      0.00
   -1    1    3     88.58      0.00
    0    1    3   -123.58      0.00
    1    1    3      6.15      0.00
    3    1    3    -67.29      0.00
    4    1    3     15.10      0.00
    5    1    3     -9.25      0.00
    6    1    3     -7.28      0.00
    7    1    3      8.60      0.00
    8    1    3    -11.26      0.00
    9    1    3     14.14      0.00
   10    1    3     -7.02      0.00
   11    1    3     -4.61      0.00
   12    1    3      8.50      0.00
   13    1    3     -1.14      0.00
   14    1    3     -1.20      0.00
   15    1    3      2.31      0.00
   16    1    3      5.64      0.00
   17    1    3     -4.53      0.00
  -15    2    3     -5.37      0.00
  -14    2    3      1.05      0.00
  -13    2    3     -0.42      0.00
  -12    2    3     -0.16      0.00
  -11    2    3      4.44      0.00
  -10    2    3     -2.28      0.00
   -9    2    3      0.62      0.00
   -8    2    3     -0.71      0.00
   -7    2    3    -17.86      0.00
   -6    2    3     29.75      0.00
   -5    2    3    -55.39      0.00
   -4    2    3     18.21      0.00
   -3    2    3    -19.76      0.00
   -2    2    3     14.09      0.00
    0    2    3      7.98      0.00
    1    2    3     -4.60      0.00
    2    2    3    -13.37      0.00
    3    2    3     -2.45      0.00
    4    2    3    -10.22      0.00
    5    2    3     14.62      0.00
    6    2    3    -16.18      0.00
    7    2    3     -4.87      0.00
    8    2    3     16.78      0.00
    9    2    3     -4.30      0.00
   10    2    3    -11.56      0.00
   11    2    3     10.52      0.00
   12    2    3     -3.84      0.00
   13    2    3     -1.75      0.00
   14    2    3      5.58      0.00
   15    2    3      2.90      0.00
   16    2    3     -1.35      0.00
   17    2    3      2.98      0.00
  -14    3    3      3.63      0.00
  -13    3    3     -0.41      0.00
  -12    3    3     -2.80      0.00
  -11    3    3      5.07      0.00
  -10    3    3     -3.97      0.00
   -9    3    3      0.17      0.00
   -8    3    3     -0.11      0.00
   -7    3    3      7.90      0.00
   -6    3    3    -38.32      0.00
   -5    3    3     30.48      0.00
   -4    3    3    -41.28      0.00
   -3    3    3    -13.71      0.00
   -2    3    3     41.26      0.00
   -1    3    3     26.32      0.00
    0    3    3    -20.86      0.00
    1    3    3     -1.68      0.00
    3    3    3    -22.58      0.00
    4    3    3      8.47      0.00
    5    3    3    -11.58      0.00
    6    3    3     12.36      0.00
    7    3    3     -3.25      0.00
    8    3    3      6.55      0.00
    9    3    3     -5.75      0.00
   10    3    3     -4.64      0.00
   11    3    3     10.07      0.00
   12    3    3     -7.26      0.00
   13    3    3      3.73      0.00
   14    3    3     -2.92      0.00
   15    3    3      4.24      0.00
   16    3    3      3.34      0.00
   17    3    3      4.40      0.00
   18    3    3     -6.29      0.00
  -14    4    3      3.08      0.00
  -13    4    3     -7.30      0.00
  -12    4    3      7.09      0.00
  -11    4    3      0.57      0.00
  -10    4    3     -5.24      0.00
   -9    4    3      0.79      0.00
   -8    4    3     -8.42      0.00
   -7    4    3     -4.92      0.00
   -6    4    3      9.05      0.00
   -5    4    3    -22.66      0.00
   -4    4    3    -11.87      0.00
   -3    4    3      0.37      0.00
   -2    4    3     21.12      0.00
   -1    4    3    -12.42      0.00
    0    4    3     33.89      0.00
    1    4    3     -0.92      0.00
    2    4    3    -44.10      0.00
    3    4    3      1.45      0.00
    4    4    3    -10.90      0.00
    5    4    3     48.72      0.00
    6    4    3    -56.72      0.00
    7    4    3     36.68      0.00
    8    4    3      4.98      0.00
    9    4    3    -10.44      0.00
   10    4    3      2.60      0.00
   11    4    3     -4.19      0.00
   12    4    3     -0.64      0.00
   13    4    3      0.11      0.00
   14    4    3      4.66      0.00
   15    4    3     -0.63      0.00
   16    4    3      2.30      0.00
   17    4    3     -1.21      0.00
   18    4    3      0.04      0.00
  -13    5    3      1.70      0.00
  -12    5    3     -4.55      0.00
  -11    5    3      5.44      0.00
  -10    5    3    -11.86      0.00
   -9    5    3      2.33      0.00
   -8    5    3      1.24      0.00
   -7    5    3    -10.30      0.00
   -6    5    3     -3.43      0.00
   -5    5    3      5.13      0.00
   -4    5    3    -24.01      0.00
   -3    5    3     14.80      0.00
   -2    5    3      3.65      0.00
   -1    5    3     12.36      0.00
    0    5    3      8.20      0.00
    1    5    3     -2.25      0.00
    3    5    3     19.64      0.00
    4    5    3      8.15      0.00
    5    5    3    -26.41      0.00
    6    5    3     24.85      0.00
    7    5    3      5.00      0.00
    8    5    3     -5.74      0.00
    9    5    3      0.05      0.00
   10    5    3     -4.92      0.00
   11    5    3      4.13      0.00
   12    5    3     -5.69      0.00
   13    5    3      1.40      0.00
   14    5    3     -0.64      0.00
   15    5    3      2.64      0.00
   16    5    3     -0.59      0.00
   17    5    3      1.81      0.00
   18    5    3     -2.96      0.00
  -13    6    3      0.22      0.00
  -12    6    3      1.98      0.00
  -11    6    3     -5.06      0.00
  -10    6    3     -1.22      0.00
   -9    6    3     -0.43      0.00
   -8    6    3    -11.49      0.00
   -7    6    3     18.16      0.00
   -6    6    3     -4.95      0.00
   -5    6    3     -5.71      0.00
   -4    6    3     -0.15      0.00
   -3    6    3     11.88      0.00
   -2    6    3      5.04      0.00
   -1    6    3      1.74      0.00
    0    6    3     -6.34      0.00
    1    6    3     23.14      0.00
    2    6    3    -36.92      0.00
    3    6    3     -1.37      0.00
    4    6    3     15.87      0.00
    5    6    3    -12.71      0.00
    6    6    3      6.68      0.00
    7    6    3      1.42      0.00
    8    6    3     -0.56      0.00
    9    6    3      4.90      0.00
   10    6    3    -10.88      0.00
   11    6    3     -4.95      0.00
   12    6    3      4.41      0.00
   13    6    3      1.65      0.00
   14    6    3      0.42      0.00
   15    6    3      2.59      0.00
   16    6    3     -1.40      0.00
   17    6    3     -4.26      0.00
   18    6    3      0.88      0.00
  -12    7    3     -5.94      0.00
  -11    7    3      0.14      0.00
  -10    7    3      0.63      0.00
   -9    7    3     -5.51      0.00
   -8    7    3     15.84      0.00
   -7    7    3     -8.52      0.00
   -6    7    3     10.52      0.00
   -5    7    3    -10.67      0.00
   -4    7    3     19.38      0.00
   -3    7    3      1.30      0.00
   -2    7    3     -8.26      0.00
   -1    7    3      6.63      0.00
    0    7    3     13.46      0.00
    1    7    3    -18.04      0.00
    2    7    3    -14.28      0.00
    3    7    3     13.44      0.00
    4    7    3    -10.35      0.00
    5    7    3     -1.70      0.00
    6    7    3     14.16      0.00
    7    7    3     -9.80      0.00
    8    7    3      1.72      0.00
    9    7    3     -4.87      0.00
   10    7    3      1.50      0.00
   11    7    3     -4.47      0.00
   12    7    3     11.14      0.00
   13    7    3     -2.25      0.00
   14    7    3      2.10      0.00
   15    7    3     -0.62      0.00
   16    7    3      1.08      0.00
   17    7    3     -3.61      0.00
   18    7    3      0.74      0.00
  -11    8    3     -1.47      0.00
  -10    8    3      1.21      0.00
   -9    8    3      1.23      0.00
   -8    8    3      0.92      0.00
   -7    8    3      8.42      0.00
   -6    8    3     -6.09      0.00
   -5    8    3      8.45      0.00
   -4    8    3     -4.98      0.00
   -3    8    3      8.30      0.00
   -2    8    3     -1.95      0.00
   -1    8    3     -2.84      0.00
    0    8    3     -2.72      0.00
    1    8    3     -6.24      0.00
    2    8    3     12.66      0.00
    3    8    3    -33.81      0.00
    4    8    3     27.56      0.00
    5    8    3    -14.00      0.00
    6    8    3      8.90      0.00
    7    8    3     -3.99      0.00
    8    8    3      2.79      0.00
    9    8    3      6.16      0.00
   10    8    3     -6.19      0.00
   11    8    3      1.84      0.00
   12    8    3     13.79      0.00
   13    8    3     -3.82      0.00
   14    8    3      3.94      0.00
   15    8    3      0.70      0.00
   16    8    3     -3.27      0.00
   17    8    3     -3.68      0.00
   18    8    3      2.07      0.00
  -11    9    3     -1.46      0.00
  -10    9    3      1.66      0.00
   -9    9    3     -1.42      0.00
   -8    9    3      5.03      0.00
   -7    9    3     -0.35      0.00
   -6    9    3     -3.88      0.00
   -5    9    3     -3.68      0.00
   -4    9    3     11.99      0.00
   -3    9    3     -9.27      0.00
   -2    9    3     -6.87      0.00
   -1    9    3      7.75      0.00
    0    9    3     -2.99      0.00
    1    9    3     -8.67      0.00
    2    9    3     -1.21      0.00
    3    9    3     -5.87      0.00
    4    9    3     -0.45      0.00
    6    9    3     -3.31      0.00
    7    9    3     10.08      0.00
    8    9    3      1.19      0.00
    9    9    3     -3.80      0.00
   10    9    3      6.67      0.00
   11    9    3     10.74      0.00
   12    9    3      0.48      0.00
   13    9    3      1.12      0.00
   14    9    3      2.12      0.00
   15    9    3     -2.17      0.00
   16    9    3      0.13      0.00
   17    9    3     -3.43      0.00
   18    9    3     -1.13      0.00
  -10   10    3      0.61      0.00
   -9   10    3      1.01      0.00
   -8   10    3      2.60      0.00
   -7   10    3     -6.00      0.00
   -6   10    3      0.46      0.00
   -5   10    3      2.97      0.00
   -4   10    3    -10.70      0.00
   -3   10    3      3.31      0.00
   -2   10    3      5.29      0.00
   -1   10    3    -17.81      0.00
    0   10    3      4.50      0.00
    1   10    3      1.51      0.00
    2   10    3     -7.88      0.00
    3   10    3     -5.33      0.00
    4   10    3     -0.37      0.00
    5   10    3      0.30      0.00
    6   10    3      9.25      0.00
    7   10    3     -4.82      0.00
    8   10    3     14.35      0.00
    9   10    3     -6.48      0.00
   10   10    3     10.42      0.00
   11   10    3      2.78      0.00
   12   10    3     -1.69      0.00
   13   10    3      2.28      0.00
   14   10    3      2.67      0.00
   15   10    3     -1.07      0.00
   16   10    3     -0.82      0.00
   17   10    3     -1.07      0.00
   18   10    3     -3.32      0.00
   -9   11    3      1.43      0.00
   -8   11    3      0.50      0.00
   -7   11    3      2.47      0.00
   -6   11    3     -7.85      0.00
   -5   11    3      2.07      0.00
   -4   11    3     -3.66      0.00
   -3   11    3      2.39      0.00
   -2   11    3     -5.27      0.00
   -1   11    3     -5.37      0.00
    0   11    3      7.61      0.00
    1   11    3     -9.36      0.00
    2   11    3     -2.60      0.00
    3   11    3     -7.84      0.00
    4   11    3      1.71      0.00
    5   11    3      0.60      0.00
    6   11    3     -3.60      0.00
    7   11    3     18.02      0.00
    8   11    3    -11.00      0.00
    9   11    3     -1.33      0.00
   10   11    3     13.18      0.00
   11   11    3     -3.57      0.00
   12   11    3     -1.87      0.00
   13   11    3      1.59      0.00
   14   11    3      2.26      0.00
   15   11    3     -0.15      0.00
   16   11    3     -0.13      0.00
   17   11    3     -0.37      0.00
   18   11    3      0.54      0.00
   -8   12    3     -1.39      0.00
   -7   12    3     -1.26      0.00
   -6   12    3      2.13      0.00
   -5   12    3     -3.08      0.00
   -4   12    3     -0.02      0.00
   -3   12    3      3.50      0.00
   -2   12    3     -0.85      0.00
   -1   12    3     -7.34      0.00
    0   12    3      2.03      0.00
    1   12    3      1.33      0.00
    2   12    3     -9.31      0.00
    3   12    3      7.88      0.00
    4   12    3    -11.77      0.00
    5   12    3     -2.46      0.00
    6   12    3      9.70      0.00
    7   12    3     -3.52      0.00
    8   12    3     -4.39      0.00
    9   12    3      3.94      0.00
   10   12    3      1.31      0.00
   11   12    3     -6.69      0.00
   12   12    3      0.76      0.00
   13   12    3      3.65      0.00
   14   12    3     -4.76      0.00
   15   12    3      6.30      0.00
   16   12    3      2.39      0.00
   17   12    3      0.23      0.00
   18   12    3     -2.80      0.00
   -7   13    3      1.89      0.00
   -6   13    3     -5.49      0.00
   -5   13    3      1.07      0.00
   -4   13    3      6.29      0.00
   -3   13    3      1.97      0.00
   -2   13    3     -1.58      0.00
   -1   13    3     -1.11      0.00
    0   13    3     -0.32      0.00
    1   13    3      1.19      0.00
    2   13    3     -4.56      0.00
    3   13    3      1.86      0.00
    4   13    3      0.57      0.00
    5   13    3    -10.54      0.00
    6   13    3      6.89      0.00
    7   13    3      1.23      0.00
    8   13    3     -9.88      0.00
    9   13    3     -0.44      0.00
   10   13    3     -2.68      0.00
   11   13    3      1.74      0.00
   12   13    3     -2.70      0.00
   13   13    3      0.90      0.00
   14   13    3      0.92      0.00
   15   13    3      2.99      0.00
   16   13    3      1.83      0.00
   17   13    3      1.00      0.00
   18   13    3      1.67      0.00
   -6   14    3      2.12      0.00
   -5   14    3      1.72      0.00
   -4   14    3      4.23      0.00
   -3   14    3      5.49      0.00
   -2   14    3     -3.14      0.00
   -1   14    3     -1.36      0.00
    0   14    3     -4.54      0.00
    1   14    3      0.89      0.00
    2   14    3      1.60      0.00
    3   14    3      5.80      0.00
    4   14    3     -8.01      0.00
    5   14    3     -4.73      0.00
    7   14    3      0.16      0.00
    8   14    3     -5.13      0.00
    9   14    3      0.05      0.00
   10   14    3     -1.76      0.00
   11   14    3     -1.47      0.00
   12   14    3      2.50      0.00
   13   14    3     -1.66      0.00
   14   14    3     -2.23      0.00
   15   14    3      8.43      0.00
   16   14    3     -0.46      0.00
   17   14    3      1.70      0.00
   -4   15    3      3.25      0.00
   -3   15    3      4.68      0.00
   -2   15    3     -4.93      0.00
   -1   15    3     -1.66      0.00
    0   15    3     -6.67      0.00
    1   15    3     -0.51      0.00
    2   15    3      7.57      0.00
    3   15    3     -3.59      0.00
    4   15    3     -4.27      0.00
    5   15    3     -4.22      0.00
    6   15    3      6.43      0.00
    7   15    3     -1.82      0.00
    8   15    3     -4.71      0.00
    9   15    3      4.18      0.00
   10   15    3     -1.46      0.00
   11   15    3      4.89      0.00
   12   15    3     -3.48      0.00
   13   15    3      0.06      0.00
   14   15    3      1.60      0.00
   15   15    3      2.09      0.00
   16   15    3     -0.89      0.00
   17   15    3      0.43      0.00
   -3   16    3      7.76      0.00
   -2   16    3     -9.47      0.00
   -1   16    3     -5.28      0.00
    0   16    3     -1.44      0.00
    1   16    3     -1.64      0.00
    2   16    3      7.25      0.00
    3   16    3     -1.41      0.00
    4   16    3     -4.19      0.00
    5   16    3      1.71      0.00
    6   16    3      1.01      0.00
    7   16    3     -3.74      0.00
    8   16    3      9.34      0.00
    9   16    3      1.91      0.00
   10   16    3      2.80      0.00
   11   16    3      2.01      0.00
   12   16    3     -3.17      0.00
   13   16    3     -2.87      0.00
   14   16    3      3.36      0.00
   15   16    3      2.43      0.00
   16   16    3     -3.87      0.00
   -1   17    3     -3.49      0.00
    0   17    3     -1.62      0.00
    1   17    3      2.44      0.00
    2   17    3      6.47      0.00
    3   17    3     -1.67      0.00
    4   17    3     -2.88      0.00
    5   17    3      6.36      0.00
    6   17    3     -1.70      0.00
    7   17    3      3.40      0.00
    8   17    3      8.07      0.00
    9   17    3     -0.04      0.00
   10   17    3      4.35      0.00
   11   17    3      1.49      0.00
   12   17    3     -1.83      0.00
   13   17    3     -2.19      0.00
   14   17    3      0.96      0.00
   15   17    3     -1.79      0.00
    1   18    3      3.20      0.00
    2   18    3      0.94      0.00
    3   18    3      6.12      0.00
    4   18    3      1.94      0.00
    5   18    3     -1.14      0.00
    6   18    3      0.12      0.00
    7   18    3      6.29      0.00
    8   18    3      3.34      0.00
    9   18    3      3.02      0.00
   10   18    3      6.00      0.00
   11   18    3     -3.70      0.00
   12   18    3     -1.56      0.00
   13   18    3     -4.08      0.00
   14   18    3      0.66      0.00
    4   19    3     -4.29      0.00
    5   19    3      1.27      0.00
    6   19    3      4.15      0.00
    7   19    3      3.78      0.00
    8   19    3      3.30      0.00
    9   19    3     -2.85      0.00
   10   19    3      0.67      0.00
   11   19    3      3.37      0.00
   12   19    3     -5.17      0.00
   -9  -17    4      1.79      0.00
   -8  -17    4     -1.98      0.00
   -7  -17    4     -2.27      0.00
   -6  -17    4      1.15      0.00
   -5  -17    4     -1.73      0.00
   -4  -17    4     -1.17      0.00
   -3  -17    4     -2.52      0.00
   -2  -17    4     -4.49      0.00
  -11  -16    4      0.60      0.00
  -10  -16    4     -2.85      0.00
   -9  -16    4      1.00      0.00
   -8  -16    4     -2.49      0.00
   -7  -16    4     -4.50      0.00
   -6  -16    4     -1.64      0.00
   -5  -16    4      6.24      0.00
   -4  -16    4     -3.33      0.00
   -3  -16    4     -8.88      0.00
   -2  -16    4      6.64      0.00
   -1  -16    4     -4.35      0.00
    0  -16    4     -4.49      0.00
    1  -16    4     -1.36      0.00
  -12  -15    4     -6.44      0.00
  -11  -15    4     -2.84      0.00
  -10  -15    4     -2.71      0.00
   -9  -15    4     -0.24      0.00
   -8  -15    4     -0.56      0.00
   -7  -15    4     -6.20      0.00
   -6  -15    4      0.87      0.00
   -5  -15    4      2.85      0.00
   -4  -15    4     -1.54      0.00
   -3  -15    4     -1.13      0.00
   -2  -15    4     -0.20      0.00
   -1  -15    4      0.46      0.00
    0  -15    4     -8.33      0.00
    1  -15    4      3.81      0.00
    2  -15    4      3.07      0.00
    3  -15    4     -8.92      0.00
  -13  -14    4     -4.14      0.00
  -12  -14    4     -5.09      0.00
  -11  -14    4     -1.43      0.00
  -10  -14    4     -0.17      0.00
   -9  -14    4     -4.13      0.00
   -8  -14    4     -4.94      0.00
   -7  -14    4      0.39      0.00
   -6  -14    4      1.13      0.00
   -5  -14    4     -0.14      0.00
   -4  -14    4      0.44      0.00
   -3  -14    4      1.19      0.00
   -2  -14    4     -0.57      0.00
   -1  -14    4     -1.59      0.00
    0  -14    4     -2.43      0.00
    1  -14    4      0.62      0.00
    2  -14    4      0.37      0.00
    3  -14    4      4.17      0.00
    4  -14    4     -2.41      0.00
    5  -14    4      3.93      0.00
  -14  -13    4     -2.47      0.00
  -13  -13    4      2.27      0.00
  -12  -13    4     -4.76      0.00
  -11  -13    4     -1.26      0.00
  -10  -13    4     -3.31      0.00
   -9  -13    4     -5.82      0.00
   -8  -13    4      0.80      0.00
   -7  -13    4      2.15      0.00
   -6  -13    4     -1.70      0.00
   -5  -13    4     -1.15      0.00
   -4  -13    4     -0.30      0.00
   -3  -13    4      3.61      0.00
   -2  -13    4     -4.17      0.00
   -1  -13    4      2.92      0.00
    0  -13    4     -0.77      0.00
    1  -13    4     -1.55      0.00
    2  -13    4      6.72      0.00
    3  -13    4     -7.34      0.00
    4  -13    4     11.56      0.00
    5  -13    4     -3.80      0.00
    6  -13    4      5.78      0.00
  -15  -12    4      0.71      0.00
  -14  -12    4      0.66      0.00
  -13  -12    4     -4.34      0.00
  -12  -12    4     -3.53      0.00
  -11  -12    4      0.43      0.00
  -10  -12    4      1.20      0.00
   -9  -12    4     -3.55      0.00
   -8  -12    4     -1.70      0.00
   -7  -12    4     -1.81      0.00
   -6  -12    4      1.20      0.00
   -5  -12    4     -4.22      0.00
   -4  -12    4      4.41      0.00
   -3  -12    4      2.47      0.00
   -2  -12    4     -4.34      0.00
   -1  -12    4      0.58      0.00
    0  -12    4      4.38      0.00
    1  -12    4      2.28      0.00
    2  -12    4     -3.76      0.00
    3  -12    4      5.52      0.00
    4  -12    4     -4.81      0.00
    5  -12    4      3.94      0.00
    6  -12    4      2.38      0.00
    7  -12    4     -0.99      0.00
    8  -12    4      1.54      0.00
  -15  -11    4      0.10      0.00
  -14  -11    4     -4.29      0.00
  -13  -11    4     -0.28      0.00
  -12  -11    4      2.62      0.00
  -11  -11    4     -3.90      0.00
  -10  -11    4     -0.34      0.00
   -9  -11    4     -2.94      0.00
   -8  -11    4      0.15      0.00
   -7  -11    4      2.29      0.00
   -6  -11    4     -6.22      0.00
   -5  -11    4      2.43      0.00
   -4  -11    4     -0.61      0.00
   -3  -11    4      0.63      0.00
   -2  -11    4      5.38      0.00
   -1  -11    4     -1.58      0.00
    0  -11    4      6.68      0.00
    1  -11    4     -1.56      0.00
    2  -11    4      1.61      0.00
    3  -11    4     -3.41      0.00
    4  -11    4      1.71      0.00
    5  -11    4     -6.87      0.00
    6  -11    4      3.64      0.00
    7  -11    4      1.05      0.00
    8  -11    4     -9.23      0.00
    9  -11    4      7.96      0.00
  -15  -10    4      2.95      0.00
  -14  -10    4     -2.15      0.00
  -13  -10    4     -4.70      0.00
  -12  -10    4      1.64      0.00
  -11  -10    4     -4.77      0.00
  -10  -10    4      4.70      0.00
   -9  -10    4     -0.15      0.00
   -8  -10    4     -2.93      0.00
   -7  -10    4     -5.02      0.00
   -6  -10    4      1.25      0.00
   -5  -10    4      4.26      0.00
   -4  -10    4      0.88      0.00
   -3  -10    4      0.80      0.00
   -2  -10    4      4.20      0.00
   -1  -10    4      2.03      0.00
    0  -10    4      1.80      0.00
    1  -10    4      6.07      0.00
    2  -10    4      0.84      0.00
    3  -10    4     -6.02      0.00
    4  -10    4     -2.57      0.00
    5  -10    4     -0.12      0.00
    6  -10    4     -2.46      0.00
    7  -10    4     -0.11      0.00
    8  -10    4      1.56      0.00
    9  -10    4     -4.57      0.00
   10  -10    4      9.47      0.00
  -16   -9    4     -1.61      0.00
  -15   -9    4     -0.43      0.00
  -14   -9    4     -2.70      0.00
  -13   -9    4      3.45      0.00
  -12   -9    4     -1.41      0.00
  -11   -9    4     -1.75      0.00
  -10   -9    4     -3.55      0.00
   -9   -9    4     -2.05      0.00
   -8   -9    4      8.23      0.00
   -7   -9    4     -6.40      0.00
   -6   -9    4      8.88      0.00
   -5   -9    4     -5.54      0.00
   -4   -9    4      3.76      0.00
   -3   -9    4      3.34      0.00
   -2   -9    4      3.86      0.00
   -1   -9    4     -2.95      0.00
    0   -9    4      7.84      0.00
    1   -9    4      5.23      0.00
    2   -9    4    -11.91      0.00
    3   -9    4      9.32      0.00
    4   -9    4     -6.30      0.00
    5   -9    4     -4.53      0.00
    6   -9    4      3.00      0.00
    7   -9    4      2.66      0.00
    8   -9    4     -3.86      0.00
    9   -9    4      9.82      0.00
   10   -9    4     -5.30      0.00
   11   -9    4      1.13      0.00
  -16   -8    4     -3.70      0.00
  -15   -8    4      5.87      0.00
  -14   -8    4     -1.33      0.00
  -13   -8    4     -3.27      0.00
  -12   -8    4      1.90      0.00
  -11   -8    4     -2.83      0.00
  -10   -8    4      2.14      0.00
   -9   -8    4      4.13      0.00
   -8   -8    4     -7.04      0.00
   -7   -8    4      6.70      0.00
   -6   -8    4      9.86      0.00
   -5   -8    4     -5.98      0.00
   -4   -8    4      2.38      0.00
   -3   -8    4     -1.79      0.00
   -2   -8    4      3.47      0.00
   -1   -8    4     -3.28      0.00
    0   -8    4     -4.69      0.00
    1   -8    4      7.76      0.00
    2   -8    4     -5.32      0.00
    3   -8    4     -8.90      0.00
    4   -8    4      9.39      0.00
    5   -8    4     -8.79      0.00
    6   -8    4      6.12      0.00
    7   -8    4      1.46      0.00
    8   -8    4      2.91      0.00
    9   -8    4      1.68      0.00
   10   -8    4      1.03      0.00
   11   -8    4     -5.71      0.00
   12   -8    4      7.44      0.00
  -16   -7    4     -3.73      0.00
  -15   -7    4      1.72      0.00
  -14   -7    4      0.97      0.00
  -13   -7    4      0.61      0.00
  -12   -7    4      4.55      0.00
  -11   -7    4     -4.63      0.00
  -10   -7    4     -0.83      0.00
   -9   -7    4      4.22      0.00
   -8   -7    4     -3.49      0.00
   -7   -7    4     17.31      0.00
   -6   -7    4     -0.55      0.00
   -5   -7    4     -4.40      0.00
   -4   -7    4     -8.61      0.00
   -3   -7    4     19.76      0.00
   -2   -7    4    -35.03      0.00
   -1   -7    4      5.04      0.00
    0   -7    4      6.50      0.00
    1   -7    4    -15.78      0.00
    2   -7    4     -9.44      0.00
    3   -7    4     17.66      0.00
    4   -7    4    -16.50      0.00
    5   -7    4     11.92      0.00
    6   -7    4     -1.78      0.00
    7   -7    4      3.64      0.00
    8   -7    4      2.72      0.00
    9   -7    4      3.47      0.00
   10   -7    4     -3.22      0.00
   11   -7    4      1.63      0.00
   12   -7    4     -6.16      0.00
   13   -7    4      8.47      0.00
  -16   -6    4      1.64      0.00
  -15   -6    4      0.47      0.00
  -14   -6    4     -4.52      0.00
  -13   -6    4      6.17      0.00
  -12   -6    4     -5.97      0.00
  -11   -6    4      2.73      0.00
  -10   -6    4      8.61      0.00
   -9   -6    4    -10.78      0.00
   -8   -6    4      8.96      0.00
   -7   -6    4      5.22      0.00
   -6   -6    4      4.05      0.00
   -5   -6    4      0.69      0.00
   -4   -6    4    -10.08      0.00
   -3   -6    4     -9.58      0.00
   -2   -6    4    -12.76      0.00
   -1   -6    4     -0.22      0.00
    0   -6    4    -16.78      0.00
    1   -6    4     -1.76      0.00
    2   -6    4      1.63      0.00
    3   -6    4     -2.00      0.00
    4   -6    4      8.61      0.00
    5   -6    4      3.86      0.00
    6   -6    4     -1.87      0.00
    7   -6    4      7.98      0.00
    8   -6    4     -6.76      0.00
    9   -6    4     10.70      0.00
   10   -6    4     -5.03      0.00
   11   -6    4     -3.82      0.00
   12   -6    4      4.75      0.00
   13   -6    4     -3.25      0.00
  -16   -5    4     -1.33      0.00
  -15   -5    4     -3.65      0.00
  -14   -5    4      1.41      0.00
  -13   -5    4     -0.64      0.00
  -12   -5    4     -2.41      0.00
  -11   -5    4      5.62      0.00
  -10   -5    4     -5.95      0.00
   -9   -5    4      6.24      0.00
   -8   -5    4     -3.28      0.00
   -7   -5    4     20.21      0.00
   -6   -5    4    -12.06      0.00
   -5   -5    4     -1.90      0.00
   -4   -5    4     -1.30      0.00
   -3   -5    4     -5.46      0.00
   -2   -5    4    -42.75      0.00
   -1   -5    4     15.39      0.00
    0   -5    4     -9.32      0.00
    1   -5    4    -17.96      0.00
    2   -5    4     21.95      0.00
    3   -5    4     -0.16      0.00
    4   -5    4      1.07      0.00
    5   -5    4     10.74      0.00
    6   -5    4      1.20      0.00
    7   -5    4     -3.36      0.00
    8   -5    4      6.98      0.00
    9   -5    4     -2.05      0.00
   10   -5    4      0.13      0.00
   11   -5    4     -0.03      0.00
   12   -5    4     -1.28      0.00
   13   -5    4     -7.31      0.00
   14   -5    4      7.67      0.00
  -16   -4    4     -0.90      0.00
  -15   -4    4     -2.49      0.00
  -14   -4    4     -0.94      0.00
  -13   -4    4     -1.34      0.00
  -12   -4    4     -3.17      0.00
  -11   -4    4      6.36      0.00
  -10   -4    4     -0.35      0.00
   -9   -4    4     -2.14      0.00
   -8   -4    4     13.33      0.00
   -7   -4    4     -6.73      0.00
   -6   -4    4      3.43      0.00
   -5   -4    4     -0.30      0.00
   -4   -4    4     -2.42      0.00
   -3   -4    4    -45.02      0.00
   -2   -4    4     22.66      0.00
   -1   -4    4    -22.30      0.00
    0   -4    4    -20.92      0.00
    1   -4    4     13.08      0.00
    2   -4    4     -3.31      0.00
    3   -4    4     20.84      0.00
    4   -4    4     -8.10      0.00
    5   -4    4     15.03      0.00
    6   -4    4      0.77      0.00
    7   -4    4     -3.07      0.00
    8   -4    4      1.44      0.00
    9   -4    4      6.13      0.00
   10   -4    4     -2.56      0.00
   11   -4    4      1.40      0.00
   12   -4    4     -4.50      0.00
   13   -4    4     -3.40      0.00
   14   -4    4      5.57      0.00
   15   -4    4     -3.94      0.00
  -16   -3    4     -4.15      0.00
  -15   -3    4      2.62      0.00
  -14   -3    4      1.03      0.00
  -13   -3    4     -2.17      0.00
  -12   -3    4      0.88      0.00
  -11   -3    4     -0.23      0.00
  -10   -3    4      6.31      0.00
   -9   -3    4     -0.79      0.00
   -8   -3    4      0.48      0.00
   -7   -3    4     12.39      0.00
   -6   -3    4    -18.88      0.00
   -5   -3    4     10.76      0.00
   -4   -3    4    -14.12      0.00
   -3   -3    4    -17.86      0.00
   -2   -3    4     -2.44      0.00
   -1   -3    4    -27.14      0.00
    0   -3    4      7.93      0.00
    1   -3    4    -21.21      0.00
    2   -3    4     26.51      0.00
    3   -3    4    -11.22      0.00
    4   -3    4     25.94      0.00
    5   -3    4    -12.27      0.00
    6   -3    4      8.42      0.00
    7   -3    4      0.77      0.00
    8   -3    4     12.16      0.00
    9   -3    4     -8.37      0.00
   10   -3    4      4.77      0.00
   11   -3    4     -0.42      0.00
   12   -3    4     -1.38      0.00
   13   -3    4     -2.07      0.00
   14   -3    4      0.13      0.00
   15   -3    4      1.79      0.00
  -16   -2    4      1.91      0.00
  -15   -2    4      1.22      0.00
  -14   -2    4     -0.13      0.00
  -13   -2    4      1.68      0.00
  -12   -2    4      1.37      0.00
  -11   -2    4      3.21      0.00
  -10   -2    4     -2.35      0.00
   -9   -2    4      4.45      0.00
   -8   -2    4      2.82      0.00
   -7   -2    4     -5.32      0.00
   -6   -2    4      9.25      0.00
   -5   -2    4    -10.24      0.00
   -4   -2    4     -9.89      0.00
   -3   -2    4    -16.02      0.00
   -2   -2    4     -7.18      0.00
   -1   -2    4     21.88      0.00
    0   -2    4    -35.38      0.00
    1   -2    4    -13.49      0.00
    2   -2    4      2.80      0.00
    3   -2    4     36.69      0.00
    4   -2    4    -17.45      0.00
    5   -2    4      8.60      0.00
    6   -2    4      2.51      0.00
    7   -2    4      4.50      0.00
    8   -2    4      1.00      0.00
    9   -2    4      6.24      0.00
   10   -2    4      3.18      0.00
   11   -2    4     -4.06      0.00
   12   -2    4     -0.77      0.00
   13   -2    4     -1.65      0.00
   14   -2    4      4.21      0.00
   15   -2    4     -4.55      0.00
   16   -2    4      6.62      0.00
  -15   -1    4      5.48      0.00
  -14   -1    4     -1.72      0.00
  -13   -1    4      3.38      0.00
  -12   -1    4     -1.22      0.00
  -11   -1    4      2.46      0.00
  -10   -1    4      4.84      0.00
   -9   -1    4     -7.33      0.00
   -8   -1    4      5.98      0.00
   -7   -1    4     -4.63      0.00
   -6   -1    4     11.25      0.00
   -5   -1    4     -9.22      0.00
   -4   -1    4     -1.10      0.00
   -3   -1    4    -16.16      0.00
   -2   -1    4     23.40      0.00
   -1   -1    4    -18.27      0.00
    0   -1    4     -1.67      0.00
    1   -1    4    -10.24      0.00
    2   -1    4     -6.45      0.00
    3   -1    4      1.29      0.00
    4   -1    4     35.54      0.00
    5   -1    4    -39.61      0.00
    6   -1    4     25.82      0.00
    7   -1    4     -3.88      0.00
    8   -1    4      5.73      0.00
    9   -1    4      5.27      0.00
   10   -1    4     -0.20      0.00
   11   -1    4     -1.48      0.00
   12   -1    4     -0.94      0.00
   13   -1    4     -1.59      0.00
   14   -1    4     -2.80      0.00
   15   -1    4      7.53      0.00
   16   -1    4     -1.82      0.00
  -15    0    4     -3.71      0.00
  -14    0    4      1.74      0.00
  -13    0    4      2.87      0.00
  -12    0    4      1.79      0.00
  -11    0    4     -1.39      0.00
  -10    0    4     -1.31      0.00
   -9    0    4      1.71      0.00
   -8    0    4    -12.41      0.00
   -7    0    4     25.06      0.00
   -6    0    4     -8.13      0.00
   -5    0    4      2.53      0.00
   -4    0    4      4.19      0.00
   -3    0    4     -7.23      0.00
   -2    0    4    -16.34      0.00
   -1    0    4     68.61      0.00
    0    0    4    -22.15      0.00
    1    0    4    -87.72      0.00
    2    0    4     63.33      0.00
    3    0    4     -2.21      0.00
    4    0    4    -17.21      0.00
    5    0    4     11.40      0.00
    6    0    4      2.38      0.00
    7    0    4     -7.32      0.00
    8    0    4      9.85      0.00
    9    0    4      1.40      0.00
   10    0    4      6.57      0.00
   11    0    4     -8.76      0.00
   12    0    4     -0.23      0.00
   13    0    4     -2.10      0.00
   14    0    4      2.68      0.00
   15    0    4     -1.15      0.00
   16    0    4      9.22      0.00
   17    0    4     -1.68      0.00
  -15    1    4      0.62      0.00
  -14    1    4     -1.36      0.00
  -13    1    4      3.10      0.00
  -12    1    4     -1.14      0.00
  -11    1    4     -1.17      0.00
  -10    1    4      1.58      0.00
   -9    1    4    -12.11      0.00
   -8    1    4     17.67      0.00
   -7    1    4    -22.38      0.00
   -6    1    4     30.92      0.00
   -5    1    4     -5.93      0.00
   -4    1    4      3.18      0.00
   -3    1    4     -3.58      0.00
   -2    1    4     15.80      0.00
   -1    1    4     -5.23      0.00
    0    1    4      5.74      0.00
    1    1    4    -14.38      0.00
    2    1    4    -10.46      0.00
    3    1    4      2.73      0.00
    4    1    4      0.48      0.00
    5    1    4      9.35      0.00
    6    1    4     -7.19      0.00
    7    1    4     -5.81      0.00
    8    1    4      6.64      0.00
    9    1    4      9.23      0.00
   10    1    4     -6.14      0.00
   11    1    4     -2.19      0.00
   12    1    4      1.45      0.00
   13    1    4     -4.51      0.00
   14    1    4      1.70      0.00
   15    1    4      6.63      0.00
   16    1    4     -1.17      0.00
   17    1    4      4.93      0.00
  -14    2    4      3.25      0.00
  -13    2    4      3.56      0.00
  -12    2    4     -5.32      0.00
  -11    2    4     -0.13      0.00
  -10    2    4     -4.02      0.00
   -9    2    4     -0.50      0.00
   -8    2    4     -8.84      0.00
   -7    2    4     22.16      0.00
   -6    2    4    -15.76      0.00
   -5    2    4     16.42      0.00
   -4    2    4     12.17      0.00
   -3    2    4    -24.02      0.00
   -2    2    4     -8.21      0.00
   -1    2    4     60.44      0.00
    0    2    4    -23.91      0.00
    1    2    4    -45.36      0.00
    3    2    4    -44.51      0.00
    4    2    4     25.47      0.00
    5    2    4     -9.94      0.00
    6    2    4     -4.59      0.00
    7    2    4      0.17      0.00
    8    2    4     -0.71      0.00
    9    2    4      5.30      0.00
   10    2    4     -8.29      0.00
   11    2    4      8.29      0.00
   12    2    4     -6.77      0.00
   13    2    4      6.27      0.00
   14    2    4     -2.68      0.00
   15    2    4     -0.05      0.00
   16    2    4      3.72      0.00
   17    2    4      2.91      0.00
   18    2    4     -4.21      0.00
  -14    3    4      6.79      0.00
  -13    3    4     -7.99      0.00
  -12    3    4      1.80      0.00
  -11    3    4      2.14      0.00
  -10    3    4     -6.91      0.00
   -9    3    4      3.76      0.00
   -8    3    4     -2.26      0.00
   -7    3    4    -10.08      0.00
   -6    3    4     20.40      0.00
   -5    3    4      6.58      0.00
   -4    3    4     -5.81      0.00
   -3    3    4     -8.09      0.00
   -2    3    4     25.43      0.00
   -1    3    4    -28.19      0.00
    0    3    4     21.43      0.00
    1    3    4     33.71      0.00
    3    3    4     22.04      0.00
    4    3    4    -34.62      0.00
    5    3    4     46.70      0.00
    6    3    4    -41.05      0.00
    7    3    4     -8.30      0.00
    8    3    4     14.63      0.00
    9    3    4     -2.36      0.00
   10    3    4     -2.67      0.00
   11    3    4      5.11      0.00
   12    3    4     -4.49      0.00
   13    3    4      2.06      0.00
   14    3    4      2.13      0.00
   15    3    4      0.15      0.00
   16    3    4     -0.24      0.00
   17    3    4      1.47      0.00
   18    3    4     -1.17      0.00
  -13    4    4      1.99      0.00
  -12    4    4     -2.65      0.00
  -11    4    4      3.18      0.00
  -10    4    4     -1.19      0.00
   -9    4    4     -2.80      0.00
   -8    4    4      4.42      0.00
   -7    4    4      3.54      0.00
   -6    4    4     -8.77      0.00
   -5    4    4     21.82      0.00
   -4    4    4     -3.86      0.00
   -3    4    4    -12.94      0.00
   -2    4    4      4.65      0.00
   -1    4    4      8.31      0.00
    0    4    4     14.08      0.00
    1    4    4     16.56      0.00
    2    4    4    -17.27      0.00
    3    4    4      2.65      0.00
    4    4    4     15.33      0.00
    5    4    4    -26.27      0.00
    6    4    4    -14.57      0.00
    7    4    4     12.61      0.00
    8    4    4     -8.52      0.00
    9    4    4     -2.69      0.00
   10    4    4      1.77      0.00
   11    4    4      6.36      0.00
   12    4    4     -1.94      0.00
   13    4    4      4.86      0.00
   14    4    4     -6.35      0.00
   15    4    4      0.47      0.00
   16    4    4      3.43      0.00
   17    4    4      2.85      0.00
   18    4    4      2.11      0.00
  -13    5    4     -2.78      0.00
  -12    5    4      5.00      0.00
  -11    5    4      4.20      0.00
  -10    5    4     -1.25      0.00
   -9    5    4      9.30      0.00
   -8    5    4    -17.76      0.00
   -7    5    4      5.22      0.00
   -6    5    4     10.66      0.00
   -5    5    4      2.16      0.00
   -4    5    4    -19.51      0.00
   -3    5    4     12.75      0.00
   -2    5    4     -8.86      0.00
   -1    5    4      7.92      0.00
    0    5    4      1.82      0.00
    1    5    4     26.12      0.00
    2    5    4     -1.79      0.00
    3    5    4    -12.61      0.00
    4    5    4     -1.42      0.00
    5    5    4      4.23      0.00
    6    5    4    -21.57      0.00
    7    5    4     -1.61      0.00
    8    5    4     -7.18      0.00
    9    5    4     15.92      0.00
   10    5    4     -1.42      0.00
   11    5    4     -2.57      0.00
   12    5    4      1.82      0.00
   13    5    4      0.79      0.00
   14    5    4     -2.97      0.00
   15    5    4      3.69      0.00
   16    5    4      1.14      0.00
   17    5    4      1.37      0.00
   18    5    4      1.76      0.00
  -12    6    4     -2.50      0.00
  -11    6    4      5.29      0.00
  -10    6    4      6.07      0.00
   -9    6    4    -12.91      0.00
   -8    6    4     10.84      0.00
   -7    6    4    -11.48      0.00
   -6    6    4      2.26      0.00
   -5    6    4    -12.52      0.00
   -4    6    4      5.36      0.00
   -3    6    4     -3.98      0.00
   -2    6    4    -10.68      0.00
   -1    6    4      9.31      0.00
    0    6    4      8.25      0.00
    1    6    4     28.73      0.00
    2    6    4    -27.64      0.00
    3    6    4     13.64      0.00
    4    6    4      9.44      0.00
    5    6    4    -38.21      0.00
    6    6    4     22.64      0.00
    7    6    4    -11.52      0.00
    8    6    4     -1.82      0.00
    9    6    4      6.72      0.00
   10    6    4     -3.05      0.00
   11    6    4      2.17      0.00
   12    6    4      2.76      0.00
   13    6    4     -3.35      0.00
   14    6    4     -4.47      0.00
   15    6    4      2.93      0.00
   16    6    4      3.52      0.00
   17    6    4      0.51      0.00
   18    6    4      2.45      0.00
  -12    7    4      1.55      0.00
  -11    7    4      3.39      0.00
  -10    7    4      0.22      0.00
   -9    7    4      0.56      0.00
   -8    7    4    -13.84      0.00
   -7    7    4      5.40      0.00
   -6    7    4    -10.71      0.00
   -5    7    4      1.52      0.00
   -4    7    4     -8.78      0.00
   -3    7    4     -6.29      0.00
   -2    7    4      6.29      0.00
   -1    7    4      6.42      0.00
    0    7    4      8.83      0.00
    1    7    4     -5.57      0.00
    2    7    4     35.79      0.00
    3    7    4    -30.48      0.00
    4    7    4      7.57      0.00
    5    7    4     -1.03      0.00
    6    7    4      2.31      0.00
    7    7    4    -14.03      0.00
    8    7    4      5.26      0.00
    9    7    4      6.70      0.00
   10    7    4     -3.54      0.00
   11    7    4    -11.23      0.00
   12    7    4      6.22      0.00
   13    7    4     -4.96      0.00
   14    7    4     -1.79      0.00
   15    7    4      3.61      0.00
   16    7    4      0.90      0.00
   17    7    4     -0.98      0.00
   18    7    4      2.38      0.00
   19    7    4      0.33      0.00
  -11    8    4      1.06      0.00
  -10    8    4      2.29      0.00
   -9    8    4     -5.91      0.00
   -8    8    4      3.38      0.00
   -7    8    4     -6.57      0.00
   -6    8    4     -3.46      0.00
   -5    8    4     -6.74      0.00
   -4    8    4      1.01      0.00
   -3    8    4      4.12      0.00
   -2    8    4     -5.13      0.00
   -1    8    4      4.06      0.00
    0    8    4     16.36      0.00
    1    8    4      6.25      0.00
    2    8    4      1.19      0.00
    3    8    4     -1.11      0.00
    4    8    4     -5.74      0.00
    5    8    4      8.28      0.00
    6    8    4    -10.44      0.00
    7    8    4      2.09      0.00
    8    8    4      3.78      0.00
    9    8    4    -12.53      0.00
   10    8    4     -4.44      0.00
   11    8    4     -4.72      0.00
   12    8    4      3.93      0.00
   13    8    4     -6.86      0.00
   14    8    4     -1.26      0.00
   15    8    4      2.08      0.00
   16    8    4      3.12      0.00
   17    8    4     -0.24      0.00
   18    8    4      0.60      0.00
   19    8    4     -0.28      0.00
  -10    9    4      3.60      0.00
   -9    9    4     -2.12      0.00
   -8    9    4     -0.74      0.00
   -7    9    4     -1.82      0.00
   -6    9    4     -3.74      0.00
   -5    9    4      6.88      0.00
   -4    9    4     -8.97      0.00
   -3    9    4     -0.62      0.00
   -2    9    4     12.95      0.00
   -1    9    4      2.17      0.00
    0    9    4     -4.98      0.00
    1    9    4     11.07      0.00
    2    9    4     16.58      0.00
    3    9    4    -21.28      0.00
    4    9    4     12.55      0.00
    5    9    4     -6.86      0.00
    6    9    4     -1.71      0.00
    7    9    4     -5.05      0.00
    8    9    4      2.66      0.00
    9    9    4    -10.66      0.00
   10    9    4     -6.14      0.00
   11    9    4     -1.04      0.00
   12    9    4     -5.02      0.00
   13    9    4     -2.19      0.00
   14    9    4      0.60      0.00
   15    9    4      2.66      0.00
   16    9    4      0.60      0.00
   17    9    4      0.70      0.00
   18    9    4     -0.50      0.00
   19    9    4      0.12      0.00
  -10   10    4     -0.15      0.00
   -9   10    4      1.32      0.00
   -8   10    4     -1.75      0.00
   -7   10    4      0.50      0.00
   -6   10    4      1.06      0.00
   -5   10    4     -4.26      0.00
   -4   10    4      0.11      0.00
   -3   10    4      9.08      0.00
   -2   10    4     -0.09      0.00
   -1   10    4     -8.78      0.00
    0   10    4     14.83      0.00
    1   10    4      4.25      0.00
    2   10    4     -0.16      0.00
    3   10    4      0.86      0.00
    4   10    4     -3.91      0.00
    5   10    4      3.87      0.00
    6   10    4    -13.25      0.00
    7   10    4      8.49      0.00
    8   10    4      1.89      0.00
    9   10    4    -19.04      0.00
   10   10    4      2.91      0.00
   11   10    4      3.94      0.00
   12   10    4    -10.17      0.00
   13   10    4      0.66      0.00
   14   10    4     -1.33      0.00
   15   10    4      2.32      0.00
   16   10    4      1.07      0.00
   17   10    4     -0.25      0.00
   18   10    4     -3.11      0.00
   19   10    4      3.51      0.00
   -9   11    4      2.50      0.00
   -8   11    4     -3.63      0.00
   -7   11    4     -1.92      0.00
   -6   11    4      1.09      0.00
   -5   11    4      0.44      0.00
   -4   11    4     -1.14      0.00
   -3   11    4     -0.10      0.00
   -2   11    4     10.91      0.00
   -1   11    4    -12.48      0.00
    0   11    4      2.14      0.00
    1   11    4     12.66      0.00
    2   11    4     -6.05      0.00
    3   11    4      7.78      0.00
    4   11    4     -3.73      0.00
    5   11    4     -9.12      0.00
    6   11    4      5.20      0.00
    7   11    4      4.12      0.00
    8   11    4     -3.33      0.00
    9   11    4     -2.82      0.00
   10   11    4      9.20      0.00
   11   11    4     -7.27      0.00
   12   11    4     -2.34      0.00
   13   11    4      0.73      0.00
   14   11    4     -4.93      0.00
   15   11    4      3.61      0.00
   16   11    4     -4.20      0.00
   17   11    4      4.49      0.00
   18   11    4     -3.88      0.00
   -8   12    4     -0.98      0.00
   -7   12    4      3.38      0.00
   -6   12    4     -4.57      0.00
   -5   12    4     -4.94      0.00
   -4   12    4      0.24      0.00
   -3   12    4      6.02      0.00
   -2   12    4     -7.18      0.00
   -1   12    4     -2.61      0.00
    0   12    4      5.71      0.00
    1   12    4     -1.56      0.00
    2   12    4      4.92      0.00
    3   12    4     -8.81      0.00
    4   12    4      9.14      0.00
    5   12    4    -10.45      0.00
    6   12    4      1.01      0.00
    7   12    4     14.11      0.00
    8   12    4     -0.25      0.00
    9   12    4      1.12      0.00
   10   12    4      1.53      0.00
   11   12    4      3.23      0.00
   12   12    4     -1.54      0.00
   13   12    4     -2.70      0.00
   14   12    4     -2.90      0.00
   15   12    4     -1.55      0.00
   16   12    4     -1.32      0.00
   17   12    4     -0.88      0.00
   18   12    4      0.28      0.00
   -7   13    4     -5.76      0.00
   -6   13    4     -3.29      0.00
   -5   13    4     -3.69      0.00
   -4   13    4     -1.02      0.00
   -3   13    4     -2.34      0.00
   -2   13    4     -2.73      0.00
   -1   13    4      1.45      0.00
    0   13    4     -6.34      0.00
    1   13    4      4.08      0.00
    2   13    4     -8.16      0.00
    3   13    4     10.18      0.00
    4   13    4     -7.10      0.00
    5   13    4     -5.89      0.00
    6   13    4      7.45      0.00
    7   13    4     10.13      0.00
    8   13    4     -1.86      0.00
    9   13    4      8.75      0.00
   10   13    4     -1.14      0.00
   11   13    4      2.33      0.00
   12   13    4     -0.61      0.00
   13   13    4     -0.51      0.00
   14   13    4     -7.30      0.00
   15   13    4     -1.73      0.00
   16   13    4      0.20      0.00
   17   13    4      1.94      0.00
   18   13    4     -0.47      0.00
   -6   14    4     -4.41      0.00
   -5   14    4     -6.33      0.00
   -4   14    4     -2.01      0.00
   -3   14    4     -2.11      0.00
   -2   14    4     -2.96      0.00
   -1   14    4      2.38      0.00
    0   14    4     -5.54      0.00
    1   14    4     -2.35      0.00
    2   14    4      3.26      0.00
    3   14    4     -4.86      0.00
    4   14    4     -0.15      0.00
    5   14    4     -4.25      0.00
    6   14    4      2.59      0.00
    7   14    4     11.58      0.00
    8   14    4      0.28      0.00
    9   14    4     -1.55      0.00
   10   14    4     -1.79      0.00
   11   14    4      5.70      0.00
   12   14    4     -3.16      0.00
   13   14    4     -1.86      0.00
   14   14    4     -3.85      0.00
   15   14    4      2.00      0.00
   16   14    4     -1.39      0.00
   17   14    4      0.03      0.00
   -4   15    4     -5.06      0.00
   -3   15    4      1.14      0.00
   -2   15    4      0.24      0.00
   -1   15    4     -3.71      0.00
    0   15    4      0.84      0.00
    1   15    4     -6.20      0.00
    2   15    4      4.10      0.00
    3   15    4     -0.21      0.00
    4   15    4     -5.21      0.00
    5   15    4     -2.90      0.00
    6   15    4      3.83      0.00
    7   15    4     -1.02      0.00
    8   15    4     -1.92      0.00
    9   15    4     -0.31      0.00
   10   15    4     -2.38      0.00
   11   15    4     -0.03      0.00
   12   15    4      0.32      0.00
   13   15    4     -4.37      0.00
   14   15    4     -0.72      0.00
   15   15    4      5.56      0.00
   16   15    4     -1.04      0.00
   17   15    4      4.94      0.00
   -3   16    4      3.88      0.00
   -2   16    4     -0.97      0.00
   -1   16    4     -0.22      0.00
    0   16    4     -4.50      0.00
    1   16    4     -1.68      0.00
    2   16    4      9.02      0.00
    3   16    4     -7.15      0.00
    4   16    4     -6.89      0.00
    5   16    4     -1.19      0.00
    6   16    4      0.09      0.00
    7   16    4     -4.48      0.00
    8   16    4     -2.49      0.00
    9   16    4     -6.11      0.00
   10   16    4     -3.27      0.00
   11   16    4      3.57      0.00
   12   16    4     -6.18      0.00
   13   16    4      1.07      0.00
   14   16    4      5.67      0.00
   15   16    4      1.33      0.00
   16   16    4      4.04      0.00
   -1   17    4     -7.72      0.00
    0   17    4      1.07      0.00
    1   17    4      0.54      0.00
    2   17    4     -2.59      0.00
    3   17    4     -0.18      0.00
    4   17    4     -2.98      0.00
    5   17    4     -2.69      0.00
    6   17    4     -7.66      0.00
    7   17    4     -3.16      0.00
    8   17    4     -7.13      0.00
    9   17    4     -5.10      0.00
   10   17    4      2.91      0.00
   11   17    4     -2.55      0.00
   12   17    4     -1.40      0.00
   13   17    4      2.21      0.00
   14   17    4      2.95      0.00
   15   17    4      4.26      0.00
    1   18    4      2.00      0.00
    2   18    4     -5.76      0.00
    3   18    4      7.26      0.00
    4   18    4     -5.34      0.00
    5   18    4     -9.52      0.00
    6   18    4     -0.70      0.00
    7   18    4     -5.66      0.00
    8   18    4     -3.69      0.00
    9   18    4     -3.67      0.00
   10   18    4     -3.86      0.00
   11   18    4      3.01      0.00
   12   18    4      4.16      0.00
   13   18    4      0.52      0.00
   14   18    4      2.55      0.00
    3   19    4      3.83      0.00
    4   19    4     -2.31      0.00
    5   19    4     -3.85      0.00
    6   19    4     -5.73      0.00
    7   19    4     -1.07      0.00
    8   19    4     -7.73      0.00
    9   19    4      0.00      0.00
   10   19    4      1.87      0.00
   11   19    4      6.28      0.00
   12   19    4     -3.47      0.00
   -6  -17    5     -2.70      0.00
   -5  -17    5      8.51      0.00
   -4  -17    5      7.34      0.00
  -10  -16    5     -7.62      0.00
   -9  -16    5      6.63      0.00
   -8  -16    5      6.08      0.00
   -7  -16    5     -2.88      0.00
   -6  -16    5      2.52      0.00
   -5  -16    5      4.88      0.00
   -4  -16    5      1.86      0.00
   -3  -16    5      0.69      0.00
   -2  -16    5      0.16      0.00
   -1  -16    5      0.94      0.00
    0  -16    5     -4.94      0.00
  -11  -15    5     -3.21      0.00
  -10  -15    5      3.39      0.00
   -9  -15    5      2.30      0.00
   -8  -15    5     -0.09      0.00
   -7  -15    5      0.77      0.00
   -6  -15    5     -1.17      0.00
   -5  -15    5      4.95      0.00
   -4  -15    5      2.42      0.00
   -3  -15    5     -5.58      0.00
   -2  -15    5      4.28      0.00
   -1  -15    5     -1.11      0.00
    0  -15    5     -1.12      0.00
    1  -15    5     -0.70      0.00
    2  -15    5     -3.25      0.00
    3  -15    5      4.08      0.00
  -12  -14    5      0.38      0.00
  -11  -14    5     -0.46      0.00
  -10  -14    5      3.36      0.00
   -9  -14    5     -5.46      0.00
   -8  -14    5      1.90      0.00
   -7  -14    5      1.83      0.00
   -6  -14    5     -1.93      0.00
   -5  -14    5     -0.73      0.00
   -4  -14    5      0.78      0.00
   -3  -14    5      3.88      0.00
   -2  -14    5     -3.19      0.00
   -1  -14    5      2.91      0.00
    0  -14    5     -4.72      0.00
    1  -14    5     -3.50      0.00
    2  -14    5      9.13      0.00
    3  -14    5    -14.22      0.00
    4  -14    5      3.89      0.00
    5  -14    5     -1.45      0.00
  -13  -13    5     -2.32      0.00
  -12  -13    5      0.35      0.00
  -11  -13    5     -1.71      0.00
  -10  -13    5      8.19      0.00
   -9  -13    5     -3.99      0.00
   -8  -13    5     -3.53      0.00
   -7  -13    5     -0.52      0.00
   -6  -13    5      0.36      0.00
   -5  -13    5     -1.71      0.00
   -4  -13    5      1.72      0.00
   -3  -13    5      6.46      0.00
   -2  -13    5      0.95      0.00
   -1  -13    5     -8.18      0.00
    0  -13    5      4.00      0.00
    1  -13    5     -2.86      0.00
    2  -13    5     -5.66      0.00
    3  -13    5      1.58      0.00
    4  -13    5     -3.45      0.00
    5  -13    5     -3.45      0.00
    6  -13    5     -3.33      0.00
  -14  -12    5     -6.72      0.00
  -13  -12    5      1.38      0.00
  -12  -12    5      1.21      0.00
  -11  -12    5      5.32      0.00
  -10  -12    5     -0.77      0.00
   -9  -12    5     -2.77      0.00
   -8  -12    5     -3.10      0.00
   -7  -12    5      2.21      0.00
   -6  -12    5     -0.06      0.00
   -5  -12    5     -0.41      0.00
   -4  -12    5      6.20      0.00
   -3  -12    5     -0.55      0.00
   -2  -12    5     -0.36      0.00
   -1  -12    5     -0.93      0.00
    0  -12    5     -1.81      0.00
    1  -12    5     -3.30      0.00
    2  -12    5     -0.42      0.00
    3  -12    5     -3.98      0.00
    4  -12    5      0.82      0.00
    5  -12    5     -0.82      0.00
    6  -12    5     -4.14      0.00
    7  -12    5      3.33      0.00
    8  -12    5     -7.86      0.00
  -14  -11    5      1.51      0.00
  -13  -11    5     -2.95      0.00
  -12  -11    5      3.04      0.00
  -11  -11    5     -3.43      0.00
  -10  -11    5      3.96      0.00
   -9  -11    5      3.11      0.00
   -8  -11    5     -1.70      0.00
   -7  -11    5     -2.36      0.00
   -6  -11    5     -1.99      0.00
   -5  -11    5      8.05      0.00
   -4  -11    5     -1.74      0.00
   -3  -11    5     -0.21      0.00
   -2  -11    5      1.73      0.00
   -1  -11    5     -7.86      0.00
    0  -11    5     -1.39      0.00
    1  -11    5      1.47      0.00
    2  -11    5     -1.98      0.00
    3  -11    5     -0.94      0.00
    4  -11    5      0.18      0.00
    5  -11    5      1.51      0.00
    6  -11    5      0.63      0.00
    7  -11    5      1.19      0.00
    8  -11    5      4.56      0.00
    9  -11    5     -9.17      0.00
  -15  -10    5      1.34      0.00
  -14  -10    5     -3.73      0.00
  -13  -10    5      0.99      0.00
  -12  -10    5      3.63      0.00
  -11  -10    5      0.60      0.00
  -10  -10    5      0.83      0.00
   -9  -10    5     -4.97      0.00
   -8  -10    5      5.73      0.00
   -7  -10    5     -2.99      0.00
   -6  -10    5      5.32      0.00
   -5  -10    5     -2.62      0.00
   -4  -10    5     -2.26      0.00
   -3  -10    5     -5.48      0.00
   -2  -10    5      3.12      0.00
   -1  -10    5     -6.88      0.00
    0  -10    5     -5.36      0.00
    1  -10    5      8.45      0.00
    2  -10    5     -8.32      0.00
    3  -10    5      2.39      0.00
    4  -10    5      2.69      0.00
    5  -10    5     -0.61      0.00
    6  -10    5     -2.19      0.00
    7  -10    5     13.12      0.00
    8  -10    5    -11.71      0.00
    9  -10    5      4.53      0.00
   10  -10    5     -1.61      0.00
  -15   -9    5      4.06      0.00
  -14   -9    5      2.08      0.00
  -13   -9    5      1.89      0.00
  -12   -9    5     -3.06      0.00
  -11   -9    5     -0.85      0.00
  -10   -9    5     -1.67      0.00
   -9   -9    5      7.50      0.00
   -8   -9    5     -0.54      0.00
   -7   -9    5     -9.72      0.00
   -6   -9    5      8.06      0.00
   -5   -9    5     -4.98      0.00
   -4   -9    5     -4.34      0.00
   -3   -9    5     -3.05      0.00
   -2   -9    5     -2.20      0.00
   -1   -9    5     -4.22      0.00
    0   -9    5     -0.41      0.00
    1   -9    5     -2.94      0.00
    2   -9    5      9.29      0.00
    3   -9    5     -7.22      0.00
    4   -9    5      4.68      0.00
    5   -9    5     -4.65      0.00
    6   -9    5      3.43      0.00
    7   -9    5      0.17      0.00
    8   -9    5     -1.98      0.00
    9   -9    5     -3.04      0.00
   10   -9    5      4.43      0.00
   11   -9    5     -7.59      0.00
  -15   -8    5      0.26      0.00
  -14   -8    5      2.57      0.00
  -13   -8    5     -0.03      0.00
  -12   -8    5      1.39      0.00
  -11   -8    5     -0.93      0.00
  -10   -8    5     -2.05      0.00
   -9   -8    5      0.69      0.00
   -8   -8    5     -5.06      0.00
   -7   -8    5      1.49      0.00
   -6   -8    5      3.47      0.00
   -5   -8    5     -6.10      0.00
   -4   -8    5    -12.85      0.00
   -3   -8    5     13.27      0.00
   -2   -8    5     -7.96      0.00
   -1   -8    5     -3.38      0.00
    0   -8    5      2.57      0.00
    1   -8    5     15.39      0.00
    2   -8    5    -15.34      0.00
    3   -8    5     14.34      0.00
    4   -8    5     -1.70      0.00
    5   -8    5     -7.35      0.00
    6   -8    5      2.60      0.00
    7   -8    5     -4.39      0.00
    8   -8    5     -5.47      0.00
    9   -8    5      5.39      0.00
   10   -8    5     -1.74      0.00
   11   -8    5     -0.79      0.00
   12   -8    5     -0.68      0.00
  -15   -7    5      7.37      0.00
  -14   -7    5      1.57      0.00
  -13   -7    5     -2.71      0.00
  -12   -7    5     -0.34      0.00
  -11   -7    5     -5.85      0.00
  -10   -7    5      9.02      0.00
   -9   -7    5     -0.91      0.00
   -8   -7    5    -12.94      0.00
   -7   -7    5      5.62      0.00
   -6   -7    5     -3.94      0.00
   -5   -7    5     -0.59      0.00
   -4   -7    5      1.49      0.00
   -3   -7    5      0.23      0.00
   -2   -7    5     -2.70      0.00
   -1   -7    5     12.75      0.00
    0   -7    5      3.78      0.00
    1   -7    5      2.49      0.00
    2   -7    5      9.87      0.00
    3   -7    5     -2.78      0.00
    4   -7    5     -2.32      0.00
    5   -7    5      3.31      0.00
    6   -7    5     -9.50      0.00
    7   -7    5     -2.50      0.00
    8   -7    5     -7.07      0.00
    9   -7    5      5.66      0.00
   10   -7    5      2.73      0.00
   11   -7    5     -3.99      0.00
   12   -7    5      1.07      0.00
   13   -7    5      7.05      0.00
  -16   -6    5      5.60      0.00
  -15   -6    5      0.20      0.00
  -14   -6    5     -2.01      0.00
  -13   -6    5      3.62      0.00
  -12   -6    5     -3.75      0.00
  -11   -6    5      5.64      0.00
  -10   -6    5     -2.63      0.00
   -9   -6    5     -4.09      0.00
   -8   -6    5     -6.04      0.00
   -7   -6    5      5.64      0.00
   -6   -6    5     -8.04      0.00
   -5   -6    5      7.96      0.00
   -4   -6    5    -11.97      0.00
   -3   -6    5     30.64      0.00
   -2   -6    5    -14.10      0.00
   -1   -6    5      4.96      0.00
    0   -6    5     29.42      0.00
    1   -6    5    -13.69      0.00
    2   -6    5      7.54      0.00
    3   -6    5      4.50      0.00
    4   -6    5     -9.06      0.00
    5   -6    5     -1.06      0.00
    6   -6    5     -1.96      0.00
    7   -6    5    -11.09      0.00
    8   -6    5      2.86      0.00
    9   -6    5      0.79      0.00
   10   -6    5     -1.08      0.00
   11   -6    5      5.06      0.00
   12   -6    5      1.52      0.00
   13   -6    5     -4.89      0.00
  -16   -5    5      3.81      0.00
  -15   -5    5      0.27      0.00
  -14   -5    5      0.92      0.00
  -13   -5    5      1.49      0.00
  -12   -5    5     -4.89      0.00
  -11   -5    5      3.51      0.00
  -10   -5    5      1.97      0.00
   -9   -5    5     -7.83      0.00
   -8   -5    5      0.93      0.00
   -7   -5    5     -5.61      0.00
   -6   -5    5     -1.14      0.00
   -5   -5    5      2.06      0.00
   -4   -5    5     23.24      0.00
   -3   -5    5    -20.50      0.00
   -2   -5    5     15.13      0.00
   -1   -5    5     30.06      0.00
    0   -5    5    -20.00      0.00
    1   -5    5     16.11      0.00
    2   -5    5     -6.28      0.00
    3   -5    5      0.04      0.00
    4   -5    5     -8.29      0.00
    5   -5    5      3.68      0.00
    6   -5    5     -8.08      0.00
    7   -5    5     -0.48      0.00
    8   -5    5     -6.25      0.00
    9   -5    5      3.41      0.00
   10   -5    5      0.94      0.00
   11   -5    5      2.58      0.00
   12   -5    5      2.54      0.00
   13   -5    5     -4.29      0.00
   14   -5    5      1.18      0.00
  -15   -4    5      1.95      0.00
  -14   -4    5      2.07      0.00
  -13   -4    5     -4.39      0.00
  -12   -4    5      3.36      0.00
  -11   -4    5     -3.22      0.00
  -10   -4    5     -4.34      0.00
   -9   -4    5      3.00      0.00
   -8   -4    5     -6.99      0.00
   -7   -4    5      4.23      0.00
   -6   -4    5     -0.89      0.00
   -5   -4    5     -2.79      0.00
   -4   -4    5     15.17      0.00
   -3   -4    5      3.75      0.00
   -2   -4    5     17.11      0.00
   -1   -4    5    -11.25      0.00
    0   -4    5     25.58      0.00
    1   -4    5    -20.54      0.00
    2   -4    5     10.54      0.00
    3   -4    5    -10.17      0.00
    4   -4    5      3.75      0.00
    5   -4    5     -9.12      0.00
    6   -4    5      2.32      0.00
    7   -4    5    -11.98      0.00
    8   -4    5      7.69      0.00
    9   -4    5     -6.61      0.00
   10   -4    5      0.75      0.00
   11   -4    5      5.13      0.00
   12   -4    5      0.78      0.00
   13   -4    5     -6.48      0.00
   14   -4    5      3.92      0.00
   15   -4    5      0.75      0.00
  -15   -3    5      0.83      0.00
  -14   -3    5     -2.13      0.00
  -13   -3    5     -1.83      0.00
  -12   -3    5     -3.21      0.00
  -11   -3    5     -3.50      0.00
  -10   -3    5      1.03      0.00
   -9   -3    5     -2.23      0.00
   -8   -3    5      3.73      0.00
   -7   -3    5      1.19      0.00
   -6   -3    5     -7.33      0.00
   -5   -3    5     17.99      0.00
   -4   -3    5      2.51      0.00
   -3   -3    5      1.91      0.00
   -2   -3    5      8.08      0.00
   -1   -3    5     20.23      0.00
    0   -3    5     -8.66      0.00
    1   -3    5      5.66      0.00
    2   -3    5    -26.35      0.00
    3   -3    5     22.16      0.00
    4   -3    5     -6.78      0.00
    5   -3    5     -5.11      0.00
    6   -3    5     -1.89      0.00
    7   -3    5     -4.04      0.00
    8   -3    5     -7.33      0.00
    9   -3    5     -3.17      0.00
   10   -3    5      8.14      0.00
   11   -3    5     -5.03      0.00
   12   -3    5      2.33      0.00
   13   -3    5     -4.65      0.00
   14   -3    5      4.97      0.00
   15   -3    5     -4.16      0.00
  -15   -2    5     -0.16      0.00
  -14   -2    5     -0.04      0.00
  -13   -2    5     -4.64      0.00
  -12   -2    5     -5.27      0.00
  -11   -2    5     -5.65      0.00
  -10   -2    5      9.27      0.00
   -9   -2    5     -1.58      0.00
   -8   -2    5      4.96      0.00
   -7   -2    5     -5.52      0.00
   -6   -2    5     13.04      0.00
   -5   -2    5     -4.46      0.00
   -4   -2    5     11.32      0.00
   -3   -2    5      9.19      0.00
   -2   -2    5      1.12      0.00
   -1   -2    5      8.00      0.00
    0   -2    5      2.86      0.00
    1   -2    5    -16.25      0.00
    2   -2    5     10.76      0.00
    3   -2    5    -17.18      0.00
    4   -2    5     31.53      0.00
    5   -2    5    -19.62      0.00
    6   -2    5     -4.92      0.00
    7   -2    5     -2.67      0.00
    8   -2    5     -7.83      0.00
    9   -2    5      1.50      0.00
   10   -2    5     -2.10      0.00
   11   -2    5     -1.35      0.00
   12   -2    5      1.19      0.00
   13   -2    5      1.20      0.00
   14   -2    5     -5.36      0.00
   15   -2    5      3.00      0.00
   16   -2    5     -3.58      0.00
  -15   -1    5     -2.04      0.00
  -14   -1    5     -4.12      0.00
  -13   -1    5     -2.90      0.00
  -12   -1    5     -6.26      0.00
  -11   -1    5      5.98      0.00
  -10   -1    5     -2.63      0.00
   -9   -1    5     12.97      0.00
   -8   -1    5    -11.34      0.00
   -7   -1    5      9.27      0.00
   -6   -1    5      6.97      0.00
   -5   -1    5     -3.00      0.00
   -4   -1    5     10.09      0.00
   -3   -1    5      4.87      0.00
   -2   -1    5    -21.83      0.00
   -1   -1    5     15.27      0.00
    0   -1    5     34.54      0.00
    1   -1    5    -47.48      0.00
    2   -1    5     -3.26      0.00
    3   -1    5     29.74      0.00
    4   -1    5      3.77      0.00
    5   -1    5    -15.59      0.00
    6   -1    5     17.41      0.00
    7   -1    5    -23.09      0.00
    8   -1    5     -2.67      0.00
    9   -1    5     -1.66      0.00
   10   -1    5      5.23      0.00
   11   -1    5     -6.17      0.00
   12   -1    5      3.56      0.00
   13   -1    5     -4.59      0.00
   14   -1    5      2.94      0.00
   15   -1    5     -5.01      0.00
   16   -1    5      1.42      0.00
  -15    0    5      1.21      0.00
  -14    0    5     -2.62      0.00
  -13    0    5     -3.85      0.00
  -12    0    5     -2.06      0.00
  -11    0    5      0.43      0.00
  -10    0    5     14.40      0.00
   -9    0    5     -9.33      0.00
   -8    0    5     10.79      0.00
   -7    0    5     -6.73      0.00
   -6    0    5      4.66      0.00
   -5    0    5      2.95      0.00
   -4    0    5     12.18      0.00
   -3    0    5    -24.64      0.00
   -2    0    5     10.94      0.00
   -1    0    5     -1.23      0.00
    0    0    5      0.83      0.00
    1    0    5      2.60      0.00
    2    0    5     -1.61      0.00
    3    0    5      3.16      0.00
    4    0    5     10.16      0.00
    5    0    5     10.97      0.00
    6    0    5     -6.80      0.00
    7    0    5    -13.80      0.00
    8    0    5     -0.02      0.00
    9    0    5      1.28      0.00
   10    0    5      1.93      0.00
   11    0    5     -4.21      0.00
   12    0    5      1.52      0.00
   13    0    5      0.05      0.00
   14    0    5     -5.24      0.00
   15    0    5      2.29      0.00
   16    0    5     -7.17      0.00
   17    0    5      9.03      0.00
  -14    1    5     -4.57      0.00
  -13    1    5      2.48      0.00
  -12    1    5      0.36      0.00
  -11    1    5      3.18      0.00
  -10    1    5      2.81      0.00
   -9    1    5      3.78      0.00
   -8    1    5     -6.82      0.00
   -7    1    5     10.73      0.00
   -6    1    5     -1.80      0.00
   -5    1    5      0.82      0.00
   -4    1    5      4.15      0.00
   -3    1    5      0.77      0.00
   -2    1    5    -39.05      0.00
   -1    1    5     17.27      0.00
    0    1    5     58.42      0.00
    1    1    5    -81.15      0.00
    2    1    5     47.33      0.00
    3    1    5     -5.58      0.00
    4    1    5      2.62      0.00
    5    1    5     13.14      0.00
    6    1    5     -4.16      0.00
    7    1    5     -7.50      0.00
    8    1    5      1.96      0.00
    9    1    5      0.87      0.00
   10    1    5     -2.77      0.00
   11    1    5      4.73      0.00
   12    1    5     -6.88      0.00
   13    1    5      0.69      0.00
   14    1    5     -0.01      0.00
   15    1    5     -7.96      0.00
   16    1    5      4.11      0.00
   17    1    5      2.70      0.00
  -14    2    5      3.11      0.00
  -13    2    5     -3.16      0.00
  -12    2    5      1.50      0.00
  -11    2    5      5.37      0.00
  -10    2    5     -0.79      0.00
   -9    2    5     -0.05      0.00
   -8    2    5     10.51      0.00
   -7    2    5    -10.90      0.00
   -6    2    5      1.96      0.00
   -5    2    5     12.86      0.00
   -4    2    5      0.62      0.00
   -3    2    5    -26.30      0.00
   -2    2    5     15.73      0.00
   -1    2    5     -2.34      0.00
    0    2    5    -24.21      0.00
    1    2    5     41.31      0.00
    2    2    5    -24.39      0.00
    3    2    5      9.80      0.00
    4    2    5    -13.90      0.00
    5    2    5     33.58      0.00
    6    2    5     -7.38      0.00
    7    2    5     -6.06      0.00
    8    2    5     -3.65      0.00
    9    2    5     12.30      0.00
   10    2    5     -6.34      0.00
   11    2    5      3.02      0.00
   12    2    5     -6.08      0.00
   13    2    5     -2.53      0.00
   14    2    5     -2.48      0.00
   15    2    5      1.70      0.00
   16    2    5     -2.26      0.00
   17    2    5      5.01      0.00
   18    2    5      2.53      0.00
  -14    3    5     -2.01      0.00
  -13    3    5     -0.25      0.00
  -12    3    5      5.62      0.00
  -11    3    5     -3.22      0.00
  -10    3    5      0.32      0.00
   -9    3    5      1.28      0.00
   -8    3    5     -2.28      0.00
   -7    3    5      9.10      0.00
   -6    3    5     -4.80      0.00
   -5    3    5     -2.95      0.00
   -4    3    5     15.92      0.00
   -3    3    5    -14.20      0.00
   -2    3    5    -13.12      0.00
   -1    3    5     -0.36      0.00
    0    3    5     10.06      0.00
    1    3    5     -7.08      0.00
    2    3    5      0.06      0.00
    3    3    5     -7.89      0.00
    4    3    5     17.85      0.00
    5    3    5      8.93      0.00
    6    3    5    -11.06      0.00
    7    3    5      9.58      0.00
    8    3    5      5.97      0.00
    9    3    5     -4.55      0.00
   10    3    5     -4.83      0.00
   11    3    5      8.80      0.00
   12    3    5    -15.76      0.00
   13    3    5      9.79      0.00
   14    3    5     -4.97      0.00
   15    3    5     -4.30      0.00
   16    3    5      1.66      0.00
   17    3    5      4.04      0.00
   18    3    5      2.93      0.00
  -13    4    5     -2.91      0.00
  -12    4    5      0.27      0.00
  -11    4    5      1.99      0.00
  -10    4    5     -5.85      0.00
   -9    4    5      6.71      0.00
   -8    4    5     -4.11      0.00
   -7    4    5     -5.10      0.00
   -6    4    5     -2.03      0.00
   -5    4    5     25.16      0.00
   -4    4    5    -21.22      0.00
   -3    4    5      4.86      0.00
   -2    4    5      3.19      0.00
   -1    4    5    -19.37      0.00
    0    4    5     -3.80      0.00
    1    4    5     13.88      0.00
    2    4    5    -10.39      0.00
    3    4    5     15.29      0.00
    4    4    5    -20.00      0.00
    5    4    5     31.64      0.00
    6    4    5      0.20      0.00
    7    4    5     -2.42      0.00
    8    4    5     -9.10      0.00
    9    4    5      8.43      0.00
   10    4    5      5.24      0.00
   11    4    5     -9.24      0.00
   12    4    5     -1.57      0.00
   13    4    5      0.71      0.00
   14    4    5     -2.55      0.00
   15    4    5      1.38      0.00
   16    4    5     -1.64      0.00
   17    4    5     -0.79      0.00
   18    4    5     -0.11      0.00
  -13    5    5      2.37      0.00
  -12    5    5     -1.65      0.00
  -11    5    5     -5.31      0.00
  -10    5    5      3.44      0.00
   -9    5    5     -8.46      0.00
   -8    5    5      4.26      0.00
   -7    5    5     -0.23      0.00
   -6    5    5      7.09      0.00
   -5    5    5     -8.58      0.00
   -4    5    5     12.73      0.00
   -3    5    5     11.04      0.00
   -2    5    5    -26.10      0.00
   -1    5    5     10.60      0.00
    0    5    5    -21.95      0.00
    1    5    5     24.36      0.00
    2    5    5    -12.06      0.00
    3    5    5     -8.52      0.00
    4    5    5     32.29      0.00
    5    5    5    -16.01      0.00
    6    5    5      2.19      0.00
    7    5    5     13.48      0.00
    8    5    5    -10.84      0.00
    9    5    5      3.97      0.00
   10    5    5     -4.99      0.00
   11    5    5     -3.26      0.00
   12    5    5      4.64      0.00
   13    5    5      2.99      0.00
   14    5    5     -5.24      0.00
   15    5    5     -3.78      0.00
   16    5    5      0.99      0.00
   17    5    5     -2.37      0.00
   18    5    5      2.55      0.00
  -12    6    5     -4.41      0.00
  -11    6    5      0.30      0.00
  -10    6    5     -3.86      0.00
   -9    6    5      5.82      0.00
   -8    6    5     -7.34      0.00
   -7    6    5      4.50      0.00
   -6    6    5      2.64      0.00
   -5    6    5     10.73      0.00
   -4    6    5      2.03      0.00
   -3    6    5      0.76      0.00
   -2    6    5     -5.90      0.00
   -1    6    5     -1.42      0.00
    0    6    5     -0.37      0.00
    1    6    5    -23.11      0.00
    2    6    5     29.04      0.00
    3    6    5    -10.60      0.00
    4    6    5     -3.55      0.00
    5    6    5      0.89      0.00
    6    6    5     22.22      0.00
    7    6    5    -17.91      0.00
    8    6    5    -11.98      0.00
    9    6    5     17.23      0.00
   10    6    5     -4.79      0.00
   11    6    5     -3.52      0.00
   12    6    5      3.68      0.00
   13    6    5      3.04      0.00
   14    6    5     -4.77      0.00
   15    6    5      0.89      0.00
   16    6    5     -4.32      0.00
   17    6    5     -0.90      0.00
   18    6    5     -1.88      0.00
   19    6    5     -0.02      0.00
  -11    7    5     -2.92      0.00
  -10    7    5      1.96      0.00
   -9    7    5     -4.63      0.00
   -8    7    5      7.24      0.00
   -7    7    5      6.12      0.00
   -6    7    5     -2.72      0.00
   -5    7    5      1.95      0.00
   -4    7    5      7.63      0.00
   -3    7    5      1.30      0.00
   -2    7    5     -0.92      0.00
   -1    7    5     -8.35      0.00
    0    7    5    -15.09      0.00
    1    7    5     16.49      0.00
    2    7    5     -8.07      0.00
    3    7    5     -0.75      0.00
    4    7    5     -4.20      0.00
    5    7    5      6.83      0.00
    6    7    5     -3.09      0.00
    7    7    5     -7.97      0.00
    8    7    5     12.20      0.00
    9    7    5     -5.85      0.00
   10    7    5      1.97      0.00
   11    7    5     -3.60      0.00
   12    7    5     14.11      0.00
   13    7    5     -1.83      0.00
   14    7    5     -5.50      0.00
   15    7    5     -5.05      0.00
   16    7    5      1.73      0.00
   17    7    5     -2.41      0.00
   18    7    5     -0.73      0.00
   19    7    5     -3.27      0.00
  -11    8    5     -5.06      0.00
  -10    8    5      2.29      0.00
   -9    8    5      1.29      0.00
   -8    8    5      0.95      0.00
   -7    8    5      0.77      0.00
   -6    8    5     -1.36      0.00
   -5    8    5     10.87      0.00
   -4    8    5     -3.02      0.00
   -3    8    5     -5.33      0.00
   -2    8    5      2.11      0.00
   -1    8    5      0.69      0.00
    0    8    5     -2.49      0.00
    1    8    5    -24.17      0.00
    2    8    5     34.13      0.00
    3    8    5    -21.99      0.00
    4    8    5     -1.74      0.00
    5    8    5      9.46      0.00
    6    8    5     -5.72      0.00
    7    8    5     -5.52      0.00
    8    8    5      9.35      0.00
    9    8    5      3.12      0.00
   10    8    5      2.55      0.00
   11    8    5      3.42      0.00
   12    8    5      4.05      0.00
   13    8    5     -2.87      0.00
   14    8    5     -1.49      0.00
   15    8    5     -4.58      0.00
   16    8    5     -0.35      0.00
   17    8    5     -2.75      0.00
   18    8    5     -1.51      0.00
   19    8    5     -4.32      0.00
  -10    9    5     -0.17      0.00
   -9    9    5      0.09      0.00
   -8    9    5      0.41      0.00
   -7    9    5      1.44      0.00
   -6    9    5      2.52      0.00
   -5    9    5     -0.69      0.00
   -4    9    5     -5.79      0.00
   -3    9    5      5.83      0.00
   -2    9    5      7.42      0.00
   -1    9    5    -16.27      0.00
    0    9    5     -2.17      0.00
    1    9    5     12.50      0.00
    2    9    5     -3.64      0.00
    3    9    5     -4.17      0.00
    4    9    5     -0.73      0.00
    5    9    5      6.67      0.00
    6    9    5    -10.31      0.00
    7    9    5      0.73      0.00
    8    9    5     18.40      0.00
    9    9    5     -5.84      0.00
   10    9    5      0.23      0.00
   11    9    5     11.56      0.00
   12    9    5     -1.58      0.00
   13    9    5      0.82      0.00
   14    9    5     -8.26      0.00
   15    9    5     -1.69      0.00
   16    9    5      0.76      0.00
   17    9    5      0.59      0.00
   18    9    5     -7.51      0.00
   19    9    5      0.52      0.00
   -9   10    5      1.00      0.00
   -8   10    5     -0.32      0.00
   -7   10    5     -1.23      0.00
   -6   10    5      2.10      0.00
   -5   10    5      1.53      0.00
   -4   10    5     -0.33      0.00
   -3   10    5     -5.23      0.00
   -2   10    5      6.88      0.00
   -1   10    5      1.38      0.00
    0   10    5    -11.77      0.00
    1   10    5     11.58      0.00
    2   10    5     -3.82      0.00
    3   10    5      3.54      0.00
    4   10    5      3.47      0.00
    5   10    5     -5.19      0.00
    6   10    5     -3.10      0.00
    7   10    5      2.46      0.00
    8   10    5      7.06      0.00
    9   10    5     -4.95      0.00
   10   10    5      8.65      0.00
   11   10    5      3.07      0.00
   12   10    5     -3.96      0.00
   13   10    5      1.04      0.00
   14   10    5     -3.78      0.00
   15   10    5      0.78      0.00
   16   10    5     -3.83      0.00
   17   10    5     -0.20      0.00
   18   10    5      0.17      0.00
   19   10    5     -2.38      0.00
   -8   11    5     -2.30      0.00
   -7   11    5      2.26      0.00
   -6   11    5      5.92      0.00
   -5   11    5     -4.52      0.00
   -4   11    5     -3.11      0.00
   -3   11    5      5.64      0.00
   -2   11    5      5.38      0.00
   -1   11    5    -15.53      0.00
    0   11    5     14.68      0.00
    1   11    5     -5.46      0.00
    2   11    5      7.01      0.00
    3   11    5     -3.11      0.00
    4   11    5      4.81      0.00
    5   11    5      0.08      0.00
    6   11    5    -11.06      0.00
    7   11    5      1.07      0.00
    8   11    5      4.48      0.00
    9   11    5     -3.13      0.00
   10   11    5     -2.13      0.00
   11   11    5      4.37      0.00
   12   11    5     -0.74      0.00
   13   11    5     -0.14      0.00
   14   11    5     -0.88      0.00
   15   11    5     -1.95      0.00
   16   11    5     -0.82      0.00
   17   11    5      1.46      0.00
   18   11    5     -1.79      0.00
   19   11    5      0.46      0.00
   -7   12    5      0.79      0.00
   -6   12    5      0.46      0.00
   -5   12    5      1.13      0.00
   -4   12    5      1.45      0.00
   -3   12    5      0.55      0.00
   -2   12    5     -0.59      0.00
   -1   12    5      6.44      0.00
    0   12    5     -5.30      0.00
    1   12    5      5.62      0.00
    2   12    5     -4.04      0.00
    3   12    5      8.94      0.00
    4   12    5      7.39      0.00
    5   12    5    -13.23      0.00
    6   12    5     -8.36      0.00
    7   12    5      5.56      0.00
    8   12    5    -10.62      0.00
    9   12    5      1.72      0.00
   10   12    5      0.01      0.00
   11   12    5     -4.13      0.00
   12   12    5      2.65      0.00
   13   12    5      2.36      0.00
   14   12    5     -0.94      0.00
   15   12    5     -0.17      0.00
   16   12    5     -3.96      0.00
   17   12    5      4.34      0.00
   18   12    5     -0.72      0.00
   -6   13    5      1.95      0.00
   -5   13    5     -0.30      0.00
   -4   13    5      0.85      0.00
   -3   13    5      4.95      0.00
   -2   13    5     -4.93      0.00
   -1   13    5      9.85      0.00
    0   13    5     -2.45      0.00
    1   13    5      0.16      0.00
    2   13    5      6.13      0.00
    3   13    5      1.43      0.00
    4   13    5      3.23      0.00
    5   13    5     -4.24      0.00
    6   13    5    -14.18      0.00
    7   13    5     -2.60      0.00
    8   13    5      1.17      0.00
    9   13    5     -0.59      0.00
   10   13    5     -8.59      0.00
   11   13    5      4.08      0.00
   12   13    5      0.05      0.00
   13   13    5      3.96      0.00
   14   13    5     -1.91      0.00
   15   13    5     -0.07      0.00
   16   13    5      1.55      0.00
   17   13    5     -5.47      0.00
   18   13    5      2.81      0.00
   -5   14    5      1.65      0.00
   -4   14    5      2.28      0.00
   -3   14    5     -0.59      0.00
   -2   14    5      4.88      0.00
   -1   14    5      0.74      0.00
    0   14    5      3.51      0.00
    1   14    5     -1.72      0.00
    2   14    5      1.43      0.00
    3   14    5      8.67      0.00
    4   14    5     -1.43      0.00
    5   14    5     -5.21      0.00
    6   14    5    -12.90      0.00
    7   14    5      1.98      0.00
    8   14    5     -3.93      0.00
    9   14    5      2.97      0.00
   10   14    5     -2.02      0.00
   11   14    5      0.08      0.00
   12   14    5      2.94      0.00
   13   14    5      0.35      0.00
   14   14    5      0.13      0.00
   15   14    5     -2.89      0.00
   16   14    5     -2.96      0.00
   17   14    5      1.51      0.00
   18   14    5     -2.93      0.00
   -4   15    5     -2.84      0.00
   -3   15    5      1.14      0.00
   -2   15    5      3.30      0.00
   -1   15    5      1.88      0.00
    0   15    5      0.53      0.00
    1   15    5     -6.61      0.00
    2   15    5     11.82      0.00
    3   15    5      0.88      0.00
    4   15    5     -2.33      0.00
    5   15    5     -6.25      0.00
    6   15    5     -4.87      0.00
    7   15    5     -2.55      0.00
    8   15    5      6.03      0.00
    9   15    5     -1.70      0.00
   10   15    5      0.23      0.00
   11   15    5      5.02      0.00
   12   15    5     -2.55      0.00
   13   15    5     -1.58      0.00
   14   15    5     -1.41      0.00
   15   15    5     -1.10      0.00
   16   15    5     -3.61      0.00
   17   15    5     -1.68      0.00
   -3   16    5     -1.20      0.00
   -2   16    5      4.76      0.00
   -1   16    5     -3.83      0.00
    0   16    5     -0.52      0.00
    1   16    5      0.07      0.00
    2   16    5      1.05      0.00
    3   16    5      2.60      0.00
    4   16    5     -1.98      0.00
    5   16    5     -0.29      0.00
    6   16    5     -4.78      0.00
    7   16    5     -0.23      0.00
    8   16    5      2.41      0.00
    9   16    5      0.63      0.00
   10   16    5      3.84      0.00
   11   16    5      2.54      0.00
   12   16    5     -3.92      0.00
   13   16    5     -1.97      0.00
   14   16    5     -2.98      0.00
   15   16    5     -6.23      0.00
   16   16    5      0.74      0.00
   -1   17    5      1.73      0.00
    0   17    5     -5.33      0.00
    1   17    5      1.23      0.00
    2   17    5     -3.08      0.00
    3   17    5      4.74      0.00
    4   17    5      1.07      0.00
    5   17    5     -6.27      0.00
    6   17    5      0.95      0.00
    7   17    5      2.70      0.00
    8   17    5      0.22      0.00
    9   17    5      3.10      0.00
   10   17    5      0.33      0.00
   11   17    5     -1.22      0.00
   12   17    5     -0.99      0.00
   13   17    5     -5.24      0.00
   14   17    5     -2.57      0.00
   15   17    5     -5.15      0.00
   16   17    5     -0.27      0.00
    1   18    5     -3.29      0.00
    2   18    5     -5.55      0.00
    3   18    5      2.06      0.00
    4   18    5      2.60      0.00
    5   18    5      0.62      0.00
    6   18    5     -0.28      0.00
    7   18    5      4.39      0.00
    8   18    5     -3.87      0.00
    9   18    5      1.64      0.00
   10   18    5     -2.22      0.00
   11   18    5      3.06      0.00
   12   18    5     -8.37      0.00
   13   18    5      0.19      0.00
   14   18    5     -5.75      0.00
    3   19    5      4.49      0.00
    4   19    5      2.50      0.00
    5   19    5     -2.25      0.00
    6   19    5      3.53      0.00
    7   19    5     -0.30      0.00
    8   19    5      0.39      0.00
    9   19    5      0.48      0.00
   10   19    5     -6.19      0.00
   11   19    5     -4.41      0.00
   12   19    5      1.22      0.00
   13   19    5     -3.41      0.00
   -8  -16    6     -3.68      0.00
   -7  -16    6     -3.67      0.00
   -6  -16    6     -7.11      0.00
   -5  -16    6     -1.33      0.00
   -4  -16    6      8.47      0.00
   -3  -16    6     -7.51      0.00
   -2  -16    6      3.30      0.00
   -1  -16    6      1.95      0.00
  -10  -15    6      1.00      0.00
   -9  -15    6     -7.09      0.00
   -8  -15    6     -0.60      0.00
   -7  -15    6     -3.15      0.00
   -6  -15    6      1.49      0.00
   -5  -15    6     -2.29      0.00
   -4  -15    6     -1.15      0.00
   -3  -15    6      3.05      0.00
   -2  -15    6     -0.08      0.00
   -1  -15    6      2.03      0.00
    0  -15    6     -2.26      0.00
    1  -15    6     -3.96      0.00
    2  -15    6      8.68      0.00
  -12  -14    6      5.44      0.00
  -11  -14    6     -7.35      0.00
  -10  -14    6      8.23      0.00
   -9  -14    6     -3.52      0.00
   -8  -14    6     -2.02      0.00
   -7  -14    6      0.52      0.00
   -6  -14    6      0.33      0.00
   -5  -14    6     -1.09      0.00
   -4  -14    6     -0.16      0.00
   -3  -14    6     -1.86      0.00
   -2  -14    6      2.36      0.00
   -1  -14    6     -4.69      0.00
    0  -14    6      3.28      0.00
    1  -14    6      0.39      0.00
    2  -14    6     -0.29      0.00
    3  -14    6      0.86      0.00
    4  -14    6      6.51      0.00
  -12  -13    6      0.30      0.00
  -11  -13    6      1.33      0.00
  -10  -13    6      1.55      0.00
   -9  -13    6     -0.77      0.00
   -8  -13    6     -2.64      0.00
   -7  -13    6      2.48      0.00
   -6  -13    6      2.66      0.00
   -5  -13    6     -8.90      0.00
   -4  -13    6      2.72      0.00
   -3  -13    6     -2.20      0.00
   -2  -13    6     -5.39      0.00
   -1  -13    6      2.44      0.00
    0  -13    6     -0.28      0.00
    1  -13    6     -0.11      0.00
    2  -13    6      4.07      0.00
    3  -13    6      3.47      0.00
    4  -13    6     -1.68      0.00
    5  -13    6     10.60      0.00
    6  -13    6      0.98      0.00
  -13  -12    6      0.57      0.00
  -12  -12    6     -1.47      0.00
  -11  -12    6     -6.40      0.00
  -10  -12    6      0.13      0.00
   -9  -12    6      4.94      0.00
   -8  -12    6     -0.89      0.00
   -7  -12    6      0.07      0.00
   -6  -12    6     -7.81      0.00
   -5  -12    6      1.26      0.00
   -4  -12    6     -4.08      0.00
   -3  -12    6     -5.19      0.00
   -2  -12    6      5.67      0.00
   -1  -12    6     -6.91      0.00
    0  -12    6      1.46      0.00
    1  -12    6      3.64      0.00
    2  -12    6      0.52      0.00
    3  -12    6      0.62      0.00
    4  -12    6      4.67      0.00
    5  -12    6      4.40      0.00
    6  -12    6      0.06      0.00
    7  -12    6     -6.01      0.00
  -14  -11    6     -1.01      0.00
  -13  -11    6     -1.80      0.00
  -12  -11    6     -3.71      0.00
  -11  -11    6      0.30      0.00
  -10  -11    6     -2.06      0.00
   -9  -11    6     -2.23      0.00
   -8  -11    6      1.37      0.00
   -7  -11    6     -4.96      0.00
   -6  -11    6     -0.13      0.00
   -5  -11    6     -2.62      0.00
   -4  -11    6      0.27      0.00
   -3  -11    6     -4.10      0.00
   -2  -11    6      0.36      0.00
   -1  -11    6      3.11      0.00
    0  -11    6     -6.13      0.00
    1  -11    6      7.05      0.00
    2  -11    6     -2.92      0.00
    3  -11    6      2.90      0.00
    4  -11    6     -1.10      0.00
    5  -11    6      7.71      0.00
    6  -11    6    -13.90      0.00
    7  -11    6      7.38      0.00
    8  -11    6     -5.18      0.00
  -14  -10    6     -1.45      0.00
  -13  -10    6      3.53      0.00
  -12  -10    6     -1.18      0.00
  -11  -10    6     -6.84      0.00
  -10  -10    6     -6.67      0.00
   -9  -10    6      2.65      0.00
   -8  -10    6      6.43      0.00
   -7  -10    6     -8.75      0.00
   -6  -10    6     -1.15      0.00
   -5  -10    6      4.20      0.00
   -4  -10    6      1.21      0.00
   -3  -10    6     -1.90      0.00
   -2  -10    6      6.61      0.00
   -1  -10    6     -6.10      0.00
    0  -10    6      3.52      0.00
    1  -10    6     -3.86      0.00
    2  -10    6      6.70      0.00
    3  -10    6     -4.03      0.00
    4  -10    6      4.51      0.00
    5  -10    6     -5.46      0.00
    6  -10    6     -1.74      0.00
    7  -10    6      2.12      0.00
    8  -10    6     -0.24      0.00
    9  -10    6     -3.09      0.00
   10  -10    6      5.22      0.00
  -15   -9    6     -0.98      0.00
  -14   -9    6     -2.20      0.00
  -13   -9    6      0.23      0.00
  -12   -9    6      0.95      0.00
  -11   -9    6     -1.34      0.00
  -10   -9    6     -3.98      0.00
   -9   -9    6     -1.93      0.00
   -8   -9    6      0.62      0.00
   -7   -9    6     -3.22      0.00
   -6   -9    6      9.64      0.00
   -5   -9    6      3.24      0.00
   -4   -9    6     -1.29      0.00
   -3   -9    6      5.59      0.00
   -2   -9    6     -0.01      0.00
   -1   -9    6      3.83      0.00
    0   -9    6    -11.53      0.00
    1   -9    6     13.04      0.00
    2   -9    6     -6.36      0.00
    3   -9    6     -1.93      0.00
    4   -9    6      3.67      0.00
    5   -9    6     -2.90      0.00
    6   -9    6     -1.10      0.00
    7   -9    6      8.26      0.00
    8   -9    6     -4.74      0.00
    9   -9    6      3.74      0.00
   10   -9    6      3.73      0.00
   11   -9    6     -7.60      0.00
  -15   -8    6     -4.46      0.00
  -14   -8    6      2.69      0.00
  -13   -8    6      3.42      0.00
  -12   -8    6     -0.56      0.00
  -11   -8    6     -6.52      0.00
  -10   -8    6     -2.48      0.00
   -9   -8    6      7.06      0.00
   -8   -8    6     -2.38      0.00
   -7   -8    6      0.11      0.00
   -6   -8    6      3.86      0.00
   -5   -8    6      7.78      0.00
   -4   -8    6      2.98      0.00
   -3   -8    6      8.12      0.00
   -2   -8    6    -10.09      0.00
   -1   -8    6      1.46      0.00
    0   -8    6      3.04      0.00
    1   -8    6     -9.60      0.00
    2   -8    6      1.41      0.00
    3   -8    6     -1.09      0.00
    4   -8    6     -4.11      0.00
    5   -8    6      2.28      0.00
    6   -8    6      7.20      0.00
    7   -8    6      4.18      0.00
    8   -8    6     -1.96      0.00
    9   -8    6      4.15      0.00
   10   -8    6      1.04      0.00
   11   -8    6     -2.81      0.00
   12   -8    6     -7.10      0.00
  -15   -7    6      0.55      0.00
  -14   -7    6     -4.07      0.00
  -13   -7    6      0.99      0.00
  -12   -7    6      0.47      0.00
  -11   -7    6     -0.89      0.00
  -10   -7    6      3.10      0.00
   -9   -7    6     -0.66      0.00
   -8   -7    6     -5.41      0.00
   -7   -7    6     10.37      0.00
   -6   -7    6     -2.60      0.00
   -5   -7    6     15.44      0.00
   -4   -7    6     -6.85      0.00
   -3   -7    6      5.62      0.00
   -2   -7    6      2.59      0.00
   -1   -7    6    -17.86      0.00
    0   -7    6      3.09      0.00
    1   -7    6     -5.29      0.00
    2   -7    6     -7.32      0.00
    3   -7    6     -2.33      0.00
    4   -7    6      3.23      0.00
    5   -7    6      0.19      0.00
    6   -7    6     11.69      0.00
    7   -7    6     -2.06      0.00
    8   -7    6      3.75      0.00
    9   -7    6      3.68      0.00
   10   -7    6     -1.78      0.00
   11   -7    6     -3.99      0.00
   12   -7    6     -0.15      0.00
  -15   -6    6     -1.98      0.00
  -14   -6    6     -0.04      0.00
  -13   -6    6      2.10      0.00
  -12   -6    6     -3.89      0.00
  -11   -6    6     -1.24      0.00
  -10   -6    6      5.42      0.00
   -9   -6    6      2.70      0.00
   -8   -6    6     -0.08      0.00
   -7   -6    6      3.32      0.00
   -6   -6    6     -1.02      0.00
   -5   -6    6      5.57      0.00
   -4   -6    6     12.17      0.00
   -3   -6    6     -4.56      0.00
   -2   -6    6    -21.94      0.00
   -1   -6    6     13.99      0.00
    0   -6    6    -14.28      0.00
    1   -6    6     -8.44      0.00
    2   -6    6     -0.98      0.00
    3   -6    6      1.28      0.00
    4   -6    6     -8.23      0.00
    5   -6    6     17.81      0.00
    6   -6    6     -2.65      0.00
    7   -6    6      4.99      0.00
    8   -6    6      1.31      0.00
    9   -6    6     -0.34      0.00
   10   -6    6     -0.64      0.00
   11   -6    6      0.41      0.00
   12   -6    6     -4.91      0.00
   13   -6    6      1.44      0.00
  -15   -5    6     -3.52      0.00
  -14   -5    6      2.22      0.00
  -13   -5    6     -2.55      0.00
  -12   -5    6     -0.49      0.00
  -11   -5    6      6.94      0.00
  -10   -5    6     -1.96      0.00
   -9   -5    6      3.45      0.00
   -8   -5    6      5.50      0.00
   -7   -5    6     -1.43      0.00
   -6   -5    6      7.17      0.00
   -5   -5    6      0.11      0.00
   -4   -5    6      1.46      0.00
   -3   -5    6     -6.75      0.00
   -2   -5    6     12.11      0.00
   -1   -5    6    -25.98      0.00
    0   -5    6      8.03      0.00
    1   -5    6     -9.97      0.00
    2   -5    6     -0.20      0.00
    3   -5    6      0.51      0.00
    4   -5    6      5.39      0.00
    5   -5    6     -2.48      0.00
    6   -5    6      7.97      0.00
    7   -5    6     -0.99      0.00
    8   -5    6      3.03      0.00
    9   -5    6      2.15      0.00
   10   -5    6     -8.44      0.00
   11   -5    6      4.43      0.00
   12   -5    6      5.32      0.00
   13   -5    6    -11.58      0.00
   14   -5    6      2.83      0.00
  -15   -4    6      2.26      0.00
  -14   -4    6      1.38      0.00
  -13   -4    6     -0.72      0.00
  -12   -4    6      3.95      0.00
  -11   -4    6     -2.07      0.00
  -10   -4    6      6.08      0.00
   -9   -4    6      2.80      0.00
   -8   -4    6      0.69      0.00
   -7   -4    6      9.22      0.00
   -6   -4    6     -7.96      0.00
   -5   -4    6      3.18      0.00
   -4   -4    6     11.27      0.00
   -3   -4    6    -13.41      0.00
   -2   -4    6     -7.83      0.00
   -1   -4    6     16.79      0.00
    0   -4    6    -19.42      0.00
    1   -4    6     15.88      0.00
    2   -4    6    -15.12      0.00
    3   -4    6      4.53      0.00
    4   -4    6      3.78      0.00
    5   -4    6     -0.55      0.00
    6   -4    6      3.39      0.00
    7   -4    6      3.17      0.00
    8   -4    6      4.17      0.00
    9   -4    6     -9.04      0.00
   10   -4    6      7.37      0.00
   11   -4    6     -1.47      0.00
   12   -4    6      0.70      0.00
   13   -4    6     -3.61      0.00
   14   -4    6      1.99      0.00
   15   -4    6     -4.53      0.00
  -15   -3    6     -1.60      0.00
  -14   -3    6      6.83      0.00
  -13   -3    6     -0.43      0.00
  -12   -3    6      5.36      0.00
  -11   -3    6     -3.89      0.00
  -10   -3    6      2.95      0.00
   -9   -3    6      1.81      0.00
   -8   -3    6      5.66      0.00
   -7   -3    6     -4.45      0.00
   -6   -3    6      5.42      0.00
   -5   -3    6     -3.40      0.00
   -4   -3    6     -9.47      0.00
   -3   -3    6      9.94      0.00
   -2   -3    6      2.23      0.00
   -1   -3    6    -11.46      0.00
    0   -3    6     18.35      0.00
    1   -3    6     -8.02      0.00
    2   -3    6      0.47      0.00
    3   -3    6     -6.55      0.00
    4   -3    6      9.56      0.00
    5   -3    6     -1.75      0.00
    6   -3    6      0.37      0.00
    7   -3    6      5.00      0.00
    8   -3    6      0.14      0.00
    9   -3    6      4.14      0.00
   10   -3    6     -1.03      0.00
   11   -3    6     -1.12      0.00
   12   -3    6      1.55      0.00
   13   -3    6      1.21      0.00
   14   -3    6     -2.32      0.00
   15   -3    6     -3.82      0.00
  -15   -2    6      1.53      0.00
  -14   -2    6      2.94      0.00
  -13   -2    6      4.03      0.00
  -12   -2    6     -3.59      0.00
  -11   -2    6      3.01      0.00
  -10   -2    6     -2.30      0.00
   -9   -2    6      2.33      0.00
   -8   -2    6     -3.71      0.00
   -7   -2    6      1.21      0.00
   -6   -2    6     -3.75      0.00
   -5   -2    6      0.68      0.00
   -4   -2    6     -5.30      0.00
   -3   -2    6     10.89      0.00
   -2   -2    6    -11.54      0.00
   -1   -2    6      1.39      0.00
    0   -2    6     29.35      0.00
    1   -2    6     -2.91      0.00
    2   -2    6    -18.35      0.00
    3   -2    6     -4.76      0.00
    4   -2    6     18.17      0.00
    5   -2    6    -17.17      0.00
    6   -2    6     12.58      0.00
    7   -2    6      4.08      0.00
    8   -2    6     -0.81      0.00
    9   -2    6     -2.38      0.00
   10   -2    6     11.51      0.00
   11   -2    6     -7.09      0.00
   12   -2    6      4.10      0.00
   13   -2    6     -1.36      0.00
   14   -2    6     -0.79      0.00
   15   -2    6     -2.70      0.00
   16   -2    6     -1.88      0.00
  -15   -1    6      0.62      0.00
  -14   -1    6      3.95      0.00
  -13   -1    6      4.04      0.00
  -12   -1    6     -4.98      0.00
  -11   -1    6     -5.65      0.00
  -10   -1    6      4.61      0.00
   -9   -1    6     -2.38      0.00
   -8   -1    6     -2.30      0.00
   -7   -1    6     -7.29      0.00
   -6   -1    6      5.69      0.00
   -5   -1    6    -14.62      0.00
   -4   -1    6     15.01      0.00
   -3   -1    6     -0.43      0.00
   -2   -1    6     -5.52      0.00
   -1   -1    6     18.22      0.00
    0   -1    6      8.08      0.00
    1   -1    6     -3.34      0.00
    2   -1    6     -5.53      0.00
    3   -1    6    -10.59      0.00
    4   -1    6     -3.72      0.00
    5   -1    6      7.21      0.00
    6   -1    6      6.79      0.00
    7   -1    6     -5.35      0.00
    8   -1    6      2.13      0.00
    9   -1    6      5.58      0.00
   10   -1    6      2.86      0.00
   11   -1    6     -1.64      0.00
   12   -1    6     -0.17      0.00
   13   -1    6      4.27      0.00
   14   -1    6     -6.35      0.00
   15   -1    6      3.05      0.00
   16   -1    6     -8.09      0.00
  -14    0    6      0.26      0.00
  -13    0    6     -1.15      0.00
  -12    0    6     -2.89      0.00
  -11    0    6      0.25      0.00
  -10    0    6     -3.12      0.00
   -9    0    6      0.72      0.00
   -8    0    6     -9.37      0.00
   -7    0    6      0.10      0.00
   -6    0    6     -1.60      0.00
   -5    0    6     -1.93      0.00
   -4    0    6      8.39      0.00
   -3    0    6      5.15      0.00
   -2    0    6      9.11      0.00
   -1    0    6    -35.41      0.00
    0    0    6     73.23      0.00
    1    0    6    -37.98      0.00
    2    0    6    -13.03      0.00
    3    0    6     -1.46      0.00
    4    0    6     -3.00      0.00
    5    0    6     -0.78      0.00
    6    0    6     13.05      0.00
    7    0    6     -8.92      0.00
    8    0    6      4.54      0.00
    9    0    6      1.53      0.00
   10    0    6     -0.08      0.00
   11    0    6      4.14      0.00
   12    0    6     -0.60      0.00
   13    0    6     -1.49      0.00
   14    0    6      0.33      0.00
   15    0    6     -2.68      0.00
   16    0    6      0.44      0.00
   17    0    6      0.61      0.00
  -14    1    6      2.30      0.00
  -13    1    6     -1.87      0.00
  -12    1    6     -2.30      0.00
  -11    1    6     -3.85      0.00
  -10    1    6      3.96      0.00
   -9    1    6     -8.66      0.00
   -8    1    6      4.76      0.00
   -7    1    6     -3.34      0.00
   -6    1    6    -14.63      0.00
   -5    1    6      9.24      0.00
   -4    1    6     16.35      0.00
   -3    1    6     -7.21      0.00
   -2    1    6     -4.11      0.00
   -1    1    6     30.52      0.00
    0    1    6    -24.52      0.00
    1    1    6     11.13      0.00
    2    1    6     -6.26      0.00
    3    1    6     -6.55      0.00
    4    1    6    -22.16      0.00
    5    1    6     27.46      0.00
    6    1    6     -4.70      0.00
    7    1    6     -0.81      0.00
    8    1    6     -2.57      0.00
    9    1    6     -0.80      0.00
   10    1    6      4.88      0.00
   11    1    6      1.70      0.00
   12    1    6     -0.11      0.00
   13    1    6     -0.12      0.00
   14    1    6     -1.74      0.00
   15    1    6      2.10      0.00
   16    1    6     -2.73      0.00
   17    1    6     -0.84      0.00
  -14    2    6     -1.10      0.00
  -13    2    6     -5.40      0.00
  -12    2    6      6.44      0.00
  -11    2    6     -2.80      0.00
  -10    2    6     -1.89      0.00
   -9    2    6     -0.31      0.00
   -8    2    6     -1.10      0.00
   -7    2    6     -8.17      0.00
   -6    2    6      6.62      0.00
   -5    2    6     -7.62      0.00
   -4    2    6      8.07      0.00
   -3    2    6     13.39      0.00
   -2    2    6     -3.39      0.00
   -1    2    6    -11.47      0.00
    0    2    6     25.69      0.00
    1    2    6     -8.98      0.00
    2    2    6     -6.28      0.00
    3    2    6     -6.93      0.00
    4    2    6     -1.13      0.00
    5    2    6      8.71      0.00
    6    2    6     -4.22      0.00
    7    2    6      1.45      0.00
    8    2    6     -1.56      0.00
    9    2    6      7.17      0.00
   10    2    6    -13.91      0.00
   11    2    6     19.01      0.00
   12    2    6    -11.41      0.00
   13    2    6      4.25      0.00
   14    2    6      3.49      0.00
   15    2    6     -4.45      0.00
   16    2    6     -0.68      0.00
   17    2    6     -1.50      0.00
   18    2    6      1.89      0.00
  -13    3    6     -0.93      0.00
  -12    3    6      0.10      0.00
  -11    3    6      2.22      0.00
  -10    3    6     -1.49      0.00
   -9    3    6      2.00      0.00
   -8    3    6      0.99      0.00
   -7    3    6     -0.92      0.00
   -6    3    6    -18.76      0.00
   -5    3    6     16.58      0.00
   -4    3    6      8.14      0.00
   -3    3    6    -13.81      0.00
   -2    3    6     19.91      0.00
   -1    3    6      2.68      0.00
    1    3    6     27.54      0.00
    2    3    6    -16.36      0.00
    3    3    6      7.16      0.00
    4    3    6    -14.83      0.00
    5    3    6      1.98      0.00
    6    3    6     15.23      0.00
    7    3    6      2.04      0.00
    8    3    6    -12.96      0.00
    9    3    6      0.57      0.00
   10    3    6      7.94      0.00
   11    3    6      1.85      0.00
   12    3    6     -2.43      0.00
   13    3    6      2.65      0.00
   14    3    6     -3.40      0.00
   15    3    6      4.08      0.00
   16    3    6     -4.39      0.00
   17    3    6      1.86      0.00
   18    3    6     -1.37      0.00
  -13    4    6     -2.67      0.00
  -12    4    6      7.30      0.00
  -11    4    6     -2.36      0.00
  -10    4    6      2.04      0.00
   -9    4    6      3.70      0.00
   -8    4    6     -1.75      0.00
   -7    4    6     -5.89      0.00
   -6    4    6      8.63      0.00
   -5    4    6     -9.45      0.00
   -4    4    6     -4.97      0.00
   -3    4    6     27.20      0.00
   -2    4    6    -18.58      0.00
   -1    4    6      7.02      0.00
    0    4    6     -0.82      0.00
    1    4    6      8.67      0.00
    2    4    6     -3.34      0.00
    3    4    6     -6.80      0.00
    4    4    6      1.15      0.00
    5    4    6     10.48      0.00
    6    4    6     -8.01      0.00
    7    4    6      6.69      0.00
    8    4    6      6.35      0.00
    9    4    6     -6.88      0.00
   10    4    6      5.31      0.00
   11    4    6     -2.06      0.00
   12    4    6     -1.80      0.00
   13    4    6      7.87      0.00
   14    4    6     -1.83      0.00
   15    4    6     -4.51      0.00
   16    4    6     -0.73      0.00
   17    4    6      3.13      0.00
   18    4    6      4.23      0.00
  -12    5    6     -1.72      0.00
  -11    5    6      2.47      0.00
  -10    5    6      3.35      0.00
   -9    5    6      6.18      0.00
   -8    5    6     -2.45      0.00
   -7    5    6     -3.23      0.00
   -6    5    6     -8.11      0.00
   -5    5    6     10.10      0.00
   -4    5    6     -5.54      0.00
   -3    5    6      1.67      0.00
   -2    5    6     -0.55      0.00
   -1    5    6     -2.37      0.00
    0    5    6     12.88      0.00
    1    5    6    -17.09      0.00
    2    5    6     12.38      0.00
    3    5    6      5.28      0.00
    4    5    6     -7.45      0.00
    5    5    6     -8.41      0.00
    6    5    6     26.34      0.00
    7    5    6     11.33      0.00
    8    5    6    -28.59      0.00
    9    5    6     17.20      0.00
   10    5    6      2.80      0.00
   11    5    6     -5.00      0.00
   12    5    6      3.14      0.00
   13    5    6     -0.24      0.00
   14    5    6     -2.58      0.00
   15    5    6      0.63      0.00
   16    5    6      1.94      0.00
   17    5    6      1.18      0.00
   18    5    6      1.44      0.00
   19    5    6      3.10      0.00
  -12    6    6     -0.42      0.00
  -11    6    6      0.54      0.00
  -10    6    6      3.90      0.00
   -9    6    6      1.37      0.00
   -8    6    6     -4.40      0.00
   -7    6    6      5.64      0.00
   -6    6    6     -0.40      0.00
   -5    6    6    -12.10      0.00
   -4    6    6      2.76      0.00
   -3    6    6      5.92      0.00
   -2    6    6    -13.06      0.00
   -1    6    6     21.99      0.00
    0    6    6    -27.26      0.00
    1    6    6     14.08      0.00
    2    6    6      8.14      0.00
    3    6    6     -4.84      0.00
    4    6    6      1.49      0.00
    5    6    6     11.47      0.00
    6    6    6      5.60      0.00
    7    6    6     -3.60      0.00
    8    6    6     10.78      0.00
    9    6    6      1.51      0.00
   10    6    6     -2.35      0.00
   11    6    6     -8.93      0.00
   12    6    6      9.01      0.00
   13    6    6     -0.06      0.00
   14    6    6     -0.43      0.00
   15    6    6     -3.64      0.00
   16    6    6      3.36      0.00
   17    6    6      2.12      0.00
   18    6    6      3.20      0.00
   19    6    6      3.57      0.00
  -11    7    6     -0.78      0.00
  -10    7    6      3.32      0.00
   -9    7    6      1.18      0.00
   -8    7    6      2.80      0.00
   -7    7    6     -4.15      0.00
   -6    7    6     -4.79      0.00
   -5    7    6      5.57      0.00
   -4    7    6      0.20      0.00
   -3    7    6     -9.92      0.00
   -2    7    6      3.96      0.00
   -1    7    6     -3.84      0.00
    0    7    6     14.96      0.00
    1    7    6    -27.22      0.00
    2    7    6     19.68      0.00
    3    7    6     11.51      0.00
    4    7    6    -12.03      0.00
    5    7    6     10.73      0.00
    6    7    6     17.22      0.00
    7    7    6     -6.37      0.00
    8    7    6      0.07      0.00
    9    7    6      4.44      0.00
   10    7    6     -1.77      0.00
   11    7    6     -2.26      0.00
   12    7    6      1.65      0.00
   13    7    6     -2.96      0.00
   14    7    6      5.41      0.00
   15    7    6      0.09      0.00
   16    7    6      2.89      0.00
   17    7    6      0.75      0.00
   18    7    6      2.53      0.00
   19    7    6      1.77      0.00
  -10    8    6      3.04      0.00
   -9    8    6      0.43      0.00
   -8    8    6     -0.84      0.00
   -7    8    6      6.18      0.00
   -6    8    6     -3.29      0.00
   -5    8    6     -1.18      0.00
   -4    8    6     -3.53      0.00
   -3    8    6     -7.22      0.00
   -2    8    6     14.36      0.00
   -1    8    6     -6.48      0.00
    0    8    6    -16.22      0.00
    1    8    6      5.96      0.00
    2    8    6     14.24      0.00
    3    8    6     -5.59      0.00
    4    8    6     -0.36      0.00
    5    8    6     19.57      0.00
    6    8    6     -3.97      0.00
    7    8    6     -9.02      0.00
    8    8    6     17.46      0.00
    9    8    6     -7.75      0.00
   10    8    6     -3.60      0.00
   11    8    6     -2.85      0.00
   12    8    6      4.96      0.00
   13    8    6      5.34      0.00
   14    8    6      0.46      0.00
   15    8    6     -3.06      0.00
   16    8    6      4.51      0.00
   17    8    6      6.10      0.00
   18    8    6     -1.78      0.00
   19    8    6      1.26      0.00
  -10    9    6      3.27      0.00
   -9    9    6      0.70      0.00
   -8    9    6      2.79      0.00
   -7    9    6     -0.78      0.00
   -6    9    6     -2.31      0.00
   -5    9    6      2.60      0.00
   -4    9    6     -4.31      0.00
   -3    9    6      0.43      0.00
   -2    9    6     -8.44      0.00
   -1    9    6      6.90      0.00
    0    9    6     -9.37      0.00
    1    9    6     -3.14      0.00
    2    9    6      4.89      0.00
    3    9    6     -0.17      0.00
    4    9    6      8.63      0.00
    5    9    6      0.23      0.00
    6    9    6      2.21      0.00
    7    9    6     -6.97      0.00
    8    9    6      6.02      0.00
    9    9    6     -5.79      0.00
   10    9    6     -0.64      0.00
   11    9    6      4.89      0.00
   12    9    6     -0.14      0.00
   13    9    6      0.74      0.00
   14    9    6      5.36      0.00
   15    9    6      0.63      0.00
   16    9    6      2.54      0.00
   17    9    6     -0.04      0.00
   18    9    6      0.48      0.00
   19    9    6      0.17      0.00
   -9   10    6      2.70      0.00
   -8   10    6      1.46      0.00
   -7   10    6     -2.68      0.00
   -6   10    6      5.20      0.00
   -5   10    6     -3.29      0.00
   -4   10    6     -3.33      0.00
   -3   10    6     -6.36      0.00
   -2   10    6     15.92      0.00
   -1   10    6    -20.70      0.00
    0   10    6     -0.42      0.00
    1   10    6      3.45      0.00
    2   10    6     -1.98      0.00
    3   10    6      2.56      0.00
    4   10    6     -0.51      0.00
    5   10    6      4.76      0.00
    6   10    6     -2.09      0.00
    7   10    6     -4.59      0.00
    8   10    6      1.44      0.00
    9   10    6      3.08      0.00
   10   10    6     -7.84      0.00
   11   10    6      6.19      0.00
   12   10    6      4.24      0.00
   13   10    6      2.77      0.00
   14   10    6      3.02      0.00
   15   10    6     -3.28      0.00
   16   10    6      1.98      0.00
   17   10    6      2.42      0.00
   18   10    6     -2.04      0.00
   19   10    6     -0.89      0.00
   -8   11    6      1.70      0.00
   -7   11    6     -1.57      0.00
   -6   11    6      1.56      0.00
   -5   11    6     -1.79      0.00
   -4   11    6      2.32      0.00
   -3   11    6     -1.75      0.00
   -2   11    6     -6.29      0.00
   -1   11    6      5.12      0.00
    0   11    6     -4.56      0.00
    1   11    6     -1.10      0.00
    2   11    6     -6.45      0.00
    3   11    6      4.14      0.00
    4   11    6      6.82      0.00
    5   11    6      1.20      0.00
    6   11    6     -8.99      0.00
    7   11    6      5.45      0.00
    8   11    6      1.12      0.00
    9   11    6     -4.90      0.00
   10   11    6      6.87      0.00
   11   11    6     -1.44      0.00
   12   11    6      3.97      0.00
   13   11    6      4.25      0.00
   14   11    6      0.67      0.00
   15   11    6      2.78      0.00
   16   11    6     -3.66      0.00
   17   11    6     -1.45      0.00
   18   11    6      1.12      0.00
   19   11    6     -0.88      0.00
   -7   12    6      2.20      0.00
   -6   12    6      0.69      0.00
   -5   12    6      2.80      0.00
   -4   12    6     -5.42      0.00
   -3   12    6      4.80      0.00
   -2   12    6     -3.42      0.00
   -1   12    6     -0.90      0.00
    0   12    6      1.64      0.00
    1   12    6     -7.68      0.00
    2   12    6      4.40      0.00
    3   12    6     -3.40      0.00
    4   12    6      5.40      0.00
    5   12    6      3.41      0.00
    6   12    6      0.33      0.00
    7   12    6      0.16      0.00
    8   12    6      1.31      0.00
    9   12    6      5.69      0.00
   10   12    6     -5.75      0.00
   11   12    6      2.75      0.00
   12   12    6      4.76      0.00
   13   12    6      3.53      0.00
   14   12    6      0.02      0.00
   15   12    6     -0.42      0.00
   16   12    6      0.78      0.00
   17   12    6     -3.33      0.00
   18   12    6      2.06      0.00
   19   12    6     -1.90      0.00
   -6   13    6     -0.42      0.00
   -5   13    6      1.80      0.00
   -4   13    6      0.74      0.00
   -3   13    6      0.00      0.00
   -2   13    6     -3.07      0.00
   -1   13    6      5.20      0.00
    0   13    6     -4.57      0.00
    1   13    6     -3.22      0.00
    2   13    6     -5.23      0.00
    3   13    6      5.03      0.00
    4   13    6      5.08      0.00
    5   13    6      8.33      0.00
    6   13    6     -4.97      0.00
    7   13    6      9.33      0.00
    8   13    6     -2.27      0.00
    9   13    6      2.89      0.00
   10   13    6     -1.61      0.00
   11   13    6     -0.62      0.00
   12   13    6      2.54      0.00
   13   13    6     -0.31      0.00
   14   13    6      4.54      0.00
   15   13    6     -0.36      0.00
   16   13    6     -0.40      0.00
   17   13    6      0.07      0.00
   18   13    6      1.30      0.00
   -5   14    6      2.65      0.00
   -4   14    6     -0.09      0.00
   -3   14    6     -2.59      0.00
   -2   14    6      3.45      0.00
   -1   14    6     -0.85      0.00
    0   14    6     -2.31      0.00
    1   14    6     -7.05      0.00
    2   14    6      1.11      0.00
    3   14    6      4.70      0.00
    4   14    6      1.75      0.00
    5   14    6     11.67      0.00
    6   14    6      2.40      0.00
    7   14    6     -1.55      0.00
    8   14    6      8.20      0.00
    9   14    6     -2.84      0.00
   11   14    6      3.38      0.00
   12   14    6     -2.83      0.00
   13   14    6      1.56      0.00
   14   14    6      0.16      0.00
   15   14    6      3.35      0.00
   16   14    6      4.75      0.00
   17   14    6     -0.62      0.00
   18   14    6      2.09      0.00
   -4   15    6      1.56      0.00
   -3   15    6     -0.61      0.00
   -2   15    6      4.61      0.00
   -1   15    6     -2.53      0.00
    0   15    6     -2.00      0.00
    1   15    6     -2.85      0.00
    2   15    6     -1.78      0.00
    3   15    6      4.87      0.00
    4   15    6      6.76      0.00
    5   15    6      8.56      0.00
    6   15    6      4.74      0.00
    7   15    6      0.30      0.00
    8   15    6      3.83      0.00
    9   15    6     -3.77      0.00
   10   15    6     -0.20      0.00
   11   15    6      0.21      0.00
   12   15    6     -2.49      0.00
   13   15    6      0.42      0.00
   14   15    6      3.53      0.00
   15   15    6      0.84      0.00
   16   15    6      5.56      0.00
   17   15    6      2.38      0.00
   -2   16    6      2.55      0.00
   -1   16    6      3.38      0.00
    0   16    6     -2.61      0.00
    1   16    6     -3.95      0.00
    2   16    6      0.02      0.00
    3   16    6      9.09      0.00
    4   16    6      4.90      0.00
    5   16    6      5.69      0.00
    6   16    6      5.52      0.00
    7   16    6      2.11      0.00
    8   16    6      1.08      0.00
    9   16    6     -0.82      0.00
   10   16    6     -2.43      0.00
   11   16    6      2.01      0.00
   12   16    6      2.14      0.00
   13   16    6     -4.48      0.00
   14   16    6      3.04      0.00
   15   16    6      4.00      0.00
   16   16    6      3.31      0.00
   17   16    6      4.54      0.00
   -1   17    6      2.20      0.00
    0   17    6      0.40      0.00
    1   17    6      0.88      0.00
    2   17    6     -0.72      0.00
    3   17    6      1.53      0.00
    4   17    6      9.23      0.00
    5   17    6      5.78      0.00
    6   17    6      3.42      0.00
    7   17    6      3.39      0.00
    8   17    6     -3.45      0.00
    9   17    6      0.24      0.00
   10   17    6     -2.02      0.00
   11   17    6      7.03      0.00
   12   17    6     -2.60      0.00
   13   17    6      3.37      0.00
   14   17    6     -0.14      0.00
   15   17    6     -0.78      0.00
   16   17    6      8.30      0.00
    1   18    6      0.40      0.00
    2   18    6     -5.18      0.00
    3   18    6      7.67      0.00
    4   18    6      6.03      0.00
    5   18    6      0.39      0.00
    6   18    6      2.54      0.00
    7   18    6      2.37      0.00
    8   18    6     -4.56      0.00
    9   18    6      2.48      0.00
   10   18    6      3.49      0.00
   11   18    6     -3.76      0.00
   12   18    6     11.21      0.00
   13   18    6     -3.52      0.00
   14   18    6     -0.30      0.00
   15   18    6      1.93      0.00
    3   19    6     -5.04      0.00
    4   19    6      2.66      0.00
    5   19    6      4.69      0.00
    6   19    6      0.24      0.00
    7   19    6      1.10      0.00
    8   19    6     -1.00      0.00
    9   19    6      1.44      0.00
   10   19    6     -3.22      0.00
   11   19    6     14.00      0.00
   12   19    6     -5.53      0.00
   13   19    6      2.60      0.00
    8   20    6     -1.18      0.00
    9   20    6      3.41      0.00
   -5  -16    7     -1.23      0.00
   -4  -16    7     -1.46      0.00
   -9  -15    7     -1.76      0.00
   -8  -15    7      3.30      0.00
   -7  -15    7     -3.81      0.00
   -6  -15    7      0.73      0.00
   -5  -15    7     -6.47      0.00
   -4  -15    7      5.37      0.00
   -3  -15    7      0.64      0.00
   -2  -15    7      0.87      0.00
   -1  -15    7      1.01      0.00
    0  -15    7      1.48      0.00
    1  -15    7     -1.51      0.00
  -10  -14    7      4.89      0.00
   -9  -14    7      0.86      0.00
   -8  -14    7     -3.68      0.00
   -7  -14    7     -3.98      0.00
   -6  -14    7      3.41      0.00
   -5  -14    7     -6.06      0.00
   -4  -14    7      1.24      0.00
   -3  -14    7      6.62      0.00
   -2  -14    7      0.09      0.00
   -1  -14    7      3.99      0.00
    0  -14    7     -0.98      0.00
    1  -14    7     -4.81      0.00
    2  -14    7     -1.05      0.00
    3  -14    7      4.90      0.00
  -11  -13    7     -3.04      0.00
  -10  -13    7      2.37      0.00
   -9  -13    7      4.75      0.00
   -8  -13    7     -1.99      0.00
   -7  -13    7      0.32      0.00
   -6  -13    7     -5.17      0.00
   -5  -13    7      1.46      0.00
   -4  -13    7      4.00      0.00
   -3  -13    7      0.88      0.00
   -2  -13    7      5.27      0.00
   -1  -13    7      0.33      0.00
    0  -13    7     -3.49      0.00
    1  -13    7      1.01      0.00
    2  -13    7     -2.42      0.00
    3  -13    7     -7.77      0.00
    4  -13    7     -2.45      0.00
    5  -13    7     -0.20      0.00
  -12  -12    7     -2.85      0.00
  -11  -12    7      6.08      0.00
  -10  -12    7      1.91      0.00
   -9  -12    7      4.72      0.00
   -8  -12    7      1.24      0.00
   -7  -12    7     -2.73      0.00
   -6  -12    7      3.27      0.00
   -5  -12    7     -2.05      0.00
   -4  -12    7      5.12      0.00
   -3  -12    7      0.47      0.00
   -2  -12    7     -0.14      0.00
   -1  -12    7      3.14      0.00
    0  -12    7     -4.38      0.00
    1  -12    7     -0.35      0.00
    2  -12    7     -5.64      0.00
    3  -12    7      3.79      0.00
    4  -12    7    -14.37      0.00
    5  -12    7     10.54      0.00
    6  -12    7     -3.35      0.00
    7  -12    7      3.90      0.00
  -13  -11    7      4.52      0.00
  -12  -11    7      3.94      0.00
  -11  -11    7      4.16      0.00
  -10  -11    7     -2.00      0.00
   -9  -11    7      2.68      0.00
   -8  -11    7      9.93      0.00
   -7  -11    7     -1.77      0.00
   -6  -11    7     -0.86      0.00
   -5  -11    7      0.95      0.00
   -4  -11    7      0.18      0.00
   -3  -11    7     -5.26      0.00
   -2  -11    7      6.85      0.00
   -1  -11    7     -3.49      0.00
    0  -11    7     -3.47      0.00
    1  -11    7     -2.45      0.00
    2  -11    7      3.46      0.00
    3  -11    7     -7.75      0.00
    4  -11    7      3.09      0.00
    5  -11    7     -0.18      0.00
    6  -11    7      1.80      0.00
    7  -11    7      2.28      0.00
    8  -11    7      2.31      0.00
  -13  -10    7     -1.92      0.00
  -12  -10    7      5.32      0.00
  -11  -10    7      5.29      0.00
  -10  -10    7      1.84      0.00
   -9  -10    7      1.70      0.00
   -8  -10    7      1.83      0.00
   -7  -10    7     -1.63      0.00
   -6  -10    7      2.89      0.00
   -5  -10    7     -3.88      0.00
   -4  -10    7     -3.09      0.00
   -3  -10    7     -1.26      0.00
   -2  -10    7     -4.88      0.00
   -1  -10    7      5.39      0.00
    0  -10    7    -11.40      0.00
    1  -10    7      2.98      0.00
    2  -10    7     -0.27      0.00
    3  -10    7     -0.30      0.00
    4  -10    7     -0.88      0.00
    5  -10    7      2.57      0.00
    6  -10    7     -5.80      0.00
    7  -10    7      6.49      0.00
    8  -10    7     -1.61      0.00
    9  -10    7     -4.30      0.00
  -14   -9    7     -6.19      0.00
  -13   -9    7      6.59      0.00
  -12   -9    7      8.50      0.00
  -11   -9    7      1.15      0.00
  -10   -9    7     -4.56      0.00
   -9   -9    7     -0.38      0.00
   -8   -9    7      6.97      0.00
   -7   -9    7     -0.37      0.00
   -6   -9    7     -9.04      0.00
   -5   -9    7     -0.94      0.00
   -4   -9    7     -6.37      0.00
   -3   -9    7      1.76      0.00
   -2   -9    7     -4.67      0.00
   -1   -9    7     -7.28      0.00
    0   -9    7      2.19      0.00
    1   -9    7     -3.54      0.00
    2   -9    7      1.08      0.00
    3   -9    7      4.09      0.00
    4   -9    7     -2.10      0.00
    5   -9    7     -5.57      0.00
    6   -9    7     -0.62      0.00
    7   -9    7      2.03      0.00
    8   -9    7     -6.79      0.00
    9   -9    7      3.08      0.00
   10   -9    7     -0.37      0.00
  -14   -8    7      0.59      0.00
  -13   -8    7      0.43      0.00
  -12   -8    7      4.30      0.00
  -11   -8    7      2.58      0.00
  -10   -8    7      1.18      0.00
   -9   -8    7      0.64      0.00
   -8   -8    7     -3.70      0.00
   -7   -8    7     -1.59      0.00
   -6   -8    7     -3.44      0.00
   -5   -8    7     -4.25      0.00
   -4   -8    7     -3.32      0.00
   -3   -8    7     -6.53      0.00
   -2   -8    7     -1.84      0.00
   -1   -8    7     -0.19      0.00
    0   -8    7     -4.40      0.00
    1   -8    7      1.60      0.00
    2   -8    7      8.83      0.00
    3   -8    7     -5.32      0.00
    4   -8    7      1.19      0.00
    5   -8    7     -6.81      0.00
    6   -8    7      0.22      0.00
    7   -8    7     -6.10      0.00
    8   -8    7     -1.77      0.00
    9   -8    7     -0.14      0.00
   10   -8    7      3.64      0.00
   11   -8    7     -1.13      0.00
  -14   -7    7     -0.22      0.00
  -13   -7    7      5.56      0.00
  -12   -7    7      3.54      0.00
  -11   -7    7     -3.09      0.00
  -10   -7    7      1.34      0.00
   -9   -7    7     -0.62      0.00
   -8   -7    7      0.94      0.00
   -7   -7    7      2.97      0.00
   -6   -7    7    -15.54      0.00
   -5   -7    7     -1.56      0.00
   -4   -7    7     -3.11      0.00
   -3   -7    7      5.50      0.00
   -2   -7    7    -15.00      0.00
   -1   -7    7      3.44      0.00
    0   -7    7      7.82      0.00
    1   -7    7      2.71      0.00
    2   -7    7      1.62      0.00
    3   -7    7      7.14      0.00
    4   -7    7    -14.14      0.00
    5   -7    7      2.04      0.00
    6   -7    7     -3.16      0.00
    7   -7    7     -5.14      0.00
    8   -7    7     -0.35      0.00
    9   -7    7     -1.87      0.00
   10   -7    7     -0.22      0.00
   11   -7    7      6.07      0.00
   12   -7    7     -0.41      0.00
  -14   -6    7     -1.14      0.00
  -13   -6    7      2.48      0.00
  -12   -6    7     -1.55      0.00
  -11   -6    7      1.83      0.00
  -10   -6    7      1.15      0.00
   -9   -6    7     -2.61      0.00
   -8   -6    7      0.21      0.00
   -7   -6    7     -2.00      0.00
   -6   -6    7     -8.47      0.00
   -5   -6    7     -1.12      0.00
   -4   -6    7      1.71      0.00
   -3   -6    7    -19.12      0.00
   -2   -6    7     21.25      0.00
   -1   -6    7     -9.72      0.00
    0   -6    7      8.22      0.00
    1   -6    7      4.62      0.00
    2   -6    7      4.57      0.00
    3   -6    7     -2.51      0.00
    4   -6    7     -1.71      0.00
    5   -6    7     -3.14      0.00
    6   -6    7     -6.13      0.00
    7   -6    7      1.79      0.00
    8   -6    7     -4.17      0.00
    9   -6    7      2.97      0.00
   10   -6    7     -2.85      0.00
   11   -6    7     -0.21      0.00
   12   -6    7     11.25      0.00
   13   -6    7     -3.55      0.00
  -14   -5    7      4.80      0.00
  -13   -5    7     -1.11      0.00
  -12   -5    7     -0.80      0.00
  -11   -5    7     -3.63      0.00
  -10   -5    7     -0.98      0.00
   -9   -5    7     -0.19      0.00
   -8   -5    7     -2.07      0.00
   -7   -5    7     -2.49      0.00
   -6   -5    7     -4.42      0.00
   -5   -5    7     -7.59      0.00
   -4   -5    7      4.24      0.00
   -3   -5    7      4.90      0.00
   -2   -5    7    -19.67      0.00
   -1   -5    7     20.10      0.00
    0   -5    7     -6.87      0.00
    1   -5    7     10.73      0.00
    2   -5    7      1.84      0.00
    3   -5    7     -2.72      0.00
    4   -5    7     -4.65      0.00
    5   -5    7      0.79      0.00
    6   -5    7     -1.38      0.00
    7   -5    7     -2.34      0.00
    8   -5    7      3.68      0.00
    9   -5    7     -6.77      0.00
   10   -5    7     -0.30      0.00
   11   -5    7      6.06      0.00
   12   -5    7      1.18      0.00
   13   -5    7     -0.82      0.00
   14   -5    7      2.44      0.00
  -14   -4    7      3.35      0.00
  -13   -4    7     -5.17      0.00
  -12   -4    7      0.25      0.00
  -11   -4    7     -1.04      0.00
  -10   -4    7     -3.68      0.00
   -9   -4    7     -6.95      0.00
   -8   -4    7      2.11      0.00
   -7   -4    7     -3.45      0.00
   -6   -4    7     -0.53      0.00
   -5   -4    7      0.35      0.00
   -4   -4    7     -4.24      0.00
   -3   -4    7     -9.57      0.00
   -2   -4    7     17.47      0.00
   -1   -4    7    -13.35      0.00
    0   -4    7     -2.87      0.00
    1   -4    7     17.77      0.00
    2   -4    7    -11.26      0.00
    3   -4    7      0.40      0.00
    4   -4    7      4.68      0.00
    5   -4    7     -4.10      0.00
    6   -4    7     -1.33      0.00
    7   -4    7      3.64      0.00
    8   -4    7     -6.69      0.00
    9   -4    7      4.12      0.00
   10   -4    7     -3.61      0.00
   11   -4    7      0.00      0.00
   12   -4    7      3.40      0.00
   13   -4    7     -2.68      0.00
   14   -4    7      5.80      0.00
   15   -4    7     -1.37      0.00
  -14   -3    7     -1.15      0.00
  -13   -3    7     -0.08      0.00
  -12   -3    7     -0.87      0.00
  -11   -3    7     -4.72      0.00
  -10   -3    7      0.14      0.00
   -9   -3    7     -3.74      0.00
   -8   -3    7     -5.45      0.00
   -7   -3    7      5.99      0.00
   -6   -3    7     -2.50      0.00
   -5   -3    7      0.49      0.00
   -4   -3    7     -0.90      0.00
   -3   -3    7      5.56      0.00
   -2   -3    7    -10.50      0.00
   -1   -3    7    -13.10      0.00
    0   -3    7     12.14      0.00
    1   -3    7      3.48      0.00
    2   -3    7     -1.04      0.00
    3   -3    7    -14.71      0.00
    4   -3    7     13.49      0.00
    5   -3    7     -4.94      0.00
    6   -3    7      2.32      0.00
    7   -3    7     -0.30      0.00
    8   -3    7      1.88      0.00
    9   -3    7    -11.83      0.00
   10   -3    7      8.68      0.00
   11   -3    7     -4.33      0.00
   12   -3    7     -2.22      0.00
   13   -3    7      2.66      0.00
   14   -3    7      2.12      0.00
   15   -3    7      0.72      0.00
  -14   -2    7      0.19      0.00
  -13   -2    7      4.76      0.00
  -12   -2    7     -1.33      0.00
  -11   -2    7     -2.73      0.00
  -10   -2    7     -2.99      0.00
   -9   -2    7     -1.92      0.00
   -8   -2    7      5.10      0.00
   -7   -2    7     -1.88      0.00
   -6   -2    7      6.65      0.00
   -5   -2    7     -0.25      0.00
   -4   -2    7     -9.44      0.00
   -3   -2    7     14.06      0.00
   -2   -2    7    -16.44      0.00
   -1   -2    7     -6.36      0.00
    0   -2    7      5.67      0.00
    1   -2    7      1.13      0.00
    2   -2    7     -5.37      0.00
    3   -2    7      0.35      0.00
    4   -2    7     -2.31      0.00
    5   -2    7      2.53      0.00
    6   -2    7      6.01      0.00
    7   -2    7     -1.56      0.00
    8   -2    7     -6.96      0.00
    9   -2    7      0.25      0.00
   10   -2    7      1.23      0.00
   11   -2    7     -6.44      0.00
   12   -2    7     -0.88      0.00
   13   -2    7      3.68      0.00
   14   -2    7     -0.23      0.00
   15   -2    7      0.08      0.00
   16   -2    7     -1.16      0.00
  -14   -1    7      1.19      0.00
  -13   -1    7      3.49      0.00
  -12   -1    7     -3.42      0.00
  -11   -1    7      2.73      0.00
  -10   -1    7     -1.18      0.00
   -9   -1    7      3.33      0.00
   -8   -1    7     -0.34      0.00
   -7   -1    7      0.70      0.00
   -6   -1    7      9.61      0.00
   -5   -1    7    -11.75      0.00
   -4   -1    7     13.43      0.00
   -3   -1    7    -14.23      0.00
   -2   -1    7     14.98      0.00
   -1   -1    7    -43.72      0.00
    0   -1    7     30.85      0.00
    1   -1    7      1.87      0.00
    2   -1    7     -3.84      0.00
    3   -1    7     -9.18      0.00
    4   -1    7      7.35      0.00
    5   -1    7     -3.75      0.00
    6   -1    7      7.45      0.00
    7   -1    7     -0.45      0.00
    8   -1    7     -4.44      0.00
    9   -1    7     -3.65      0.00
   10   -1    7     -1.93      0.00
   11   -1    7      0.81      0.00
   12   -1    7     -2.83      0.00
   13   -1    7      3.50      0.00
   14   -1    7     -5.69      0.00
   15   -1    7      0.10      0.00
   16   -1    7     -0.75      0.00
  -14    0    7      1.84      0.00
  -13    0    7      4.56      0.00
  -12    0    7      2.25      0.00
  -11    0    7     -5.47      0.00
  -10    0    7      4.01      0.00
   -9    0    7      2.41      0.00
   -8    0    7     -0.03      0.00
   -7    0    7      9.71      0.00
   -6    0    7     -6.11      0.00
   -5    0    7     -6.52      0.00
   -4    0    7      8.93      0.00
   -3    0    7      0.10      0.00
   -2    0    7    -19.50      0.00
   -1    0    7     10.24      0.00
    0    0    7      0.19      0.00
    1    0    7     -0.23      0.00
    2    0    7      6.57      0.00
    3    0    7     10.90      0.00
    4    0    7    -28.78      0.00
    5    0    7     11.09      0.00
    6    0    7     13.11      0.00
    7    0    7    -13.11      0.00
    8    0    7      6.91      0.00
    9    0    7     -9.69      0.00
   10    0    7      2.29      0.00
   11    0    7      0.64      0.00
   12    0    7     -1.32      0.00
   13    0    7     -0.73      0.00
   14    0    7     -5.34      0.00
   15    0    7      1.30      0.00
   16    0    7     -1.82      0.00
   17    0    7     -1.30      0.00
  -13    1    7     -5.76      0.00
  -12    1    7      5.56      0.00
  -11    1    7      0.19      0.00
  -10    1    7      3.87      0.00
   -9    1    7     -5.52      0.00
   -8    1    7      8.25      0.00
   -7    1    7     -5.58      0.00
   -6    1    7      1.18      0.00
   -5    1    7      4.53      0.00
   -4    1    7     -7.94      0.00
   -3    1    7     -4.19      0.00
   -2    1    7     16.22      0.00
   -1    1    7    -30.63      0.00
    0    1    7     14.59      0.00
    1    1    7     15.89      0.00
    2    1    7     -0.51      0.00
    3    1    7     -8.15      0.00
    4    1    7     -6.32      0.00
    5    1    7      4.46      0.00
    6    1    7     -5.60      0.00
    7    1    7      9.01      0.00
    8    1    7     -7.99      0.00
    9    1    7      7.84      0.00
   10    1    7    -11.83      0.00
   11    1    7      9.43      0.00
   12    1    7     -2.64      0.00
   13    1    7     -7.15      0.00
   14    1    7      1.03      0.00
   15    1    7     -3.42      0.00
   16    1    7      3.19      0.00
   17    1    7     -3.34      0.00
  -13    2    7      2.06      0.00
  -12    2    7     -0.22      0.00
  -11    2    7      1.38      0.00
  -10    2    7     -1.30      0.00
   -9    2    7     -2.43      0.00
   -8    2    7      3.72      0.00
   -7    2    7      3.33      0.00
   -6    2    7     -3.35      0.00
   -5    2    7    -10.36      0.00
   -4    2    7     14.12      0.00
   -3    2    7     -9.20      0.00
   -2    2    7    -12.50      0.00
   -1    2    7     21.84      0.00
    0    2    7    -24.27      0.00
    1    2    7     17.45      0.00
    2    2    7      6.30      0.00
    3    2    7     -4.25      0.00
    4    2    7    -10.76      0.00
    5    2    7    -11.50      0.00
    6    2    7      7.79      0.00
    7    2    7     10.51      0.00
    8    2    7     -5.39      0.00
    9    2    7     -6.71      0.00
   10    2    7      3.14      0.00
   11    2    7      3.12      0.00
   12    2    7     -5.58      0.00
   13    2    7     -1.96      0.00
   14    2    7     -3.85      0.00
   15    2    7      3.85      0.00
   16    2    7     -0.51      0.00
   17    2    7     -3.65      0.00
   18    2    7      0.18      0.00
  -13    3    7     -6.33      0.00
  -12    3    7      3.68      0.00
  -11    3    7      3.46      0.00
  -10    3    7     -5.49      0.00
   -9    3    7     -0.04      0.00
   -8    3    7      3.07      0.00
   -7    3    7     -7.09      0.00
   -6    3    7      7.67      0.00
   -5    3    7      2.25      0.00
   -4    3    7    -20.67      0.00
   -3    3    7     13.70      0.00
   -2    3    7     -0.54      0.00
   -1    3    7    -11.42      0.00
    0    3    7     -3.79      0.00
    1    3    7     21.48      0.00
    2    3    7    -10.74      0.00
    3    3    7     -1.00      0.00
    4    3    7     -9.18      0.00
    5    3    7     -6.34      0.00
    6    3    7      5.99      0.00
    7    3    7     -6.00      0.00
    8    3    7      5.06      0.00
    9    3    7      1.88      0.00
   10    3    7     -7.06      0.00
   11    3    7      6.07      0.00
   12    3    7    -12.10      0.00
   13    3    7      3.29      0.00
   14    3    7      2.19      0.00
   15    3    7      2.17      0.00
   16    3    7     -8.89      0.00
   17    3    7      2.33      0.00
   18    3    7     -0.29      0.00
  -12    4    7      1.34      0.00
  -11    4    7     -3.07      0.00
  -10    4    7     -2.03      0.00
   -9    4    7      3.85      0.00
   -8    4    7     -2.49      0.00
   -7    4    7      6.61      0.00
   -6    4    7    -11.70      0.00
   -5    4    7      1.61      0.00
   -4    4    7      3.81      0.00
   -3    4    7     -8.98      0.00
   -2    4    7      6.58      0.00
   -1    4    7     -8.62      0.00
    0    4    7     10.43      0.00
    1    4    7     -6.71      0.00
    2    4    7      2.11      0.00
    3    4    7      1.41      0.00
    4    4    7     -6.28      0.00
    5    4    7    -23.46      0.00
    6    4    7      1.18      0.00
    7    4    7     26.81      0.00
    8    4    7    -19.89      0.00
    9    4    7     -4.50      0.00
   10    4    7     10.11      0.00
   11    4    7     -8.78      0.00
   12    4    7      0.41      0.00
   13    4    7      2.72      0.00
   14    4    7     -0.74      0.00
   15    4    7     -0.50      0.00
   16    4    7     -1.56      0.00
   17    4    7      0.54      0.00
   18    4    7     -4.11      0.00
  -12    5    7      0.00      0.00
  -11    5    7      0.04      0.00
  -10    5    7     -3.21      0.00
   -9    5    7      5.11      0.00
   -8    5    7     -4.68      0.00
   -7    5    7     -1.39      0.00
   -6    5    7      6.67      0.00
   -5    5    7     -3.07      0.00
   -4    5    7    -18.13      0.00
   -3    5    7     25.58      0.00
   -2    5    7    -21.74      0.00
   -1    5    7     18.91      0.00
    0    5    7     -3.09      0.00
    1    5    7     -9.31      0.00
    2    5    7      8.34      0.00
    3    5    7     -1.67      0.00
    4    5    7    -21.86      0.00
    5    5    7      1.66      0.00
    6    5    7     -0.43      0.00
    7    5    7    -10.04      0.00
    8    5    7      4.89      0.00
    9    5    7      3.28      0.00
   10    5    7     -0.40      0.00
   11    5    7    -10.54      0.00
   12    5    7      5.96      0.00
   13    5    7      2.99      0.00
   14    5    7      4.01      0.00
   15    5    7     -4.46      0.00
   16    5    7     -1.07      0.00
   17    5    7     -1.77      0.00
   18    5    7     -0.45      0.00
   19    5    7     -0.75      0.00
  -11    6    7     -2.56      0.00
  -10    6    7      1.21      0.00
   -9    6    7      0.20      0.00
   -8    6    7      2.61      0.00
   -7    6    7     -0.59      0.00
   -6    6    7     -7.67      0.00
   -5    6    7     -1.37      0.00
   -4    6    7      8.90      0.00
   -3    6    7     -9.31      0.00
   -2    6    7      4.58      0.00
   -1    6    7      1.26      0.00
    0    6    7     11.34      0.00
    1    6    7     -9.09      0.00
    2    6    7     -7.56      0.00
    3    6    7      8.64      0.00
    4    6    7    -12.85      0.00
    5    6    7    -22.43      0.00
    6    6    7      6.17      0.00
    7    6    7      8.06      0.00
    8    6    7    -15.05      0.00
    9    6    7      5.49      0.00
   10    6    7     -2.13      0.00
   11    6    7      1.48      0.00
   12    6    7      5.49      0.00
   13    6    7     -5.23      0.00
   14    6    7      5.50      0.00
   15    6    7     -2.98      0.00
   16    6    7      4.04      0.00
   17    6    7     -5.00      0.00
   18    6    7     -1.94      0.00
   19    6    7     -0.72      0.00
  -11    7    7     -3.03      0.00
  -10    7    7      0.66      0.00
   -9    7    7      0.60      0.00
   -8    7    7     -6.03      0.00
   -7    7    7      5.05      0.00
   -6    7    7     -0.42      0.00
   -5    7    7     -6.45      0.00
   -4    7    7      4.03      0.00
   -3    7    7     -8.70      0.00
   -2    7    7      8.90      0.00
   -1    7    7     12.46      0.00
    0    7    7     -6.69      0.00
    1    7    7     -9.51      0.00
    2    7    7     10.64      0.00
    3    7    7     -2.94      0.00
    4    7    7    -27.06      0.00
    5    7    7      7.09      0.00
    6    7    7      1.48      0.00
    7    7    7    -23.56      0.00
    8    7    7     15.93      0.00
    9    7    7     -2.79      0.00
   10    7    7      2.58      0.00
   11    7    7     -7.10      0.00
   12    7    7      3.46      0.00
   13    7    7      3.41      0.00
   14    7    7      3.00      0.00
   15    7    7     -1.87      0.00
   16    7    7     -4.35      0.00
   17    7    7      1.18      0.00
   18    7    7     -2.34      0.00
   19    7    7      1.43      0.00
  -10    8    7      2.09      0.00
   -9    8    7     -2.41      0.00
   -8    8    7      0.71      0.00
   -7    8    7     -0.26      0.00
   -6    8    7     -7.03      0.00
   -5    8    7      5.75      0.00
   -4    8    7     -3.78      0.00
   -3    8    7      6.82      0.00
   -2    8    7     -4.08      0.00
   -1    8    7      4.83      0.00
    0    8    7      8.96      0.00
    1    8    7     -6.86      0.00
    2    8    7     -1.88      0.00
    3    8    7     -7.85      0.00
    4    8    7     -0.76      0.00
    5    8    7    -10.34      0.00
    6    8    7      4.34      0.00
    7    8    7     -6.98      0.00
    8    8    7      3.08      0.00
    9    8    7     -3.03      0.00
   10    8    7      1.66      0.00
   11    8    7      0.25      0.00
   12    8    7      0.44      0.00
   13    8    7     -5.27      0.00
   14    8    7      7.56      0.00
   15    8    7     -0.81      0.00
   16    8    7     -0.58      0.00
   17    8    7     -1.77      0.00
   18    8    7     -1.96      0.00
   19    8    7      3.08      0.00
   -9    9    7     -1.51      0.00
   -8    9    7     -1.30      0.00
   -7    9    7      0.32      0.00
   -6    9    7     -0.12      0.00
   -5    9    7     -0.79      0.00
   -4    9    7      4.43      0.00
   -3    9    7    -10.02      0.00
   -2    9    7     17.39      0.00
   -1    9    7      1.34      0.00
    0    9    7     -6.69      0.00
    1    9    7     -0.12      0.00
    2    9    7      4.07      0.00
    3    9    7     -7.73      0.00
    4    9    7     -3.40      0.00
    5    9    7      1.27      0.00
    6    9    7      1.19      0.00
    7    9    7     -2.62      0.00
    8    9    7     -0.94      0.00
    9    9    7      7.36      0.00
   10    9    7     -6.14      0.00
   11    9    7     -6.15      0.00
   12    9    7      0.52      0.00
   13    9    7      4.08      0.00
   14    9    7      7.78      0.00
   15    9    7     -5.92      0.00
   16    9    7     -2.81      0.00
   17    9    7      3.74      0.00
   18    9    7      2.37      0.00
   19    9    7      0.00      0.00
   -9   10    7     -0.88      0.00
   -8   10    7      2.09      0.00
   -7   10    7     -5.42      0.00
   -6   10    7      1.50      0.00
   -5   10    7     -0.77      0.00
   -4   10    7      0.70      0.00
   -3   10    7      7.47      0.00
   -2   10    7     -6.79      0.00
   -1   10    7      5.52      0.00
    0   10    7      1.75      0.00
    1   10    7      4.24      0.00
    2   10    7    -14.73      0.00
    3   10    7      1.65      0.00
    4   10    7      5.40      0.00
    5   10    7      2.15      0.00
    6   10    7      1.25      0.00
    7   10    7     -4.29      0.00
    8   10    7      6.46      0.00
    9   10    7     -3.87      0.00
   10   10    7      0.02      0.00
   11   10    7     -4.24      0.00
   12   10    7     -2.68      0.00
   13   10    7      2.42      0.00
   14   10    7      3.30      0.00
   15   10    7      1.70      0.00
   16   10    7      0.90      0.00
   17   10    7     -0.78      0.00
   18   10    7      2.83      0.00
   19   10    7      5.53      0.00
   -8   11    7     -2.61      0.00
   -7   11    7     -2.39      0.00
   -6   11    7      0.08      0.00
   -5   11    7      1.63      0.00
   -4   11    7     -1.87      0.00
   -3   11    7     -2.13      0.00
   -2   11    7      6.55      0.00
   -1   11    7     -2.90      0.00
    0   11    7      2.99      0.00
    1   11    7     -7.54      0.00
    2   11    7      1.49      0.00
    3   11    7      0.92      0.00
    4   11    7      0.56      0.00
    5   11    7      2.01      0.00
    6   11    7      0.32      0.00
    7   11    7      3.26      0.00
    8   11    7     -4.58      0.00
    9   11    7      7.90      0.00
   10   11    7     -6.39      0.00
   11   11    7    -10.53      0.00
   12   11    7      3.37      0.00
   13   11    7      2.90      0.00
   14   11    7      0.39      0.00
   15   11    7      1.47      0.00
   16   11    7      0.00      0.00
   17   11    7      2.74      0.00
   18   11    7      6.06      0.00
   19   11    7      3.49      0.00
   -7   12    7      1.13      0.00
   -6   12    7     -4.81      0.00
   -5   12    7      0.19      0.00
   -4   12    7     -0.70      0.00
   -3   12    7      1.77      0.00
   -2   12    7     -7.53      0.00
   -1   12    7      5.33      0.00
    0   12    7      2.48      0.00
    1   12    7     -4.10      0.00
    2   12    7     -3.40      0.00
    3   12    7     -1.00      0.00
    4   12    7      2.40      0.00
    5   12    7      7.36      0.00
    6   12    7     -9.66      0.00
    7   12    7      1.41      0.00
    8   12    7      1.29      0.00
    9   12    7     -1.22      0.00
   10   12    7     -0.21      0.00
   11   12    7     -4.59      0.00
   12   12    7     -2.63      0.00
   13   12    7     -0.66      0.00
   14   12    7      1.11      0.00
   15   12    7      3.46      0.00
   16   12    7      2.76      0.00
   17   12    7      0.63      0.00
   18   12    7      2.23      0.00
   19   12    7      6.81      0.00
   -6   13    7     -3.33      0.00
   -5   13    7      2.14      0.00
   -4   13    7     -3.16      0.00
   -3   13    7     -3.43      0.00
   -2   13    7      0.46      0.00
   -1   13    7      2.55      0.00
    0   13    7     -1.23      0.00
    1   13    7     -1.42      0.00
    2   13    7      1.61      0.00
    3   13    7      0.76      0.00
    4   13    7     -5.65      0.00
    5   13    7     -0.36      0.00
    6   13    7      2.47      0.00
    7   13    7     -9.72      0.00
    8   13    7      1.70      0.00
    9   13    7      4.92      0.00
   10   13    7     -6.40      0.00
   11   13    7      2.07      0.00
   12   13    7     -3.80      0.00
   13   13    7      1.67      0.00
   14   13    7     -0.87      0.00
   15   13    7      0.73      0.00
   16   13    7      2.16      0.00
   17   13    7     -0.92      0.00
   18   13    7      5.49      0.00
   -5   14    7     -3.30      0.00
   -4   14    7     -0.21      0.00
   -3   14    7     -3.39      0.00
   -2   14    7      1.27      0.00
   -1   14    7      2.85      0.00
    0   14    7     -1.18      0.00
    1   14    7      4.06      0.00
    2   14    7     -3.00      0.00
    3   14    7     -2.51      0.00
    4   14    7     -5.94      0.00
    5   14    7      5.02      0.00
    6   14    7     -5.44      0.00
    7   14    7     -9.37      0.00
    8   14    7      2.30      0.00
    9   14    7     -0.44      0.00
   10   14    7      1.44      0.00
   11   14    7      2.82      0.00
   12   14    7     -3.31      0.00
   13   14    7     -0.86      0.00
   14   14    7      2.06      0.00
   15   14    7     -3.51      0.00
   16   14    7     -0.39      0.00
   17   14    7     -0.12      0.00
   18   14    7      3.82      0.00
   -4   15    7     -0.41      0.00
   -3   15    7     -4.18      0.00
   -2   15    7      1.80      0.00
   -1   15    7      1.85      0.00
    0   15    7      2.97      0.00
    1   15    7     -0.52      0.00
    2   15    7     -6.33      0.00
    3   15    7      2.07      0.00
    4   15    7     -4.96      0.00
    5   15    7     -3.94      0.00
    6   15    7     -1.15      0.00
    7   15    7     -9.16      0.00
    8   15    7     -0.54      0.00
    9   15    7      1.87      0.00
   10   15    7     -2.05      0.00
   11   15    7      0.89      0.00
   12   15    7      5.66      0.00
   13   15    7     -2.76      0.00
   14   15    7     -4.22      0.00
   15   15    7     -2.07      0.00
   16   15    7     -4.08      0.00
   17   15    7      6.15      0.00
   -2   16    7     -2.12      0.00
   -1   16    7      2.37      0.00
    0   16    7      0.74      0.00
    1   16    7     -1.07      0.00
    2   16    7     -1.50      0.00
    3   16    7     -8.21      0.00
    4   16    7     -1.62      0.00
    5   16    7     -2.85      0.00
    6   16    7     -0.18      0.00
    7   16    7     -7.57      0.00
    8   16    7     -3.50      0.00
    9   16    7      1.85      0.00
   10   16    7     -3.94      0.00
   11   16    7      5.62      0.00
   12   16    7     -1.76      0.00
   13   16    7      2.83      0.00
   14   16    7     -5.28      0.00
   15   16    7     -6.67      0.00
   16   16    7      1.57      0.00
   17   16    7      3.20      0.00
   -1   17    7      0.27      0.00
    0   17    7      4.22      0.00
    1   17    7     -1.82      0.00
    2   17    7     -9.21      0.00
    3   17    7     -1.01      0.00
    4   17    7     -0.59      0.00
    5   17    7     -3.16      0.00
    6   17    7     -3.92      0.00
    7   17    7      2.45      0.00
    8   17    7     -3.71      0.00
    9   17    7     -1.47      0.00
   10   17    7      1.53      0.00
   11   17    7     -8.08      0.00
   12   17    7     11.74      0.00
   13   17    7     -4.99      0.00
   14   17    7     -6.81      0.00
   15   17    7     -3.81      0.00
   16   17    7      0.57      0.00
    1   18    7     -2.53      0.00
    2   18    7      0.89      0.00
    3   18    7     -6.75      0.00
    4   18    7     -0.77      0.00
    5   18    7     -1.02      0.00
    6   18    7      4.21      0.00
    7   18    7      2.42      0.00
    8   18    7     -1.94      0.00
    9   18    7     -0.11      0.00
   10   18    7     -9.45      0.00
   11   18    7      5.41      0.00
   12   18    7     -0.78      0.00
   13   18    7     -3.41      0.00
   14   18    7     -4.27      0.00
   15   18    7     -3.99      0.00
    4   19    7      0.81      0.00
    5   19    7      4.96      0.00
    6   19    7     -3.47      0.00
    7   19    7      7.32      0.00
    8   19    7     -0.85      0.00
    9   19    7     -5.20      0.00
   10   19    7     -1.66      0.00
   11   19    7     -2.19      0.00
   12   19    7     -1.02      0.00
   13   19    7      0.61      0.00
    8   20    7     -1.22      0.00
    9   20    7     -2.72      0.00
   -7  -15    8     -2.62      0.00
   -6  -15    8      2.99      0.00
   -5  -15    8     -2.56      0.00
   -4  -15    8     -3.05      0.00
   -3  -15    8     -1.67      0.00
   -2  -15    8      0.22      0.00
   -1  -15    8      1.21      0.00
   -9  -14    8      3.59      0.00
   -8  -14    8      2.42      0.00
   -7  -14    8      3.18      0.00
   -6  -14    8     -1.33      0.00
   -5  -14    8     -5.02      0.00
   -4  -14    8     -1.62      0.00
   -3  -14    8      2.90      0.00
   -2  -14    8     -4.75      0.00
   -1  -14    8      0.61      0.00
    0  -14    8      0.39      0.00
    1  -14    8      1.15      0.00
    2  -14    8      6.10      0.00
  -10  -13    8     -2.53      0.00
   -9  -13    8      3.70      0.00
   -8  -13    8      3.73      0.00
   -7  -13    8     -1.62      0.00
   -6  -13    8     -0.19      0.00
   -5  -13    8     -3.26      0.00
   -4  -13    8     -1.25      0.00
   -3  -13    8      1.00      0.00
   -2  -13    8     -1.52      0.00
   -1  -13    8      2.79      0.00
    0  -13    8      2.39      0.00
    1  -13    8      1.65      0.00
    2  -13    8     -3.09      0.00
    3  -13    8     14.60      0.00
    4  -13    8     -8.48      0.00
  -11  -12    8     -0.08      0.00
  -10  -12    8     -4.28      0.00
   -9  -12    8     -3.36      0.00
   -8  -12    8      7.23      0.00
   -7  -12    8     -4.08      0.00
   -6  -12    8     -0.53      0.00
   -5  -12    8     -0.87      0.00
   -4  -12    8      2.81      0.00
   -3  -12    8     -1.86      0.00
   -2  -12    8      4.97      0.00
   -1  -12    8      5.20      0.00
    0  -12    8     -2.91      0.00
    1  -12    8      3.22      0.00
    2  -12    8      6.33      0.00
    3  -12    8     -3.47      0.00
    4  -12    8      0.39      0.00
    5  -12    8      2.54      0.00
    6  -12    8      1.45      0.00
  -12  -11    8     -2.55      0.00
  -11  -11    8      1.73      0.00
  -10  -11    8     -3.72      0.00
   -9  -11    8      0.44      0.00
   -8  -11    8     -0.10      0.00
   -7  -11    8     -4.95      0.00
   -6  -11    8      5.42      0.00
   -5  -11    8     -0.40      0.00
   -4  -11    8      3.33      0.00
   -3  -11    8      6.58      0.00
   -2  -11    8      1.24      0.00
   -1  -11    8      5.96      0.00
    0  -11    8      0.13      0.00
    1  -11    8      1.14      0.00
    2  -11    8      0.36      0.00
    3  -11    8      0.15      0.00
    4  -11    8      0.18      0.00
    5  -11    8      1.58      0.00
    6  -11    8     -2.51      0.00
    7  -11    8      1.65      0.00
    8  -11    8      4.78      0.00
  -13  -10    8     -4.58      0.00
  -12  -10    8      5.05      0.00
  -11  -10    8      5.00      0.00
  -10  -10    8     -3.01      0.00
   -9  -10    8     -6.54      0.00
   -8  -10    8      1.37      0.00
   -7  -10    8      6.28      0.00
   -6  -10    8     -1.47      0.00
   -5  -10    8      4.34      0.00
   -4  -10    8      5.33      0.00
   -3  -10    8      6.52      0.00
   -2  -10    8      4.88      0.00
   -1  -10    8      3.27      0.00
    0  -10    8      0.11      0.00
    1  -10    8      1.07      0.00
    2  -10    8      0.31      0.00
    3  -10    8      0.78      0.00
    4  -10    8      3.14      0.00
    5  -10    8     -4.55      0.00
    6  -10    8      1.54      0.00
    7  -10    8      5.06      0.00
    8  -10    8     -3.41      0.00
    9  -10    8      3.81      0.00
  -13   -9    8     -2.21      0.00
  -12   -9    8      0.73      0.00
  -11   -9    8      3.89      0.00
  -10   -9    8      2.30      0.00
   -9   -9    8     -1.28      0.00
   -8   -9    8      0.74      0.00
   -7   -9    8      0.60      0.00
   -6   -9    8      4.79      0.00
   -5   -9    8      4.02      0.00
   -4   -9    8      8.49      0.00
   -3   -9    8      7.08      0.00
   -2   -9    8      0.62      0.00
   -1   -9    8      5.52      0.00
    0   -9    8      3.08      0.00
    1   -9    8     -2.92      0.00
    2   -9    8      4.43      0.00
    3   -9    8      0.12      0.00
    4   -9    8      0.82      0.00
    5   -9    8      0.64      0.00
    6   -9    8      3.84      0.00
    7   -9    8     -3.26      0.00
    8   -9    8      1.32      0.00
    9   -9    8      3.60      0.00
   10   -9    8      0.48      0.00
  -13   -8    8      0.45      0.00
  -12   -8    8      4.01      0.00
  -11   -8    8      2.07      0.00
  -10   -8    8      1.38      0.00
   -9   -8    8     -5.19      0.00
   -8   -8    8      2.52      0.00
   -7   -8    8     11.50      0.00
   -6   -8    8     -2.11      0.00
   -5   -8    8      1.98      0.00
   -4   -8    8      6.78      0.00
   -3   -8    8     14.72      0.00
   -2   -8    8     -1.21      0.00
   -1   -8    8      1.07      0.00
    0   -8    8      1.47      0.00
    1   -8    8      3.51      0.00
    2   -8    8     -3.66      0.00
    3   -8    8      6.41      0.00
    4   -8    8     -1.52      0.00
    5   -8    8      2.53      0.00
    6   -8    8      1.08      0.00
    7   -8    8     -0.14      0.00
    8   -8    8      0.42      0.00
    9   -8    8      1.88      0.00
   10   -8    8     -0.68      0.00
   11   -8    8     -0.31      0.00
  -14   -7    8      0.49      0.00
  -13   -7    8     -0.53      0.00
  -12   -7    8     -1.83      0.00
  -11   -7    8     -1.77      0.00
  -10   -7    8      5.38      0.00
   -9   -7    8     -1.62      0.00
   -8   -7    8      2.20      0.00
   -7   -7    8      6.55      0.00
   -6   -7    8     -1.62      0.00
   -5   -7    8      3.01      0.00
   -4   -7    8     19.59      0.00
   -3   -7    8    -11.73      0.00
   -2   -7    8     12.92      0.00
   -1   -7    8     -1.15      0.00
    0   -7    8      2.21      0.00
    1   -7    8     -6.69      0.00
    2   -7    8      3.87      0.00
    3   -7    8      1.08      0.00
    4   -7    8     -0.10      0.00
    5   -7    8      7.24      0.00
    6   -7    8     -2.73      0.00
    7   -7    8     -1.89      0.00
    8   -7    8      0.95      0.00
    9   -7    8      0.31      0.00
   10   -7    8      1.22      0.00
   11   -7    8     -3.10      0.00
   12   -7    8     -1.97      0.00
  -14   -6    8      0.22      0.00
  -13   -6    8      2.00      0.00
  -12   -6    8      0.11      0.00
  -11   -6    8     -4.00      0.00
  -10   -6    8      2.05      0.00
   -9   -6    8     -0.30      0.00
   -8   -6    8      6.26      0.00
   -7   -6    8      6.27      0.00
   -6   -6    8     -2.48      0.00
   -5   -6    8      6.70      0.00
   -4   -6    8     -1.98      0.00
   -3   -6    8     17.09      0.00
   -2   -6    8     -6.95      0.00
   -1   -6    8     -0.02      0.00
    0   -6    8     -2.13      0.00
    1   -6    8     -0.20      0.00
    2   -6    8      0.17      0.00
    3   -6    8      3.06      0.00
    4   -6    8     -0.35      0.00
    5   -6    8      2.05      0.00
    6   -6    8      0.45      0.00
    7   -6    8     -5.60      0.00
    8   -6    8      5.69      0.00
    9   -6    8     -2.65      0.00
   10   -6    8     -2.42      0.00
   11   -6    8     -0.96      0.00
   12   -6    8      0.35      0.00
   13   -6    8     -3.82      0.00
  -14   -5    8      5.62      0.00
  -13   -5    8     -2.23      0.00
  -12   -5    8     -1.61      0.00
  -11   -5    8      0.17      0.00
  -10   -5    8      3.63      0.00
   -9   -5    8      2.97      0.00
   -8   -5    8      1.07      0.00
   -7   -5    8      4.83      0.00
   -6   -5    8      2.86      0.00
   -5   -5    8      1.48      0.00
   -4   -5    8     10.20      0.00
   -3   -5    8    -12.42      0.00
   -2   -5    8      9.33      0.00
   -1   -5    8      7.41      0.00
    0   -5    8    -16.99      0.00
    1   -5    8     11.89      0.00
    2   -5    8     -5.83      0.00
    3   -5    8      1.47      0.00
    4   -5    8      3.77      0.00
    5   -5    8      4.04      0.00
    6   -5    8    -14.16      0.00
    7   -5    8      8.99      0.00
    8   -5    8     -6.27      0.00
    9   -5    8      4.44      0.00
   10   -5    8     -0.46      0.00
   11   -5    8     -4.53      0.00
   12   -5    8      2.16      0.00
   13   -5    8     -4.28      0.00
   14   -5    8     -1.62      0.00
  -14   -4    8      2.63      0.00
  -13   -4    8     -1.11      0.00
  -12   -4    8      2.40      0.00
  -11   -4    8     -2.15      0.00
  -10   -4    8      5.74      0.00
   -9   -4    8      1.99      0.00
   -8   -4    8      3.00      0.00
   -7   -4    8     -1.04      0.00
   -6   -4    8      7.10      0.00
   -5   -4    8     -2.79      0.00
   -4   -4    8     -0.14      0.00
   -3   -4    8      9.04      0.00
   -2   -4    8      0.58      0.00
   -1   -4    8     -8.92      0.00
    0   -4    8      3.10      0.00
    1   -4    8      3.28      0.00
    2   -4    8      8.65      0.00
    3   -4    8     -9.29      0.00
    4   -4    8      6.25      0.00
    5   -4    8     -7.05      0.00
    6   -4    8      2.37      0.00
    7   -4    8     -4.97      0.00
    8   -4    8      5.28      0.00
    9   -4    8     -3.10      0.00
   10   -4    8      0.73      0.00
   11   -4    8      3.01      0.00
   12   -4    8     -4.20      0.00
   13   -4    8     -0.96      0.00
   14   -4    8     -0.38      0.00
  -14   -3    8     -1.74      0.00
  -13   -3    8      1.91      0.00
  -12   -3    8      0.41      0.00
  -11   -3    8      3.20      0.00
  -10   -3    8      2.96      0.00
   -9   -3    8     -3.32      0.00
   -8   -3    8      0.27      0.00
   -7   -3    8      5.86      0.00
   -6   -3    8     -3.39      0.00
   -5   -3    8      6.53      0.00
   -4   -3    8    -10.75      0.00
   -3   -3    8      8.20      0.00
   -2   -3    8      3.50      0.00
   -1   -3    8     -2.39      0.00
    0   -3    8     -3.37      0.00
    1   -3    8     15.63      0.00
    2   -3    8     -6.20      0.00
    3   -3    8      2.02      0.00
    4   -3    8      3.60      0.00
    5   -3    8     -6.45      0.00
    6   -3    8     -2.14      0.00
    7   -3    8      2.36      0.00
    8   -3    8     -2.26      0.00
    9   -3    8      0.77      0.00
   10   -3    8      8.06      0.00
   11   -3    8     -6.83      0.00
   12   -3    8      2.15      0.00
   13   -3    8     -0.07      0.00
   14   -3    8      1.48      0.00
   15   -3    8     -6.40      0.00
  -14   -2    8     -1.63      0.00
  -13   -2    8      1.94      0.00
  -12   -2    8     -0.41      0.00
  -11   -2    8     -0.91      0.00
  -10   -2    8      0.79      0.00
   -9   -2    8      0.98      0.00
   -8   -2    8     -0.63      0.00
   -7   -2    8     -7.17      0.00
   -6   -2    8      9.47      0.00
   -5   -2    8    -16.92      0.00
   -4   -2    8     12.70      0.00
   -3   -2    8     -4.03      0.00
   -2   -2    8     16.53      0.00
   -1   -2    8    -25.08      0.00
    0   -2    8     17.62      0.00
    1   -2    8     -0.84      0.00
    2   -2    8     12.63      0.00
    3   -2    8     -6.91      0.00
    4   -2    8     -1.69      0.00
    5   -2    8     -0.10      0.00
    6   -2    8     -2.51      0.00
    7   -2    8      1.90      0.00
    8   -2    8      1.72      0.00
    9   -2    8     -1.41      0.00
   10   -2    8      1.78      0.00
   11   -2    8      2.94      0.00
   12   -2    8     -0.64      0.00
   13   -2    8      6.40      0.00
   14   -2    8     -2.41      0.00
   15   -2    8     -3.26      0.00
   16   -2    8     -0.50      0.00
  -13   -1    8      2.94      0.00
  -12   -1    8      3.70      0.00
  -11   -1    8     -4.69      0.00
  -10   -1    8     -5.12      0.00
   -9   -1    8      1.33      0.00
   -8   -1    8     -2.84      0.00
   -7   -1    8      1.80      0.00
   -6   -1    8     -4.10      0.00
   -5   -1    8     -6.44      0.00
   -4   -1    8     -2.30      0.00
   -3   -1    8     12.24      0.00
   -2   -1    8     -4.10      0.00
   -1   -1    8      0.15      0.00
    0   -1    8      2.30      0.00
    1   -1    8     -0.80      0.00
    2   -1    8     -0.38      0.00
    3   -1    8     14.59      0.00
    4   -1    8     -7.51      0.00
    5   -1    8    -12.52      0.00
    6   -1    8     17.34      0.00
    7   -1    8    -10.05      0.00
    8   -1    8      6.86      0.00
    9   -1    8     -3.00      0.00
   10   -1    8      2.36      0.00
   11   -1    8      1.03      0.00
   12   -1    8      3.52      0.00
   13   -1    8      4.75      0.00
   14   -1    8     -1.34      0.00
   15   -1    8     -0.11      0.00
   16   -1    8      0.82      0.00
  -13    0    8     -1.59      0.00
  -12    0    8     -1.84      0.00
  -11    0    8     -5.50      0.00
  -10    0    8      3.82      0.00
   -9    0    8     -2.78      0.00
   -8    0    8      0.33      0.00
   -7    0    8     -3.65      0.00
   -6    0    8     -7.48      0.00
   -5    0    8     -3.16      0.00
   -4    0    8     12.54      0.00
   -3    0    8    -17.95      0.00
   -2    0    8     27.09      0.00
   -1    0    8    -16.03      0.00
    0    0    8    -10.35      0.00
    1    0    8      9.17      0.00
    2    0    8      8.95      0.00
    3    0    8     -0.20      0.00
    4    0    8     -7.84      0.00
    5    0    8     10.68      0.00
    6    0    8     -8.02      0.00
    7    0    8      6.30      0.00
    8    0    8     -1.90      0.00
    9    0    8      4.81      0.00
   10    0    8     -7.82      0.00
   11    0    8      5.52      0.00
   12    0    8      5.91      0.00
   13    0    8      1.65      0.00
   14    0    8     -0.17      0.00
   15    0    8     -2.03      0.00
   16    0    8      1.54      0.00
   17    0    8     -0.32      0.00
  -13    1    8      0.52      0.00
  -12    1    8      0.43      0.00
  -11    1    8     -1.91      0.00
  -10    1    8     -1.21      0.00
   -9    1    8     -2.60      0.00
   -8    1    8      5.22      0.00
   -7    1    8     -6.55      0.00
   -6    1    8      2.20      0.00
   -5    1    8    -10.08      0.00
   -4    1    8      2.64      0.00
   -3    1    8     10.22      0.00
   -2    1    8    -10.12      0.00
   -1    1    8     10.76      0.00
    0    1    8    -11.25      0.00
    1    1    8     -3.97      0.00
    2    1    8     10.31      0.00
    3    1    8     11.05      0.00
    4    1    8     -0.56      0.00
    5    1    8    -10.35      0.00
    6    1    8      4.59      0.00
    7    1    8      0.52      0.00
    8    1    8      9.09      0.00
    9    1    8     -8.75      0.00
   10    1    8     -0.97      0.00
   11    1    8      6.90      0.00
   12    1    8      1.95      0.00
   13    1    8      0.69      0.00
   14    1    8     -0.49      0.00
   15    1    8     -2.33      0.00
   16    1    8      4.77      0.00
   17    1    8     -8.01      0.00
  -13    2    8     -2.36      0.00
  -12    2    8     -3.79      0.00
  -11    2    8      3.99      0.00
  -10    2    8      3.43      0.00
   -9    2    8     -4.04      0.00
   -8    2    8      4.97      0.00
   -7    2    8     -9.49      0.00
   -6    2    8     -3.22      0.00
   -5    2    8     13.71      0.00
   -4    2    8    -11.92      0.00
   -3    2    8      2.22      0.00
   -2    2    8     10.40      0.00
   -1    2    8      2.33      0.00
    0    2    8    -27.01      0.00
    1    2    8     24.10      0.00
    2    2    8      6.12      0.00
    3    2    8     -5.00      0.00
    4    2    8     12.97      0.00
    5    2    8    -10.79      0.00
    6    2    8      0.39      0.00
    7    2    8      7.27      0.00
    8    2    8     -7.76      0.00
    9    2    8     10.16      0.00
   10    2    8     -6.26      0.00
   11    2    8      8.08      0.00
   12    2    8     -0.14      0.00
   13    2    8     -0.46      0.00
   14    2    8     -1.04      0.00
   15    2    8      3.04      0.00
   16    2    8     -6.09      0.00
   17    2    8     -1.10      0.00
   18    2    8      0.05      0.00
  -12    3    8      0.15      0.00
  -11    3    8      4.76      0.00
  -10    3    8     -6.50      0.00
   -9    3    8      4.08      0.00
   -8    3    8     -4.38      0.00
   -7    3    8      2.80      0.00
   -6    3    8      4.29      0.00
   -5    3    8    -13.73      0.00
   -4    3    8     15.00      0.00
   -3    3    8     -2.77      0.00
   -2    3    8      1.02      0.00
   -1    3    8     -1.68      0.00
    0    3    8      2.02      0.00
    1    3    8     -1.91      0.00
    2    3    8      5.53      0.00
    3    3    8     10.45      0.00
    4    3    8      9.20      0.00
    5    3    8    -11.97      0.00
    6    3    8    -12.07      0.00
    7    3    8     19.89      0.00
    8    3    8      2.61      0.00
    9    3    8     -8.78      0.00
   10    3    8      7.70      0.00
   11    3    8      4.43      0.00
   12    3    8     -2.93      0.00
   13    3    8      3.96      0.00
   14    3    8     -3.11      0.00
   15    3    8     -1.27      0.00
   16    3    8     -2.81      0.00
   17    3    8      1.78      0.00
   18    3    8     -1.74      0.00
  -12    4    8     -0.58      0.00
  -11    4    8      1.14      0.00
  -10    4    8     -3.46      0.00
   -9    4    8      1.98      0.00
   -8    4    8     -0.88      0.00
   -7    4    8     -2.78      0.00
   -6    4    8     -3.34      0.00
   -5    4    8     20.76      0.00
   -4    4    8    -22.35      0.00
   -3    4    8     15.43      0.00
   -2    4    8     -3.55      0.00
   -1    4    8     -6.37      0.00
    0    4    8      5.93      0.00
    1    4    8     -1.88      0.00
    2    4    8      0.30      0.00
    3    4    8     16.32      0.00
    4    4    8     -1.49      0.00
    5    4    8     -5.23      0.00
    6    4    8      9.76      0.00
    7    4    8     -5.55      0.00
    8    4    8     -0.82      0.00
    9    4    8      9.66      0.00
   10    4    8      4.25      0.00
   11    4    8     -2.09      0.00
   12    4    8     -0.98      0.00
   13    4    8     -0.11      0.00
   14    4    8      1.01      0.00
   15    4    8     -1.16      0.00
   16    4    8     -5.58      0.00
   17    4    8      1.92      0.00
   18    4    8      0.16      0.00
  -11    5    8     -4.27      0.00
  -10    5    8     -3.35      0.00
   -9    5    8      2.97      0.00
   -8    5    8     -4.15      0.00
   -7    5    8      7.69      0.00
   -6    5    8     -1.69      0.00
   -5    5    8     -5.13      0.00
   -4    5    8     10.85      0.00
   -3    5    8     -1.15      0.00
   -2    5    8     -7.65      0.00
   -1    5    8     -3.03      0.00
    0    5    8      7.87      0.00
    1    5    8     -7.36      0.00
    2    5    8     -0.52      0.00
    3    5    8     13.29      0.00
    4    5    8     10.75      0.00
    5    5    8     -3.27      0.00
    6    5    8    -16.08      0.00
    7    5    8     23.69      0.00
    8    5    8     -4.97      0.00
    9    5    8      0.01      0.00
   10    5    8      4.63      0.00
   11    5    8     -3.99      0.00
   12    5    8      6.45      0.00
   13    5    8     -6.40      0.00
   14    5    8     -0.53      0.00
   15    5    8     -7.24      0.00
   16    5    8      5.81      0.00
   17    5    8      0.00      0.00
   18    5    8     -2.64      0.00
   19    5    8     -4.77      0.00
  -11    6    8     -1.26      0.00
  -10    6    8     -2.21      0.00
   -9    6    8      1.70      0.00
   -8    6    8     -2.56      0.00
   -7    6    8      1.30      0.00
   -6    6    8      5.95      0.00
   -5    6    8      0.63      0.00
   -4    6    8      2.83      0.00
   -3    6    8     -3.57      0.00
   -2    6    8     -7.38      0.00
   -1    6    8      4.51      0.00
    0    6    8      1.36      0.00
    1    6    8     -9.99      0.00
    2    6    8     -0.02      0.00
    3    6    8     24.09      0.00
    4    6    8     -8.48      0.00
    5    6    8     -1.04      0.00
    6    6    8     21.72      0.00
    7    6    8    -20.21      0.00
    8    6    8      7.12      0.00
    9    6    8      6.87      0.00
   10    6    8      1.62      0.00
   11    6    8     -4.58      0.00
   12    6    8     -0.81      0.00
   13    6    8     -2.27      0.00
   14    6    8     -1.52      0.00
   15    6    8      0.06      0.00
   16    6    8      1.03      0.00
   17    6    8     -2.08      0.00
   18    6    8     -1.33      0.00
   19    6    8     -4.56      0.00
  -10    7    8      0.48      0.00
   -9    7    8     -0.90      0.00
   -8    7    8      1.05      0.00
   -7    7    8      6.42      0.00
   -6    7    8     -2.23      0.00
   -5    7    8      3.27      0.00
   -4    7    8      2.38      0.00
   -3    7    8     -1.91      0.00
   -2    7    8     -4.75      0.00
   -1    7    8     -4.02      0.00
    0    7    8     -0.18      0.00
    1    7    8      4.84      0.00
    2    7    8     -1.67      0.00
    3    7    8      2.53      0.00
    4    7    8     13.96      0.00
    5    7    8     -4.43      0.00
    6    7    8      1.67      0.00
    7    7    8      3.39      0.00
    8    7    8      3.34      0.00
    9    7    8     -3.30      0.00
   10    7    8      0.56      0.00
   11    7    8      3.23      0.00
   12    7    8      3.52      0.00
   13    7    8    -10.93      0.00
   14    7    8      2.61      0.00
   15    7    8     -1.11      0.00
   16    7    8      2.66      0.00
   17    7    8      0.81      0.00
   18    7    8     -4.88      0.00
   19    7    8     -0.62      0.00
  -10    8    8     -0.69      0.00
   -9    8    8     -0.59      0.00
   -8    8    8     -2.34      0.00
   -7    8    8      7.42      0.00
   -6    8    8      4.58      0.00
   -5    8    8     -2.79      0.00
   -4    8    8      4.10      0.00
   -3    8    8    -10.95      0.00
   -2    8    8      0.12      0.00
   -1    8    8      2.39      0.00
    0    8    8      2.40      0.00
    1    8    8    -10.72      0.00
    2    8    8     10.82      0.00
    3    8    8      7.43      0.00
    4    8    8     -4.69      0.00
    5    8    8      2.82      0.00
    6    8    8      6.58      0.00
    7    8    8     -6.15      0.00
    8    8    8     -0.15      0.00
    9    8    8      3.37      0.00
   10    8    8      6.91      0.00
   11    8    8     -3.88      0.00
   12    8    8     -4.86      0.00
   13    8    8      1.65      0.00
   14    8    8      3.33      0.00
   15    8    8      0.60      0.00
   16    8    8     -7.25      0.00
   17    8    8      2.02      0.00
   18    8    8      1.51      0.00
   19    8    8     -3.70      0.00
   -9    9    8     -0.28      0.00
   -8    9    8      4.41      0.00
   -7    9    8      2.28      0.00
   -6    9    8     -1.23      0.00
   -5    9    8      4.76      0.00
   -4    9    8     -7.90      0.00
   -3    9    8      5.17      0.00
   -2    9    8     -7.87      0.00
   -1    9    8     -0.88      0.00
    0    9    8     -0.98      0.00
    1    9    8     11.89      0.00
    2    9    8     -2.47      0.00
    3    9    8     -8.60      0.00
    4    9    8     12.35      0.00
    5    9    8     -6.07      0.00
    6    9    8      3.06      0.00
    7    9    8     -4.77      0.00
    8    9    8      0.56      0.00
    9    9    8     -0.88      0.00
   10    9    8      4.12      0.00
   11    9    8      2.43      0.00
   12    9    8     -1.15      0.00
   13    9    8     -3.26      0.00
   14    9    8      0.04      0.00
   15    9    8     -1.22      0.00
   16    9    8      0.79      0.00
   17    9    8     -0.22      0.00
   18    9    8     -2.72      0.00
   19    9    8      0.26      0.00
   -8   10    8      3.18      0.00
   -7   10    8     -1.58      0.00
   -6   10    8      4.25      0.00
   -5   10    8      0.10      0.00
   -4   10    8     -1.99      0.00
   -3   10    8     -4.25      0.00
   -2   10    8      0.29      0.00
   -1   10    8      0.66      0.00
    0   10    8      4.57      0.00
    1   10    8     -5.18      0.00
    2   10    8      0.97      0.00
    3   10    8      5.01      0.00
    4   10    8     -1.41      0.00
    5   10    8     -2.97      0.00
    6   10    8     -6.46      0.00
    7   10    8      5.02      0.00
    8   10    8    -10.90      0.00
    9   10    8      9.43      0.00
   10   10    8      6.69      0.00
   11   10    8     -8.93      0.00
   12   10    8     -0.48      0.00
   13   10    8      3.47      0.00
   14   10    8      0.16      0.00
   15   10    8      0.18      0.00
   16   10    8     -5.54      0.00
   17   10    8      0.99      0.00
   18   10    8      0.39      0.00
   19   10    8     -3.43      0.00
   -7   11    8      1.65      0.00
   -6   11    8      1.21      0.00
   -5   11    8     -2.44      0.00
   -4   11    8      3.02      0.00
   -3   11    8      2.24      0.00
   -2   11    8     -5.51      0.00
   -1   11    8     -1.25      0.00
    0   11    8      5.27      0.00
    1   11    8      4.41      0.00
    2   11    8     -5.20      0.00
    3   11    8      0.48      0.00
    4   11    8     -4.50      0.00
    5   11    8      5.58      0.00
    6   11    8     -1.82      0.00
    7   11    8     -9.02      0.00
    8   11    8      3.41      0.00
    9   11    8      0.70      0.00
   10   11    8      4.20      0.00
   11   11    8      2.19      0.00
   12   11    8     -1.31      0.00
   13   11    8      0.59      0.00
   14   11    8     -3.95      0.00
   15   11    8      0.59      0.00
   16   11    8      3.75      0.00
   17   11    8     -1.48      0.00
   18   11    8     -8.31      0.00
   19   11    8      0.15      0.00
   -6   12    8     -4.59      0.00
   -5   12    8      7.16      0.00
   -4   12    8      0.60      0.00
   -3   12    8     -2.07      0.00
   -2   12    8      1.25      0.00
   -1   12    8      2.53      0.00
    0   12    8      2.13      0.00
    1   12    8     -6.58      0.00
    2   12    8      6.34      0.00
    3   12    8      0.12      0.00
    4   12    8     -0.29      0.00
    5   12    8     -4.20      0.00
    6   12    8      2.48      0.00
    7   12    8     -0.15      0.00
    8   12    8     -3.39      0.00
    9   12    8      8.57      0.00
   10   12    8      0.91      0.00
   11   12    8     -0.30      0.00
   12   12    8     -1.32      0.00
   13   12    8      3.14      0.00
   14   12    8     -4.77      0.00
   15   12    8      2.89      0.00
   16   12    8      0.35      0.00
   17   12    8     -3.74      0.00
   18   12    8     -3.04      0.00
   19   12    8     -0.92      0.00
   -5   13    8      1.01      0.00
   -4   13    8      3.22      0.00
   -3   13    8      1.92      0.00
   -2   13    8     -3.50      0.00
   -1   13    8      3.29      0.00
    0   13    8     -1.16      0.00
    1   13    8      3.53      0.00
    2   13    8     -0.07      0.00
    3   13    8      0.73      0.00
    4   13    8     -9.54      0.00
    5   13    8     10.04      0.00
    6   13    8      4.68      0.00
    7   13    8     -4.63      0.00
    8   13    8      1.34      0.00
    9   13    8      3.57      0.00
   10   13    8     -1.31      0.00
   11   13    8      7.54      0.00
   12   13    8     -4.22      0.00
   13   13    8     -3.51      0.00
   14   13    8      0.05      0.00
   15   13    8      1.59      0.00
   16   13    8      1.91      0.00
   17   13    8     -2.40      0.00
   18   13    8     -2.12      0.00
   -4   14    8      4.02      0.00
   -3   14    8     -3.01      0.00
   -2   14    8     -0.62      0.00
   -1   14    8      2.89      0.00
    0   14    8     -2.55      0.00
    1   14    8      3.94      0.00
    2   14    8     -1.97      0.00
    3   14    8      1.98      0.00
    4   14    8     -2.09      0.00
    5   14    8     -0.53      0.00
    6   14    8     11.20      0.00
    7   14    8     -5.49      0.00
    8   14    8      3.47      0.00
    9   14    8      5.55      0.00
   10   14    8     -2.32      0.00
   11   14    8     -0.73      0.00
   12   14    8      0.06      0.00
   13   14    8      0.36      0.00
   14   14    8     -0.67      0.00
   15   14    8      2.31      0.00
   16   14    8     -3.95      0.00
   17   14    8      2.78      0.00
   18   14    8      3.44      0.00
   -3   15    8      0.75      0.00
   -2   15    8     -2.07      0.00
   -1   15    8     -0.16      0.00
    0   15    8      1.63      0.00
    1   15    8      2.80      0.00
    2   15    8      2.60      0.00
    3   15    8     -3.66      0.00
    4   15    8     -1.57      0.00
    5   15    8      1.77      0.00
    6   15    8     10.31      0.00
    7   15    8      0.50      0.00
    8   15    8     -0.31      0.00
    9   15    8      5.11      0.00
   10   15    8     -1.74      0.00
   11   15    8      1.82      0.00
   12   15    8     -2.59      0.00
   13   15    8      3.78      0.00
   14   15    8     -0.71      0.00
   15   15    8     -0.20      0.00
   16   15    8     -2.07      0.00
   17   15    8      2.79      0.00
   18   15    8      2.19      0.00
   -2   16    8     -1.81      0.00
   -1   16    8     -3.38      0.00
    0   16    8      8.36      0.00
    1   16    8      2.08      0.00
    2   16    8     -2.67      0.00
    3   16    8      1.40      0.00
    4   16    8      0.82      0.00
    5   16    8      0.64      0.00
    6   16    8      2.70      0.00
    7   16    8      6.12      0.00
    8   16    8      1.26      0.00
    9   16    8      5.20      0.00
   10   16    8      1.95      0.00
   11   16    8    -11.91      0.00
   12   16    8     10.60      0.00
   13   16    8      3.35      0.00
   14   16    8     -2.07      0.00
   15   16    8     -1.04      0.00
   16   16    8     -3.00      0.00
   17   16    8      2.84      0.00
    0   17    8      3.59      0.00
    1   17    8      2.11      0.00
    2   17    8      6.37      0.00
    3   17    8     -5.69      0.00
    4   17    8      0.72      0.00
    5   17    8     -3.60      0.00
    6   17    8      3.56      0.00
    7   17    8      5.60      0.00
    8   17    8      2.00      0.00
    9   17    8      4.22      0.00
   10   17    8     -5.39      0.00
   11   17    8      1.78      0.00
   12   17    8      3.78      0.00
   13   17    8      4.83      0.00
   14   17    8      1.54      0.00
   15   17    8     -1.38      0.00
   16   17    8     -2.15      0.00
    2   18    8     -3.27      0.00
    3   18    8     -2.04      0.00
    4   18    8     -1.55      0.00
    5   18    8     -1.97      0.00
    6   18    8     -5.97      0.00
    7   18    8      3.92      0.00
    8   18    8      7.49      0.00
    9   18    8      0.83      0.00
   10   18    8     -0.17      0.00
   11   18    8     -1.06      0.00
   12   18    8      5.07      0.00
   13   18    8      8.66      0.00
   14   18    8      1.72      0.00
   15   18    8     -0.45      0.00
    4   19    8     -7.26      0.00
    5   19    8     -5.50      0.00
    6   19    8     -2.53      0.00
    7   19    8      4.24      0.00
    8   19    8      6.23      0.00
    9   19    8      4.40      0.00
   10   19    8     -7.55      0.00
   11   19    8      9.79      0.00
   12   19    8      3.71      0.00
   13   19    8      1.41      0.00
   -7  -14    9      1.56      0.00
   -6  -14    9      2.74      0.00
   -5  -14    9      2.65      0.00
   -4  -14    9     -0.34      0.00
   -3  -14    9     -1.07      0.00
   -2  -14    9      0.08      0.00
   -1  -14    9     -0.08      0.00
    0  -14    9      6.05      0.00
    1  -14    9     -4.16      0.00
   -9  -13    9     -1.13      0.00
   -8  -13    9      4.08      0.00
   -7  -13    9      1.86      0.00
   -6  -13    9      4.14      0.00
   -5  -13    9      0.68      0.00
   -4  -13    9     -2.31      0.00
   -3  -13    9     -1.47      0.00
   -2  -13    9     -2.52      0.00
   -1  -13    9      2.40      0.00
    0  -13    9     -3.23      0.00
    1  -13    9     -0.83      0.00
    2  -13    9      1.14      0.00
    3  -13    9      0.08      0.00
    4  -13    9     -7.81      0.00
  -10  -12    9     -1.10      0.00
   -9  -12    9     -2.50      0.00
   -8  -12    9      8.14      0.00
   -7  -12    9     -2.52      0.00
   -6  -12    9      5.83      0.00
   -5  -12    9     -0.49      0.00
   -4  -12    9     -5.60      0.00
   -3  -12    9     -5.70      0.00
   -2  -12    9     -2.87      0.00
   -1  -12    9      0.69      0.00
    0  -12    9     -1.82      0.00
    1  -12    9      1.61      0.00
    2  -12    9     -2.54      0.00
    3  -12    9      0.75      0.00
    4  -12    9      1.25      0.00
    5  -12    9     -2.70      0.00
  -11  -11    9      1.44      0.00
  -10  -11    9      0.28      0.00
   -9  -11    9     -2.64      0.00
   -8  -11    9      0.70      0.00
   -7  -11    9      4.46      0.00
   -6  -11    9      0.86      0.00
   -5  -11    9     -3.66      0.00
   -4  -11    9     -7.10      0.00
   -3  -11    9     -5.41      0.00
   -2  -11    9     -2.90      0.00
   -1  -11    9      1.14      0.00
    0  -11    9     -2.65      0.00
    1  -11    9     -1.32      0.00
    2  -11    9      5.10      0.00
    3  -11    9     -2.61      0.00
    4  -11    9      5.69      0.00
    5  -11    9     -5.67      0.00
    6  -11    9     -2.17      0.00
    7  -11    9      3.62      0.00
  -12  -10    9     -3.57      0.00
  -11  -10    9     -1.50      0.00
  -10  -10    9      0.00      0.00
   -9  -10    9      0.42      0.00
   -8  -10    9     -1.56      0.00
   -7  -10    9      2.74      0.00
   -6  -10    9     -2.86      0.00
   -5  -10    9     -5.42      0.00
   -4  -10    9     -6.70      0.00
   -3  -10    9      0.10      0.00
   -2  -10    9     -3.75      0.00
   -1  -10    9     -3.82      0.00
    0  -10    9      2.49      0.00
    1  -10    9     -2.04      0.00
    2  -10    9      2.48      0.00
    3  -10    9     -1.22      0.00
    4  -10    9      3.98      0.00
    5  -10    9     -4.51      0.00
    6  -10    9      3.89      0.00
    7  -10    9     -4.33      0.00
    8  -10    9     -1.53      0.00
  -12   -9    9     -4.84      0.00
  -11   -9    9      1.13      0.00
  -10   -9    9      3.15      0.00
   -9   -9    9     -5.84      0.00
   -8   -9    9     -3.65      0.00
   -7   -9    9      5.37      0.00
   -6   -9    9     -2.49      0.00
   -5   -9    9     -8.79      0.00
   -4   -9    9     -5.16      0.00
   -3   -9    9      2.67      0.00
   -2   -9    9     -4.39      0.00
   -1   -9    9      0.25      0.00
    0   -9    9     -4.99      0.00
    1   -9    9      1.28      0.00
    2   -9    9     -2.22      0.00
    3   -9    9      4.55      0.00
    4   -9    9     -2.38      0.00
    5   -9    9      1.54      0.00
    6   -9    9     -1.49      0.00
    7   -9    9      0.75      0.00
    8   -9    9     -2.30      0.00
    9   -9    9      2.23      0.00
   10   -9    9      1.61      0.00
  -13   -8    9      1.51      0.00
  -12   -8    9     -6.45      0.00
  -11   -8    9     -6.25      0.00
  -10   -8    9      8.73      0.00
   -9   -8    9     -5.33      0.00
   -8   -8    9     -0.26      0.00
   -7   -8    9      0.07      0.00
   -6   -8    9     -2.79      0.00
   -5   -8    9    -10.61      0.00
   -4   -8    9      6.51      0.00
   -3   -8    9     -7.24      0.00
   -2   -8    9     -0.54      0.00
   -1   -8    9     -6.31      0.00
    0   -8    9      4.40      0.00
    1   -8    9     -3.46      0.00
    2   -8    9     -1.18      0.00
    3   -8    9      4.24      0.00
    4   -8    9     -5.11      0.00
    5   -8    9      3.38      0.00
    6   -8    9      3.40      0.00
    7   -8    9     -2.18      0.00
    8   -8    9     -1.78      0.00
    9   -8    9      2.96      0.00
   10   -8    9     -1.66      0.00
   11   -8    9      3.58      0.00
  -13   -7    9     -4.33      0.00
  -12   -7    9     -0.83      0.00
  -11   -7    9     -0.61      0.00
  -10   -7    9      2.40      0.00
   -9   -7    9     -5.08      0.00
   -8   -7    9     -4.22      0.00
   -7   -7    9      6.96      0.00
   -6   -7    9     -5.28      0.00
   -5   -7    9     -3.70      0.00
   -4   -7    9     -8.61      0.00
   -3   -7    9      2.80      0.00
   -2   -7    9      0.46      0.00
   -1   -7    9     -1.97      0.00
    0   -7    9     -5.02      0.00
    1   -7    9      1.41      0.00
    2   -7    9      3.25      0.00
    3   -7    9     -2.55      0.00
    4   -7    9      2.13      0.00
    5   -7    9     -1.59      0.00
    6   -7    9      7.26      0.00
    7   -7    9     -5.08      0.00
    8   -7    9      6.25      0.00
    9   -7    9     -3.33      0.00
   10   -7    9      1.22      0.00
   11   -7    9     -1.45      0.00
   12   -7    9      4.00      0.00
  -13   -6    9     -2.48      0.00
  -12   -6    9     -0.10      0.00
  -11   -6    9     -4.21      0.00
  -10   -6    9     -1.59      0.00
   -9   -6    9      1.51      0.00
   -8   -6    9     -4.63      0.00
   -7   -6    9      1.05      0.00
   -6   -6    9     -6.27      0.00
   -5   -6    9     -1.20      0.00
   -4   -6    9      2.85      0.00
   -3   -6    9     -5.90      0.00
   -2   -6    9     -2.89      0.00
   -1   -6    9      5.66      0.00
    0   -6    9     -3.71      0.00
    1   -6    9      2.88      0.00
    2   -6    9     -3.89      0.00
    3   -6    9      3.32      0.00
    4   -6    9     -5.86      0.00
    5   -6    9     15.42      0.00
    6   -6    9     -7.20      0.00
    7   -6    9      5.04      0.00
    8   -6    9      2.74      0.00
    9   -6    9     -4.51      0.00
   10   -6    9      1.42      0.00
   11   -6    9      1.12      0.00
   12   -6    9      2.22      0.00
   13   -6    9      4.56      0.00
  -13   -5    9     -1.69      0.00
  -12   -5    9      1.46      0.00
  -11   -5    9     -5.79      0.00
  -10   -5    9     -1.32      0.00
   -9   -5    9     -4.30      0.00
   -8   -5    9      0.55      0.00
   -7   -5    9     -7.10      0.00
   -6   -5    9      2.69      0.00
   -5   -5    9     -1.44      0.00
   -4   -5    9     -5.81      0.00
   -3   -5    9      4.42      0.00
   -2   -5    9      7.18      0.00
   -1   -5    9     -6.84      0.00
    0   -5    9     -2.75      0.00
    1   -5    9     -1.38      0.00
    2   -5    9      5.62      0.00
    3   -5    9     -4.32      0.00
    4   -5    9      6.75      0.00
    5   -5    9     -3.31      0.00
    6   -5    9      8.44      0.00
    7   -5    9      1.01      0.00
    8   -5    9      0.50      0.00
    9   -5    9     -0.57      0.00
   10   -5    9     -3.51      0.00
   11   -5    9      1.97      0.00
   12   -5    9      3.91      0.00
   13   -5    9      1.74      0.00
  -13   -4    9     -3.34      0.00
  -12   -4    9     -1.60      0.00
  -11   -4    9     -1.20      0.00
  -10   -4    9     -2.77      0.00
   -9   -4    9     -1.31      0.00
   -8   -4    9     -9.93      0.00
   -7   -4    9      0.63      0.00
   -6   -4    9     -1.07      0.00
   -5   -4    9      2.89      0.00
   -4   -4    9     -0.69      0.00
   -3   -4    9      2.49      0.00
   -2   -4    9     -3.28      0.00
   -1   -4    9      8.61      0.00
    0   -4    9    -14.28      0.00
    1   -4    9      6.47      0.00
    2   -4    9      0.10      0.00
    3   -4    9     -8.21      0.00
    4   -4    9      9.38      0.00
    5   -4    9      5.67      0.00
    6   -4    9     -3.78      0.00
    7   -4    9      6.54      0.00
    8   -4    9     -1.38      0.00
    9   -4    9     -4.48      0.00
   10   -4    9      5.07      0.00
   11   -4    9     -2.56      0.00
   12   -4    9      0.54      0.00
   13   -4    9      3.30      0.00
   14   -4    9      3.20      0.00
  -13   -3    9      0.16      0.00
  -12   -3    9      1.74      0.00
  -11   -3    9     -3.89      0.00
  -10   -3    9     -3.55      0.00
   -9   -3    9     -1.80      0.00
   -8   -3    9      0.55      0.00
   -7   -3    9    -10.45      0.00
   -6   -3    9      9.21      0.00
   -5   -3    9     -6.98      0.00
   -4   -3    9      3.60      0.00
   -3   -3    9     -0.03      0.00
   -2   -3    9     16.98      0.00
   -1   -3    9    -22.89      0.00
    0   -3    9      5.88      0.00
    1   -3    9     -5.41      0.00
    2   -3    9      1.71      0.00
    3   -3    9      5.50      0.00
    4   -3    9     -3.88      0.00
    5   -3    9     -0.04      0.00
    6   -3    9      5.89      0.00
    7   -3    9      1.46      0.00
    8   -3    9      1.99      0.00
    9   -3    9     -4.05      0.00
   10   -3    9     -0.39      0.00
   11   -3    9      1.09      0.00
   12   -3    9     -2.35      0.00
   13   -3    9      3.18      0.00
   14   -3    9      2.97      0.00
   15   -3    9     -2.23      0.00
  -13   -2    9     -0.44      0.00
  -12   -2    9      4.86      0.00
  -11   -2    9     -1.97      0.00
  -10   -2    9     -0.98      0.00
   -9   -2    9     -2.02      0.00
   -8   -2    9     -7.81      0.00
   -7   -2    9      8.45      0.00
   -6   -2    9     -3.03      0.00
   -5   -2    9      2.51      0.00
   -4   -2    9     -5.86      0.00
   -3   -2    9      6.03      0.00
   -2   -2    9      0.45      0.00
   -1   -2    9     -1.59      0.00
    0   -2    9     -0.30      0.00
    1   -2    9     -7.18      0.00
    2   -2    9      2.94      0.00
    3   -2    9     -0.28      0.00
    4   -2    9      6.67      0.00
    5   -2    9     -8.73      0.00
    6   -2    9      8.30      0.00
    7   -2    9     -2.71      0.00
    8   -2    9      3.73      0.00
    9   -2    9     -4.12      0.00
   10   -2    9      5.20      0.00
   11   -2    9     -7.44      0.00
   12   -2    9      1.85      0.00
   13   -2    9     -0.06      0.00
   14   -2    9     -0.39      0.00
   15   -2    9     -1.49      0.00
   16   -2    9      0.34      0.00
  -13   -1    9      3.41      0.00
  -12   -1    9      2.70      0.00
  -11   -1    9     -4.65      0.00
  -10   -1    9      0.55      0.00
   -9   -1    9      2.38      0.00
   -8   -1    9      3.63      0.00
   -7   -1    9     -3.07      0.00
   -6   -1    9      2.54      0.00
   -5   -1    9    -11.72      0.00
   -4   -1    9     12.91      0.00
   -3   -1    9     -9.14      0.00
   -2   -1    9      9.93      0.00
   -1   -1    9      0.79      0.00
    0   -1    9     -9.91      0.00
    1   -1    9     -2.93      0.00
    2   -1    9      8.55      0.00
    3   -1    9      4.66      0.00
    4   -1    9    -11.18      0.00
    5   -1    9      5.38      0.00
    6   -1    9     -3.03      0.00
    7   -1    9      2.44      0.00
    8   -1    9     -0.71      0.00
    9   -1    9      5.19      0.00
   10   -1    9     -5.82      0.00
   11   -1    9     -0.58      0.00
   12   -1    9      1.29      0.00
   13   -1    9     -1.10      0.00
   14   -1    9     -0.47      0.00
   15   -1    9     -1.21      0.00
   16   -1    9     -2.81      0.00
  -13    0    9      1.63      0.00
  -12    0    9      3.21      0.00
  -11    0    9      2.54      0.00
  -10    0    9     -1.06      0.00
   -9    0    9     -1.87      0.00
   -8    0    9      5.42      0.00
   -7    0    9     -0.85      0.00
   -6    0    9      0.67      0.00
   -5    0    9     -2.27      0.00
   -4    0    9     -4.70      0.00
   -3    0    9      1.99      0.00
   -2    0    9      1.64      0.00
   -1    0    9      6.18      0.00
    0    0    9     -4.03      0.00
    1    0    9     -5.22      0.00
    2    0    9     -2.60      0.00
    3    0    9      7.08      0.00
    4    0    9      5.49      0.00
    5    0    9    -15.46      0.00
    6    0    9      6.37      0.00
    7    0    9     -8.76      0.00
    8    0    9     10.38      0.00
    9    0    9      0.48      0.00
   10    0    9     -3.97      0.00
   11    0    9      3.82      0.00
   12    0    9     -0.27      0.00
   13    0    9     -0.82      0.00
   14    0    9      1.46      0.00
   15    0    9     -2.58      0.00
   16    0    9      4.97      0.00
   17    0    9     -3.88      0.00
  -12    1    9     -2.43      0.00
  -11    1    9     -2.78      0.00
  -10    1    9      6.52      0.00
   -9    1    9     -0.34      0.00
   -8    1    9      4.42      0.00
   -7    1    9     -1.12      0.00
   -6    1    9    -11.99      0.00
   -5    1    9      8.52      0.00
   -4    1    9     -1.74      0.00
   -3    1    9     -6.85      0.00
   -2    1    9      1.82      0.00
   -1    1    9     18.26      0.00
    0    1    9    -26.78      0.00
    1    1    9     -1.45      0.00
    2    1    9     15.56      0.00
    3    1    9    -12.62      0.00
    4    1    9      3.77      0.00
    5    1    9      0.90      0.00
    6    1    9    -12.49      0.00
    7    1    9      6.96      0.00
    8    1    9     -2.25      0.00
    9    1    9      5.46      0.00
   10    1    9     -2.16      0.00
   11    1    9      2.24      0.00
   12    1    9      2.36      0.00
   13    1    9      1.35      0.00
   14    1    9      1.00      0.00
   15    1    9      3.60      0.00
   16    1    9     -1.60      0.00
   17    1    9      3.45      0.00
  -12    2    9     -4.31      0.00
  -11    2    9      7.17      0.00
  -10    2    9     -3.14      0.00
   -9    2    9     -1.20      0.00
   -8    2    9      5.11      0.00
   -7    2    9    -10.18      0.00
   -6    2    9     13.49      0.00
   -5    2    9    -12.72      0.00
   -4    2    9     -3.95      0.00
   -3    2    9      3.67      0.00
   -2    2    9     -1.41      0.00
   -1    2    9     -2.28      0.00
    0    2    9     -0.65      0.00
    1    2    9     -7.29      0.00
    2    2    9     -6.95      0.00
    3    2    9      2.27      0.00
    4    2    9     13.71      0.00
    5    2    9     -9.26      0.00
    6    2    9    -14.91      0.00
    7    2    9      4.52      0.00
    8    2    9      5.46      0.00
    9    2    9     -2.84      0.00
   10    2    9     -3.29      0.00
   11    2    9      8.63      0.00
   12    2    9     -3.08      0.00
   13    2    9      4.26      0.00
   14    2    9      3.29      0.00
   15    2    9     -0.33      0.00
   16    2    9      2.17      0.00
   17    2    9      2.38      0.00
   18    2    9      2.78      0.00
  -12    3    9     -4.12      0.00
  -11    3    9     -0.22      0.00
  -10    3    9      1.77      0.00
   -9    3    9      2.95      0.00
   -8    3    9     -0.16      0.00
   -7    3    9      1.86      0.00
   -6    3    9    -13.48      0.00
   -5    3    9     11.23      0.00
   -4    3    9     -8.45      0.00
   -3    3    9     -2.62      0.00
   -2    3    9      0.20      0.00
   -1    3    9      3.43      0.00
    0    3    9    -11.29      0.00
    1    3    9     -0.44      0.00
    2    3    9     -1.08      0.00
    3    3    9     -2.66      0.00
    4    3    9      9.72      0.00
    5    3    9    -12.87      0.00
    6    3    9     -0.93      0.00
    7    3    9      0.38      0.00
    8    3    9    -11.80      0.00
    9    3    9      3.06      0.00
   10    3    9      2.24      0.00
   11    3    9      1.40      0.00
   12    3    9     -0.05      0.00
   13    3    9      1.81      0.00
   14    3    9      2.26      0.00
   15    3    9      4.82      0.00
   16    3    9     -2.34      0.00
   17    3    9      1.28      0.00
   18    3    9      3.43      0.00
  -11    4    9      1.89      0.00
  -10    4    9     -3.73      0.00
   -9    4    9      7.49      0.00
   -8    4    9     -6.43      0.00
   -7    4    9      4.47      0.00
   -6    4    9      1.99      0.00
   -5    4    9     -9.40      0.00
   -4    4    9     -1.50      0.00
   -3    4    9      4.82      0.00
   -2    4    9     -0.59      0.00
   -1    4    9    -11.20      0.00
    0    4    9     13.91      0.00
    1    4    9     -5.81      0.00
    2    4    9    -13.23      0.00
    3    4    9     10.53      0.00
    4    4    9     -2.65      0.00
    5    4    9     12.28      0.00
    6    4    9    -31.06      0.00
    7    4    9      3.34      0.00
    8    4    9      3.64      0.00
    9    4    9     -9.47      0.00
   10    4    9      3.33      0.00
   11    4    9     -0.20      0.00
   12    4    9      2.19      0.00
   13    4    9      4.84      0.00
   14    4    9      2.36      0.00
   15    4    9     -2.61      0.00
   16    4    9      0.07      0.00
   17    4    9      4.31      0.00
   18    4    9      1.20      0.00
  -11    5    9     -1.24      0.00
  -10    5    9      2.87      0.00
   -9    5    9      2.12      0.00
   -8    5    9      0.40      0.00
   -7    5    9     -0.34      0.00
   -6    5    9     -6.15      0.00
   -5    5    9      4.45      0.00
   -4    5    9     -2.25      0.00
   -3    5    9      2.71      0.00
   -2    5    9     -3.41      0.00
   -1    5    9     -1.49      0.00
    0    5    9      8.05      0.00
    1    5    9     -1.01      0.00
    2    5    9    -11.68      0.00
    3    5    9      8.52      0.00
    4    5    9      5.44      0.00
    5    5    9    -20.11      0.00
    6    5    9     12.53      0.00
    7    5    9    -11.89      0.00
    8    5    9    -12.25      0.00
    9    5    9      4.82      0.00
   10    5    9      4.13      0.00
   11    5    9     -2.75      0.00
   12    5    9      4.39      0.00
   13    5    9      3.50      0.00
   14    5    9      0.08      0.00
   15    5    9      1.93      0.00
   16    5    9      0.59      0.00
   17    5    9     -0.67      0.00
   18    5    9      1.65      0.00
  -10    6    9     -0.53      0.00
   -9    6    9      2.29      0.00
   -8    6    9     -3.69      0.00
   -7    6    9      1.82      0.00
   -6    6    9      0.41      0.00
   -5    6    9     -6.04      0.00
   -4    6    9      4.42      0.00
   -3    6    9      5.68      0.00
   -2    6    9     -9.00      0.00
   -1    6    9      7.94      0.00
    0    6    9     -4.21      0.00
    1    6    9      5.21      0.00
    2    6    9     -1.74      0.00
    3    6    9     -6.59      0.00
    4    6    9      6.28      0.00
    5    6    9      1.28      0.00
    6    6    9    -13.21      0.00
    7    6    9     -4.41      0.00
    8    6    9      3.41      0.00
    9    6    9     -2.90      0.00
   10    6    9     -4.65      0.00
   11    6    9      1.16      0.00
   12    6    9     11.71      0.00
   13    6    9     -2.73      0.00
   14    6    9      1.91      0.00
   15    6    9     -3.44      0.00
   16    6    9      2.33      0.00
   17    6    9      0.69      0.00
   18    6    9      0.36      0.00
   19    6    9      1.15      0.00
  -10    7    9      1.40      0.00
   -9    7    9     -0.37      0.00
   -8    7    9     -4.18      0.00
   -7    7    9     -2.77      0.00
   -6    7    9      3.62      0.00
   -5    7    9     -2.46      0.00
   -4    7    9      7.85      0.00
   -3    7    9     -6.62      0.00
   -2    7    9      4.52      0.00
   -1    7    9     -1.85      0.00
    0    7    9      4.54      0.00
    1    7    9      0.06      0.00
    2    7    9    -12.10      0.00
    3    7    9     12.20      0.00
    4    7    9     -1.70      0.00
    5    7    9    -12.05      0.00
    6    7    9     10.51      0.00
    7    7    9     -7.85      0.00
    8    7    9     -4.84      0.00
    9    7    9     -2.61      0.00
   10    7    9      1.91      0.00
   11    7    9      3.91      0.00
   12    7    9     -4.91      0.00
   13    7    9      0.79      0.00
   14    7    9      2.42      0.00
   15    7    9      2.93      0.00
   16    7    9     -1.94      0.00
   17    7    9     -2.73      0.00
   18    7    9      3.38      0.00
   19    7    9     -1.54      0.00
   -9    8    9     -2.15      0.00
   -8    8    9     -2.06      0.00
   -7    8    9      2.03      0.00
   -6    8    9     -4.27      0.00
   -5    8    9      6.09      0.00
   -4    8    9     -2.48      0.00
   -3    8    9      7.32      0.00
   -2    8    9     -1.75      0.00
   -1    8    9      0.45      0.00
    0    8    9     -4.61      0.00
    1    8    9      0.13      0.00
    2    8    9      9.53      0.00
    3    8    9    -17.17      0.00
    4    8    9      9.56      0.00
    5    8    9     -0.82      0.00
    6    8    9     -1.82      0.00
    7    8    9     -0.05      0.00
    8    8    9      1.49      0.00
    9    8    9     -8.44      0.00
   10    8    9     -1.00      0.00
   11    8    9      0.01      0.00
   12    8    9      2.45      0.00
   13    8    9     -2.63      0.00
   14    8    9      0.02      0.00
   15    8    9      2.08      0.00
   16    8    9     -1.75      0.00
   17    8    9      4.17      0.00
   18    8    9     -3.86      0.00
   19    8    9      2.96      0.00
   -8    9    9      0.72      0.00
   -7    9    9     -4.60      0.00
   -6    9    9      4.89      0.00
   -5    9    9      4.29      0.00
   -4    9    9     -2.88      0.00
   -3    9    9      4.86      0.00
   -2    9    9     -0.65      0.00
   -1    9    9     -0.39      0.00
    0    9    9      5.78      0.00
    1    9    9     -7.30      0.00
    2    9    9     -6.08      0.00
    3    9    9      7.25      0.00
    4    9    9     -0.02      0.00
    5    9    9      3.17      0.00
    6    9    9     -3.79      0.00
    7    9    9      9.64      0.00
    8    9    9     -9.87      0.00
    9    9    9     -3.65      0.00
   10    9    9      9.47      0.00
   11    9    9     -5.04      0.00
   12    9    9     -6.73      0.00
   13    9    9     -0.87      0.00
   14    9    9      2.59      0.00
   15    9    9      8.01      0.00
   16    9    9     -6.67      0.00
   17    9    9      0.11      0.00
   18    9    9      1.46      0.00
   19    9    9     -1.78      0.00
   -8   10    9     -0.58      0.00
   -7   10    9      0.19      0.00
   -6   10    9      2.21      0.00
   -5   10    9     -0.40      0.00
   -4   10    9      1.63      0.00
   -3   10    9      6.12      0.00
   -2   10    9      0.23      0.00
   -1   10    9     -3.39      0.00
    0   10    9     -2.81      0.00
    1   10    9      6.24      0.00
    2   10    9     -2.64      0.00
    3   10    9     -2.48      0.00
    4   10    9      1.23      0.00
    5   10    9      0.72      0.00
    6   10    9     11.37      0.00
    7   10    9     -2.08      0.00
    8   10    9     -4.11      0.00
    9   10    9     -1.00      0.00
   10   10    9     -0.74      0.00
   11   10    9      2.00      0.00
   12   10    9     -4.05      0.00
   13   10    9     -0.74      0.00
   14   10    9     -2.49      0.00
   15   10    9     -1.76      0.00
   16   10    9      4.93      0.00
   17   10    9      3.05      0.00
   18   10    9     -5.50      0.00
   19   10    9     -0.33      0.00
   -7   11    9      2.01      0.00
   -6   11    9     -0.81      0.00
   -5   11    9      2.52      0.00
   -4   11    9      2.28      0.00
   -3   11    9     -0.18      0.00
   -2   11    9     -0.63      0.00
   -1   11    9     -0.50      0.00
    0   11    9      7.51      0.00
    1   11    9    -12.27      0.00
    2   11    9      1.28      0.00
    3   11    9      2.76      0.00
    4   11    9      2.11      0.00
    5   11    9      1.84      0.00
    6   11    9      1.41      0.00
    7   11    9      2.71      0.00
    8   11    9     -6.53      0.00
    9   11    9     -1.66      0.00
   10   11    9      7.93      0.00
   11   11    9     -4.84      0.00
   12   11    9     -8.48      0.00
   13   11    9      2.91      0.00
   14   11    9     -4.56      0.00
   15   11    9      2.57      0.00
   16   11    9      2.68      0.00
   17   11    9      0.13      0.00
   18   11    9     -1.08      0.00
   19   11    9     -1.84      0.00
   -6   12    9      0.55      0.00
   -5   12    9     -2.79      0.00
   -4   12    9      3.84      0.00
   -3   12    9      0.40      0.00
   -2   12    9     -0.34      0.00
   -1   12    9     -4.11      0.00
    0   12    9     -2.47      0.00
    1   12    9      1.89      0.00
    2   12    9     -0.54      0.00
    3   12    9      4.20      0.00
    4   12    9    -13.36      0.00
    5   12    9      8.40      0.00
    6   12    9      6.65      0.00
    7   12    9     -3.85      0.00
    8   12    9     -6.05      0.00
    9   12    9      0.72      0.00
   10   12    9     -4.04      0.00
   11   12    9      3.09      0.00
   12   12    9      1.36      0.00
   13   12    9     -5.41      0.00
   14   12    9     -3.75      0.00
   15   12    9      1.36      0.00
   16   12    9      4.96      0.00
   17   12    9      2.07      0.00
   18   12    9     -4.64      0.00
   19   12    9     -0.92      0.00
   -5   13    9      2.30      0.00
   -4   13    9     -0.81      0.00
   -3   13    9      1.04      0.00
   -2   13    9     -6.56      0.00
   -1   13    9      6.07      0.00
    0   13    9     -4.95      0.00
    1   13    9     -3.62      0.00
    2   13    9      1.14      0.00
    3   13    9     -0.95      0.00
    4   13    9      2.92      0.00
    5   13    9     -6.59      0.00
    6   13    9      8.69      0.00
    7   13    9     -5.19      0.00
    8   13    9     -7.08      0.00
    9   13    9      5.63      0.00
   10   13    9     -3.41      0.00
   11   13    9      3.78      0.00
   12   13    9     -4.52      0.00
   13   13    9      1.12      0.00
   14   13    9     -1.05      0.00
   15   13    9      4.00      0.00
   16   13    9     -2.78      0.00
   17   13    9     -2.43      0.00
   18   13    9     -1.74      0.00
   -4   14    9     -1.53      0.00
   -3   14    9      1.06      0.00
   -2   14    9     -0.15      0.00
   -1   14    9     -1.04      0.00
    0   14    9     -4.14      0.00
    1   14    9      1.32      0.00
    2   14    9      0.41      0.00
    3   14    9      1.11      0.00
    4   14    9     -6.01      0.00
    5   14    9     -1.24      0.00
    6   14    9      8.58      0.00
    7   14    9     -4.37      0.00
    8   14    9     -4.53      0.00
    9   14    9      0.68      0.00
   10   14    9     -2.87      0.00
   11   14    9      4.90      0.00
   12   14    9     -1.41      0.00
   13   14    9      2.35      0.00
   14   14    9     -2.04      0.00
   15   14    9      1.59      0.00
   16   14    9     -3.25      0.00
   17   14    9     -5.03      0.00
   18   14    9      0.05      0.00
   -3   15    9     -0.10      0.00
   -2   15    9      1.57      0.00
   -1   15    9     -4.94      0.00
    0   15    9      2.96      0.00
    1   15    9     -0.73      0.00
    2   15    9     -4.01      0.00
    3   15    9      0.44      0.00
    4   15    9      3.08      0.00
    5   15    9     -2.83      0.00
    6   15    9     -1.26      0.00
    7   15    9      0.24      0.00
    8   15    9     -6.17      0.00
    9   15    9      0.21      0.00
   10   15    9      7.15      0.00
   11   15    9    -11.14      0.00
   12   15    9      5.24      0.00
   13   15    9      3.77      0.00
   14   15    9      0.07      0.00
   15   15    9      0.91      0.00
   16   15    9     -6.40      0.00
   17   15    9     -1.94      0.00
   18   15    9     -0.47      0.00
   -1   16    9     -2.83      0.00
    0   16    9     -0.55      0.00
    1   16    9     -3.84      0.00
    2   16    9      4.74      0.00
    3   16    9     -0.96      0.00
    4   16    9     -0.50      0.00
    5   16    9     -5.79      0.00
    6   16    9      0.11      0.00
    7   16    9      1.71      0.00
    8   16    9     -6.82      0.00
    9   16    9      3.21      0.00
   10   16    9     -3.80      0.00
   11   16    9     -0.65      0.00
   12   16    9      2.49      0.00
   13   16    9      2.38      0.00
   14   16    9      1.93      0.00
   15   16    9     -0.18      0.00
   16   16    9     -3.49      0.00
   17   16    9      0.75      0.00
    0   17    9     -3.55      0.00
    1   17    9      3.96      0.00
    2   17    9     -0.66      0.00
    3   17    9     -2.91      0.00
    4   17    9      3.14      0.00
    5   17    9      0.70      0.00
    6   17    9     -5.89      0.00
    7   17    9     -2.64      0.00
    8   17    9      1.57      0.00
    9   17    9      0.25      0.00
   10   17    9      0.95      0.00
   11   17    9     -5.91      0.00
   12   17    9     -2.43      0.00
   13   17    9      6.93      0.00
   14   17    9     -0.56      0.00
   15   17    9     -0.11      0.00
   16   17    9     -0.51      0.00
    2   18    9     -0.11      0.00
    3   18    9      4.33      0.00
    4   18    9      1.80      0.00
    5   18    9     -2.29      0.00
    6   18    9     -2.86      0.00
    7   18    9      0.28      0.00
    8   18    9      1.53      0.00
    9   18    9      3.35      0.00
   10   18    9    -13.32      0.00
   11   18    9      0.48      0.00
   12   18    9      1.06      0.00
   13   18    9     -4.74      0.00
   14   18    9      1.97      0.00
   15   18    9      0.83      0.00
    4   19    9      1.65      0.00
    5   19    9      6.92      0.00
    6   19    9     -3.93      0.00
    7   19    9     -5.44      0.00
    8   19    9      0.02      0.00
    9   19    9      2.44      0.00
   10   19    9    -10.03      0.00
   11   19    9      0.04      0.00
   12   19    9     -5.51      0.00
   13   19    9     -2.61      0.00
   -4  -14   10     -2.21      0.00
   -3  -14   10     -0.20      0.00
   -2  -14   10      4.19      0.00
   -7  -13   10     -4.86      0.00
   -6  -13   10      1.09      0.00
   -5  -13   10     -0.50      0.00
   -4  -13   10      3.32      0.00
   -3  -13   10      1.18      0.00
   -2  -13   10     -0.71      0.00
   -1  -13   10      3.95      0.00
    0  -13   10     -1.06      0.00
    1  -13   10      1.33      0.00
    2  -13   10     -2.54      0.00
   -9  -12   10     -0.58      0.00
   -8  -12   10     -2.91      0.00
   -7  -12   10     -1.19      0.00
   -6  -12   10     -1.17      0.00
   -5  -12   10      3.51      0.00
   -4  -12   10      2.40      0.00
   -3  -12   10      2.38      0.00
   -2  -12   10      5.55      0.00
   -1  -12   10      4.58      0.00
    0  -12   10     -5.02      0.00
    1  -12   10     -0.50      0.00
    2  -12   10      0.00      0.00
    3  -12   10     -2.50      0.00
    4  -12   10     -0.59      0.00
    5  -12   10     -1.73      0.00
  -10  -11   10      1.92      0.00
   -9  -11   10     -0.70      0.00
   -8  -11   10     -3.74      0.00
   -7  -11   10      1.87      0.00
   -6  -11   10     -1.01      0.00
   -5  -11   10      4.30      0.00
   -4  -11   10      0.15      0.00
   -3  -11   10      7.05      0.00
   -2  -11   10      5.33      0.00
   -1  -11   10     -2.37      0.00
    0  -11   10      0.33      0.00
    1  -11   10     -0.46      0.00
    2  -11   10      0.16      0.00
    3  -11   10     -9.41      0.00
    4  -11   10      3.49      0.00
    5  -11   10     -3.28      0.00
    6  -11   10      3.12      0.00
  -11  -10   10      0.17      0.00
  -10  -10   10      4.57      0.00
   -9  -10   10      0.95      0.00
   -8  -10   10     -7.40      0.00
   -7  -10   10      5.29      0.00
   -6  -10   10      1.90      0.00
   -5  -10   10     -1.84      0.00
   -4  -10   10      3.46      0.00
   -3  -10   10      4.39      0.00
   -2  -10   10     -0.07      0.00
   -1  -10   10      1.55      0.00
    0  -10   10      2.83      0.00
    1  -10   10     -4.65      0.00
    2  -10   10     -2.07      0.00
    3  -10   10     -1.04      0.00
    4  -10   10     -2.51      0.00
    5  -10   10      1.44      0.00
    6  -10   10     -0.02      0.00
    7  -10   10     -0.33      0.00
    8  -10   10     -3.60      0.00
  -11   -9   10     -7.26      0.00
  -10   -9   10      8.22      0.00
   -9   -9   10     -2.25      0.00
   -8   -9   10     -2.12      0.00
   -7   -9   10      3.20      0.00
   -6   -9   10      0.75      0.00
   -5   -9   10     -0.32      0.00
   -4   -9   10     -0.15      0.00
   -3   -9   10      2.30      0.00
   -2   -9   10      3.72      0.00
   -1   -9   10     -3.50      0.00
    0   -9   10      0.58      0.00
    1   -9   10      3.64      0.00
    2   -9   10     -5.59      0.00
    3   -9   10      1.51      0.00
    4   -9   10     -3.86      0.00
    5   -9   10      0.76      0.00
    6   -9   10      3.72      0.00
    7   -9   10     -1.16      0.00
    8   -9   10     -8.97      0.00
    9   -9   10      3.37      0.00
  -12   -8   10     -5.94      0.00
  -11   -8   10      0.97      0.00
  -10   -8   10      4.99      0.00
   -9   -8   10     -2.83      0.00
   -8   -8   10     -4.58      0.00
   -7   -8   10      0.57      0.00
   -6   -8   10      8.74      0.00
   -5   -8   10     -1.46      0.00
   -4   -8   10     -3.91      0.00
   -3   -8   10      1.66      0.00
   -1   -8   10      4.71      0.00
    0   -8   10     -1.74      0.00
    1   -8   10     -3.17      0.00
    2   -8   10     -0.21      0.00
    3   -8   10      0.10      0.00
    4   -8   10      0.31      0.00
    5   -8   10     -2.08      0.00
    6   -8   10      4.04      0.00
    7   -8   10     -6.98      0.00
    8   -8   10      1.94      0.00
    9   -8   10     -1.93      0.00
   10   -8   10      3.82      0.00
  -12   -7   10      2.85      0.00
  -11   -7   10     -4.87      0.00
  -10   -7   10      0.91      0.00
   -9   -7   10     -0.52      0.00
   -8   -7   10     -3.85      0.00
   -7   -7   10      7.24      0.00
   -6   -7   10     -1.77      0.00
   -5   -7   10      1.11      0.00
   -4   -7   10      2.68      0.00
   -3   -7   10     -0.33      0.00
   -2   -7   10     -0.39      0.00
   -1   -7   10     -2.02      0.00
    0   -7   10      0.14      0.00
    1   -7   10     -0.11      0.00
    2   -7   10     -2.96      0.00
    3   -7   10      4.83      0.00
    4   -7   10     -7.57      0.00
    5   -7   10      4.06      0.00
    6   -7   10     -0.97      0.00
    7   -7   10     -3.55      0.00
    8   -7   10      1.80      0.00
    9   -7   10      0.25      0.00
   10   -7   10     -0.05      0.00
   11   -7   10      0.60      0.00
  -12   -6   10      4.09      0.00
  -11   -6   10     -0.12      0.00
  -10   -6   10     -2.32      0.00
   -9   -6   10     -1.57      0.00
   -8   -6   10      1.10      0.00
   -7   -6   10      0.55      0.00
   -6   -6   10      3.07      0.00
   -5   -6   10      7.01      0.00
   -4   -6   10     -7.79      0.00
   -3   -6   10     -2.94      0.00
   -2   -6   10      6.03      0.00
   -1   -6   10      0.01      0.00
    0   -6   10     -8.71      0.00
    1   -6   10     -0.16      0.00
    2   -6   10      3.93      0.00
    3   -6   10     -4.54      0.00
    4   -6   10      4.81      0.00
    5   -6   10     -7.15      0.00
    6   -6   10      1.42      0.00
    7   -6   10     -1.79      0.00
    8   -6   10      1.68      0.00
    9   -6   10      1.59      0.00
   10   -6   10     -0.11      0.00
   11   -6   10     -3.98      0.00
   12   -6   10     -1.57      0.00
  -12   -5   10      0.08      0.00
  -11   -5   10      2.85      0.00
  -10   -5   10     -6.44      0.00
   -9   -5   10      5.79      0.00
   -8   -5   10      0.71      0.00
   -7   -5   10     -1.26      0.00
   -6   -5   10      2.07      0.00
   -5   -5   10      0.74      0.00
   -4   -5   10     -3.13      0.00
   -3   -5   10      5.80      0.00
   -2   -5   10    -10.69      0.00
   -1   -5   10      1.03      0.00
    0   -5   10     -0.16      0.00
    1   -5   10     -2.90      0.00
    2   -5   10      4.98      0.00
    3   -5   10     -5.58      0.00
    4   -5   10     -4.30      0.00
    5   -5   10      7.79      0.00
    6   -5   10     -6.70      0.00
    7   -5   10      0.36      0.00
    8   -5   10      4.43      0.00
    9   -5   10     -2.72      0.00
   10   -5   10      0.70      0.00
   11   -5   10     -0.72      0.00
   12   -5   10     -3.26      0.00
   13   -5   10      0.21      0.00
  -12   -4   10      4.28      0.00
  -11   -4   10     -0.37      0.00
  -10   -4   10     -2.22      0.00
   -9   -4   10      1.04      0.00
   -8   -4   10      6.62      0.00
   -7   -4   10     -4.02      0.00
   -6   -4   10      3.12      0.00
   -5   -4   10     -4.23      0.00
   -4   -4   10      1.52      0.00
   -3   -4   10    -11.82      0.00
   -2   -4   10     15.52      0.00
   -1   -4   10     -8.27      0.00
    0   -4   10     -4.79      0.00
    1   -4   10      2.68      0.00
    2   -4   10     -3.98      0.00
    3   -4   10      3.09      0.00
    4   -4   10      1.69      0.00
    5   -4   10     -7.72      0.00
    6   -4   10      1.85      0.00
    7   -4   10      3.93      0.00
    8   -4   10      0.34      0.00
    9   -4   10      1.80      0.00
   10   -4   10     -2.92      0.00
   11   -4   10      0.55      0.00
   12   -4   10     -2.41      0.00
   13   -4   10     -0.49      0.00
   14   -4   10      4.18      0.00
  -12   -3   10      3.20      0.00
  -11   -3   10     -1.63      0.00
  -10   -3   10      1.26      0.00
   -9   -3   10      7.18      0.00
   -8   -3   10     -7.46      0.00
   -7   -3   10      4.49      0.00
   -6   -3   10     -2.25      0.00
   -5   -3   10      2.47      0.00
   -4   -3   10     -6.93      0.00
   -3   -3   10      3.37      0.00
   -2   -3   10     -1.65      0.00
   -1   -3   10     -2.51      0.00
    0   -3   10      5.93      0.00
    1   -3   10     -8.92      0.00
    2   -3   10      5.22      0.00
    3   -3   10     -7.35      0.00
    4   -3   10      1.87      0.00
    5   -3   10      0.22      0.00
    6   -3   10      2.56      0.00
    7   -3   10     -2.58      0.00
    8   -3   10      5.20      0.00
    9   -3   10     -3.90      0.00
   10   -3   10      6.49      0.00
   11   -3   10     -3.77      0.00
   12   -3   10     -2.09      0.00
   13   -3   10      3.97      0.00
   14   -3   10      1.38      0.00
   15   -3   10      1.72      0.00
  -12   -2   10      2.82      0.00
  -11   -2   10     -1.44      0.00
  -10   -2   10     -0.63      0.00
   -9   -2   10     -1.08      0.00
   -8   -2   10      5.61      0.00
   -7   -2   10     -1.74      0.00
   -6   -2   10      2.31      0.00
   -5   -2   10     -6.55      0.00
   -4   -2   10     -0.97      0.00
   -3   -2   10      1.38      0.00
   -2   -2   10      2.96      0.00
   -1   -2   10      0.77      0.00
    0   -2   10     -2.71      0.00
    1   -2   10     -5.66      0.00
    2   -2   10     -5.61      0.00
    3   -2   10     11.61      0.00
    4   -2   10    -11.66      0.00
    5   -2   10      2.63      0.00
    6   -2   10     -0.61      0.00
    8   -2   10      2.19      0.00
    9   -2   10      2.07      0.00
   10   -2   10     -0.65      0.00
   11   -2   10     -3.20      0.00
   12   -2   10      4.32      0.00
   13   -2   10      0.46      0.00
   14   -2   10      5.39      0.00
   15   -2   10      5.50      0.00
  -12   -1   10      1.63      0.00
  -11   -1   10      1.93      0.00
  -10   -1   10      0.80      0.00
   -9   -1   10     -3.38      0.00
   -8   -1   10     -3.22      0.00
   -7   -1   10      3.89      0.00
   -6   -1   10      1.99      0.00
   -5   -1   10     -0.51      0.00
   -4   -1   10      0.50      0.00
   -3   -1   10     -7.11      0.00
   -2   -1   10      0.83      0.00
   -1   -1   10      4.06      0.00
    0   -1   10      1.73      0.00
    1   -1   10    -10.52      0.00
    2   -1   10      0.91      0.00
    3   -1   10    -10.28      0.00
    4   -1   10     11.39      0.00
    5   -1   10     -6.58      0.00
    6   -1   10      7.16      0.00
    7   -1   10     -4.71      0.00
    8   -1   10      3.30      0.00
    9   -1   10      3.14      0.00
   10   -1   10     -2.31      0.00
   11   -1   10     -1.63      0.00
   12   -1   10      3.34      0.00
   13   -1   10      1.45      0.00
   14   -1   10      4.89      0.00
   15   -1   10      3.19      0.00
   16   -1   10      5.10      0.00
  -12    0   10      0.64      0.00
  -11    0   10     -2.53      0.00
  -10    0   10     -3.40      0.00
   -9    0   10     -0.60      0.00
   -8    0   10      2.29      0.00
   -7    0   10      6.00      0.00
   -6    0   10     -3.95      0.00
   -5    0   10     -0.78      0.00
   -4    0   10     -0.37      0.00
   -3    0   10      0.40      0.00
   -2    0   10     -9.34      0.00
   -1    0   10     17.39      0.00
    0    0   10     -7.93      0.00
    1    0   10    -12.78      0.00
    2    0   10      7.09      0.00
    3    0   10     -2.73      0.00
    4    0   10     -1.17      0.00
    5    0   10      5.39      0.00
    6    0   10     -0.28      0.00
    7    0   10     -0.81      0.00
    8    0   10      0.22      0.00
    9    0   10      2.53      0.00
   10    0   10     -5.45      0.00
   11    0   10     -2.09      0.00
   12    0   10      1.41      0.00
   13    0   10      2.23      0.00
   14    0   10      1.35      0.00
   15    0   10      4.80      0.00
   16    0   10     -3.46      0.00
  -12    1   10     -3.88      0.00
  -11    1   10      5.41      0.00
  -10    1   10      0.85      0.00
   -9    1   10     -8.71      0.00
   -8    1   10      8.42      0.00
   -7    1   10     -3.76      0.00
   -6    1   10      7.47      0.00
   -5    1   10      3.52      0.00
   -4    1   10     -6.55      0.00
   -3    1   10     -4.96      0.00
   -2    1   10      5.51      0.00
   -1    1   10      2.51      0.00
    0    1   10      2.95      0.00
    1    1   10     -1.41      0.00
    2    1   10     -8.69      0.00
    3    1   10     -4.77      0.00
    4    1   10     14.73      0.00
    5    1   10      5.95      0.00
    6    1   10     -9.50      0.00
    7    1   10      0.48      0.00
    8    1   10      0.46      0.00
    9    1   10      1.47      0.00
   10    1   10    -10.72      0.00
   11    1   10      4.54      0.00
   12    1   10     -3.53      0.00
   13    1   10      0.47      0.00
   14    1   10      1.11      0.00
   15    1   10     -1.65      0.00
   16    1   10     -2.05      0.00
   17    1   10      3.25      0.00
  -11    2   10     -3.04      0.00
  -10    2   10     -1.16      0.00
   -9    2   10      4.34      0.00
   -8    2   10      2.40      0.00
   -7    2   10      6.78      0.00
   -6    2   10     -3.69      0.00
   -5    2   10      1.53      0.00
   -4    2   10      1.12      0.00
   -3    2   10      1.61      0.00
   -2    2   10     -3.02      0.00
   -1    2   10     11.98      0.00
    0    2   10     -0.39      0.00
    1    2   10    -12.58      0.00
    2    2   10      9.35      0.00
    3    2   10     -8.70      0.00
    4    2   10     12.85      0.00
    5    2   10      0.42      0.00
    6    2   10     -2.73      0.00
    7    2   10      6.07      0.00
    8    2   10     -4.46      0.00
    9    2   10     -2.79      0.00
   10    2   10     -2.14      0.00
   11    2   10      1.54      0.00
   12    2   10     -3.12      0.00
   13    2   10     -0.51      0.00
   14    2   10      0.11      0.00
   15    2   10     -2.44      0.00
   16    2   10      0.34      0.00
   17    2   10      2.83      0.00
  -11    3   10      2.82      0.00
  -10    3   10      0.46      0.00
   -9    3   10      1.63      0.00
   -8    3   10      0.55      0.00
   -7    3   10      1.35      0.00
   -6    3   10      8.93      0.00
   -5    3   10     -0.11      0.00
   -4    3   10     -4.15      0.00
   -3    3   10      2.49      0.00
   -2    3   10      9.74      0.00
   -1    3   10    -10.81      0.00
    0    3   10      6.95      0.00
    1    3   10      6.69      0.00
    2    3   10    -20.01      0.00
    3    3   10      7.09      0.00
    4    3   10      0.68      0.00
    5    3   10     19.81      0.00
    6    3   10     -8.90      0.00
    7    3   10     -2.00      0.00
    8    3   10      7.74      0.00
    9    3   10     -2.17      0.00
   10    3   10     -3.20      0.00
   11    3   10      1.88      0.00
   12    3   10     -2.81      0.00
   13    3   10      1.62      0.00
   14    3   10      0.27      0.00
   15    3   10     -0.43      0.00
   16    3   10     -1.32      0.00
   17    3   10      3.37      0.00
   18    3   10     -0.03      0.00
  -11    4   10     -2.67      0.00
  -10    4   10     -0.49      0.00
   -9    4   10      4.12      0.00
   -8    4   10      0.53      0.00
   -7    4   10      8.64      0.00
   -6    4   10     -5.81      0.00
   -5    4   10      2.62      0.00
   -4    4   10      2.06      0.00
   -3    4   10      2.86      0.00
   -2    4   10     -0.39      0.00
   -1    4   10     -2.65      0.00
    0    4   10     -0.13      0.00
    2    4   10     -7.83      0.00
    3    4   10     -2.55      0.00
    4    4   10     10.86      0.00
    5    4   10     -2.54      0.00
    6    4   10      7.35      0.00
    7    4   10      9.41      0.00
    8    4   10     -5.07      0.00
    9    4   10     -4.32      0.00
   10    4   10      7.00      0.00
   11    4   10     -4.39      0.00
   12    4   10     -1.89      0.00
   13    4   10      2.68      0.00
   14    4   10     -2.89      0.00
   15    4   10      4.13      0.00
   16    4   10      1.78      0.00
   17    4   10     -0.55      0.00
   18    4   10     -2.30      0.00
  -10    5   10     -0.47      0.00
   -9    5   10      3.04      0.00
   -8    5   10     -1.80      0.00
   -7    5   10      2.00      0.00
   -6    5   10      5.23      0.00
   -5    5   10      1.07      0.00
   -4    5   10     -9.63      0.00
   -3    5   10     16.08      0.00
   -2    5   10     -9.40      0.00
   -1    5   10     -3.80      0.00
    0    5   10      3.47      0.00
    1    5   10     -1.12      0.00
    2    5   10     -4.37      0.00
    3    5   10     -4.79      0.00
    4    5   10     -1.86      0.00
    5    5   10     15.35      0.00
    6    5   10      1.45      0.00
    7    5   10     -5.66      0.00
    8    5   10      6.98      0.00
    9    5   10      2.69      0.00
   10    5   10     -6.84      0.00
   11    5   10     -6.42      0.00
   12    5   10      0.75      0.00
   13    5   10      3.67      0.00
   14    5   10      2.11      0.00
   15    5   10     -0.65      0.00
   16    5   10      1.26      0.00
   17    5   10      0.18      0.00
   18    5   10     -0.68      0.00
  -10    6   10      2.18      0.00
   -9    6   10     -1.78      0.00
   -8    6   10      4.74      0.00
   -7    6   10     -0.95      0.00
   -6    6   10      2.08      0.00
   -5    6   10     -5.88      0.00
   -4    6   10     11.45      0.00
   -3    6   10     -5.69      0.00
   -2    6   10     -2.73      0.00
   -1    6   10      5.01      0.00
    0    6   10    -10.54      0.00
    1    6   10     12.06      0.00
    2    6   10    -11.93      0.00
    3    6   10     -5.99      0.00
    4    6   10     13.85      0.00
    5    6   10    -13.89      0.00
    6    6   10     10.69      0.00
    7    6   10      4.55      0.00
    8    6   10     -2.91      0.00
    9    6   10     -2.01      0.00
   10    6   10     -4.39      0.00
   11    6   10     -2.48      0.00
   12    6   10     -0.22      0.00
   13    6   10     -0.13      0.00
   14    6   10      2.63      0.00
   15    6   10      3.34      0.00
   16    6   10      3.13      0.00
   17    6   10     -4.27      0.00
   18    6   10      1.00      0.00
   19    6   10     -0.83      0.00
   -9    7   10      1.38      0.00
   -8    7   10     -0.73      0.00
   -7    7   10      1.76      0.00
   -6    7   10     -2.10      0.00
   -5    7   10      3.70      0.00
   -4    7   10     -4.07      0.00
   -3    7   10      3.91      0.00
   -2    7   10     -1.20      0.00
   -1    7   10     -0.87      0.00
    0    7   10     -0.07      0.00
    1    7   10     -6.22      0.00
    2    7   10     12.10      0.00
    3    7   10    -12.25      0.00
    4    7   10     -0.72      0.00
    5    7   10      3.23      0.00
    6    7   10      0.00      0.00
    7    7   10     -2.02      0.00
    8    7   10      7.73      0.00
    9    7   10     -2.22      0.00
   10    7   10     -7.88      0.00
   11    7   10     -3.95      0.00
   12    7   10      3.74      0.00
   13    7   10      2.11      0.00
   14    7   10      3.40      0.00
   15    7   10      2.16      0.00
   16    7   10     -3.16      0.00
   17    7   10      0.10      0.00
   18    7   10     -1.16      0.00
   19    7   10      1.08      0.00
   -9    8   10     -3.01      0.00
   -8    8   10      5.41      0.00
   -7    8   10     -8.14      0.00
   -6    8   10      2.04      0.00
   -5    8   10      2.83      0.00
   -4    8   10     -4.05      0.00
   -3    8   10      0.62      0.00
   -2    8   10      0.88      0.00
   -1    8   10     -3.29      0.00
    0    8   10      4.80      0.00
    1    8   10      4.19      0.00
    2    8   10    -10.39      0.00
    3    8   10      3.95      0.00
    4    8   10     -0.69      0.00
    5    8   10     -1.17      0.00
    6    8   10     -5.24      0.00
    7    8   10      9.57      0.00
    8    8   10      0.43      0.00
    9    8   10    -10.88      0.00
   10    8   10      5.15      0.00
   11    8   10     -0.12      0.00
   12    8   10      0.32      0.00
   13    8   10     -3.65      0.00
   14    8   10      2.01      0.00
   15    8   10      6.92      0.00
   16    8   10     -4.49      0.00
   17    8   10     -2.30      0.00
   18    8   10     -0.39      0.00
   19    8   10      0.48      0.00
   -8    9   10     -2.04      0.00
   -7    9   10     -0.52      0.00
   -6    9   10     -3.19      0.00
   -5    9   10     -2.04      0.00
   -4    9   10     -2.02      0.00
   -3    9   10      2.54      0.00
   -2    9   10      1.67      0.00
   -1    9   10     -0.45      0.00
    0    9   10     -2.96      0.00
    1    9   10      0.99      0.00
    2    9   10      7.03      0.00
    3    9   10     -6.31      0.00
    4    9   10     -1.90      0.00
    5    9   10     -4.46      0.00
    6    9   10      2.28      0.00
    7    9   10      4.10      0.00
    8    9   10     -0.92      0.00
    9    9   10     -5.07      0.00
   10    9   10     -0.99      0.00
   11    9   10     -0.18      0.00
   12    9   10      1.67      0.00
   13    9   10      1.96      0.00
   14    9   10     -1.63      0.00
   15    9   10     -0.25      0.00
   16    9   10     -3.47      0.00
   17    9   10      5.24      0.00
   18    9   10     -4.90      0.00
   19    9   10      3.17      0.00
   -7   10   10     -3.89      0.00
   -6   10   10     -4.39      0.00
   -5   10   10      2.59      0.00
   -4   10   10     -6.56      0.00
   -3   10   10      4.71      0.00
   -2   10   10     -0.08      0.00
   -1   10   10     -5.42      0.00
    0   10   10     12.06      0.00
    1   10   10     -2.61      0.00
    2   10   10     -7.25      0.00
    3   10   10      1.99      0.00
    4   10   10     -0.97      0.00
    5   10   10     -1.36      0.00
    6   10   10     -1.34      0.00
    7   10   10      4.40      0.00
    8   10   10     -4.44      0.00
    9   10   10     -8.37      0.00
   10   10   10      6.67      0.00
   11   10   10      5.98      0.00
   12   10   10     -6.55      0.00
   13   10   10      1.71      0.00
   14   10   10     -0.26      0.00
   15   10   10     -0.27      0.00
   16   10   10      0.69      0.00
   17   10   10     -2.59      0.00
   18   10   10      0.94      0.00
   19   10   10      0.83      0.00
   -6   11   10     -0.03      0.00
   -5   11   10    -10.15      0.00
   -4   11   10      4.88      0.00
   -3   11   10      0.60      0.00
   -2   11   10      4.92      0.00
   -1   11   10     -1.43      0.00
    0   11   10     -1.48      0.00
    1   11   10      2.40      0.00
    2   11   10      0.49      0.00
    3   11   10      6.03      0.00
    4   11   10    -11.49      0.00
    5   11   10     -4.01      0.00
    6   11   10      9.27      0.00
    7   11   10      0.38      0.00
    8   11   10     -3.62      0.00
    9   11   10     -2.04      0.00
   10   11   10      1.87      0.00
   11   11   10     -1.81      0.00
   12   11   10      7.34      0.00
   13   11   10      3.23      0.00
   14   11   10     -4.66      0.00
   15   11   10     -6.93      0.00
   16   11   10      1.07      0.00
   17   11   10      1.59      0.00
   18   11   10     -0.49      0.00
   19   11   10     -1.39      0.00
   -6   12   10     -6.52      0.00
   -5   12   10     -0.15      0.00
   -4   12   10      1.54      0.00
   -3   12   10      3.38      0.00
   -2   12   10     -2.88      0.00
   -1   12   10      5.33      0.00
    0   12   10      6.29      0.00
    1   12   10     -4.71      0.00
    2   12   10      2.78      0.00
    3   12   10     -2.85      0.00
    4   12   10      1.85      0.00
    5   12   10     -1.19      0.00
    6   12   10      1.67      0.00
    7   12   10      1.53      0.00
    8   12   10     -2.87      0.00
    9   12   10     -0.18      0.00
   10   12   10      0.13      0.00
   11   12   10      5.66      0.00
   12   12   10     -0.95      0.00
   13   12   10      0.80      0.00
   14   12   10     -3.55      0.00
   15   12   10     -2.10      0.00
   16   12   10     -3.56      0.00
   17   12   10     -1.32      0.00
   18   12   10      0.83      0.00
   19   12   10     -2.41      0.00
   -5   13   10      2.47      0.00
   -4   13   10     -2.52      0.00
   -3   13   10      3.92      0.00
   -2   13   10      3.63      0.00
   -1   13   10      1.70      0.00
    0   13   10     -2.95      0.00
    1   13   10      3.44      0.00
    2   13   10      1.27      0.00
    3   13   10      5.87      0.00
    4   13   10     -6.00      0.00
    5   13   10     -6.15      0.00
    6   13   10      7.57      0.00
    7   13   10      2.25      0.00
    8   13   10     -4.99      0.00
    9   13   10      3.81      0.00
   10   13   10     -8.19      0.00
   11   13   10      3.38      0.00
   12   13   10      3.88      0.00
   13   13   10      0.66      0.00
   14   13   10     -4.96      0.00
   15   13   10     -3.63      0.00
   16   13   10     -0.26      0.00
   17   13   10     -1.19      0.00
   18   13   10      1.73      0.00
   -3   14   10      3.02      0.00
   -2   14   10     -1.26      0.00
   -1   14   10      0.95      0.00
    0   14   10      0.33      0.00
    1   14   10      2.28      0.00
    2   14   10     -0.92      0.00
    3   14   10     -2.50      0.00
    4   14   10      4.57      0.00
    5   14   10     -3.53      0.00
    6   14   10     -0.19      0.00
    7   14   10      1.78      0.00
    8   14   10     -3.81      0.00
    9   14   10     -2.27      0.00
   10   14   10      3.67      0.00
   11   14   10     -2.27      0.00
   12   14   10     -1.75      0.00
   13   14   10      2.41      0.00
   14   14   10     -3.46      0.00
   15   14   10      3.01      0.00
   16   14   10     -1.86      0.00
   17   14   10     -1.37      0.00
   18   14   10      1.70      0.00
   -2   15   10      5.67      0.00
   -1   15   10     -4.27      0.00
    0   15   10     -0.63      0.00
    1   15   10     -2.25      0.00
    2   15   10      1.84      0.00
    3   15   10      2.43      0.00
    4   15   10      1.53      0.00
    5   15   10     -6.61      0.00
    6   15   10     -0.44      0.00
    7   15   10      6.44      0.00
    8   15   10     -3.91      0.00
    9   15   10     -0.99      0.00
   10   15   10      0.75      0.00
   11   15   10     -4.54      0.00
   12   15   10      2.28      0.00
   13   15   10     -0.69      0.00
   14   15   10     -1.59      0.00
   15   15   10      0.52      0.00
   16   15   10      0.69      0.00
   17   15   10     -1.72      0.00
   18   15   10      2.54      0.00
   -1   16   10     -2.53      0.00
    0   16   10     -3.65      0.00
    1   16   10      1.42      0.00
    2   16   10      1.02      0.00
    3   16   10     -2.21      0.00
    4   16   10      2.94      0.00
    5   16   10      2.37      0.00
    6   16   10     -2.59      0.00
    7   16   10      0.89      0.00
    8   16   10     -3.01      0.00
    9   16   10     -1.46      0.00
   10   16   10      5.41      0.00
   11   16   10     -4.18      0.00
   12   16   10     -5.84      0.00
   13   16   10      0.18      0.00
   14   16   10     -0.36      0.00
   15   16   10     -0.57      0.00
   16   16   10      0.93      0.00
   17   16   10     -0.92      0.00
    1   17   10     -0.16      0.00
    2   17   10     -0.41      0.00
    3   17   10      4.23      0.00
    4   17   10      1.22      0.00
    5   17   10      0.18      0.00
    6   17   10     -4.29      0.00
    7   17   10     -2.19      0.00
    8   17   10     -2.43      0.00
    9   17   10      7.24      0.00
   10   17   10     -6.73      0.00
   11   17   10     -1.03      0.00
   12   17   10      0.02      0.00
   13   17   10     -2.93      0.00
   14   17   10     -1.53      0.00
   15   17   10      2.09      0.00
   16   17   10     -0.11      0.00
    3   18   10     -4.91      0.00
    4   18   10      0.52      0.00
    5   18   10      2.70      0.00
    6   18   10     -2.37      0.00
    7   18   10     -6.21      0.00
    8   18   10     -6.80      0.00
    9   18   10      9.61      0.00
   10   18   10     -0.36      0.00
   11   18   10      1.67      0.00
   12   18   10     -0.91      0.00
   13   18   10     -2.76      0.00
   14   18   10      1.16      0.00
   15   18   10      3.76      0.00
    5   19   10     -2.34      0.00
    6   19   10     -1.48      0.00
    7   19   10     -7.53      0.00
    8   19   10      0.20      0.00
    9   19   10     13.66      0.00
   10   19   10     -8.65      0.00
   11   19   10      7.33      0.00
   12   19   10      0.17      0.00
   13   19   10      0.48      0.00
   -5  -13   11      0.03      0.00
   -4  -13   11     -0.89      0.00
   -3  -13   11     -7.10      0.00
   -2  -13   11      0.36      0.00
   -1  -13   11      4.81      0.00
    0  -13   11     -5.07      0.00
   -7  -12   11      3.52      0.00
   -6  -12   11     -2.27      0.00
   -5  -12   11      0.29      0.00
   -4  -12   11     -4.59      0.00
   -3  -12   11     -2.52      0.00
   -2  -12   11     -2.30      0.00
   -1  -12   11      1.58      0.00
    0  -12   11     -4.77      0.00
    1  -12   11      5.13      0.00
    2  -12   11      6.14      0.00
    3  -12   11      0.34      0.00
   -8  -11   11     -5.58      0.00
   -7  -11   11      2.83      0.00
   -6  -11   11      0.57      0.00
   -5  -11   11     -4.89      0.00
   -4  -11   11     -2.23      0.00
   -3  -11   11     -2.85      0.00
   -2  -11   11      1.09      0.00
   -1  -11   11     -4.36      0.00
    0  -11   11      4.85      0.00
    1  -11   11      0.67      0.00
    2  -11   11      2.88      0.00
    3  -11   11      6.69      0.00
    4  -11   11     -0.44      0.00
    5  -11   11      1.22      0.00
   -9  -10   11      0.11      0.00
   -8  -10   11     -5.15      0.00
   -7  -10   11      2.36      0.00
   -6  -10   11     -2.28      0.00
   -5  -10   11      1.28      0.00
   -4  -10   11     -4.60      0.00
   -3  -10   11     -0.06      0.00
   -2  -10   11      2.20      0.00
   -1  -10   11     -0.87      0.00
    0  -10   11     -2.19      0.00
    1  -10   11      5.06      0.00
    2  -10   11      3.17      0.00
    3  -10   11      2.96      0.00
    4  -10   11     -0.72      0.00
    5  -10   11      0.01      0.00
    6  -10   11      2.50      0.00
    7  -10   11      4.69      0.00
  -10   -9   11      2.40      0.00
   -9   -9   11      1.59      0.00
   -8   -9   11     -3.92      0.00
   -7   -9   11     -4.77      0.00
   -6   -9   11      4.16      0.00
   -5   -9   11      0.97      0.00
   -4   -9   11     -1.73      0.00
   -3   -9   11      0.79      0.00
   -2   -9   11     -2.41      0.00
   -1   -9   11      1.19      0.00
    0   -9   11      3.98      0.00
    1   -9   11      1.06      0.00
    2   -9   11     -3.40      0.00
    3   -9   11      4.85      0.00
    4   -9   11      0.64      0.00
    5   -9   11     -2.85      0.00
    6   -9   11      7.64      0.00
    7   -9   11     -3.70      0.00
    8   -9   11      2.61      0.00
  -11   -8   11     -3.73      0.00
  -10   -8   11      2.58      0.00
   -9   -8   11      1.51      0.00
   -8   -8   11     -6.70      0.00
   -7   -8   11     -0.84      0.00
   -6   -8   11      2.13      0.00
   -5   -8   11      1.07      0.00
   -4   -8   11     -2.83      0.00
   -3   -8   11      0.91      0.00
   -2   -8   11      1.79      0.00
   -1   -8   11      0.05      0.00
    0   -8   11     -0.40      0.00
    1   -8   11      1.55      0.00
    2   -8   11     -2.31      0.00
    3   -8   11      4.32      0.00
    4   -8   11     -0.87      0.00
    5   -8   11     -1.72      0.00
    6   -8   11      1.96      0.00
    7   -8   11      2.52      0.00
    8   -8   11     -1.49      0.00
    9   -8   11     -3.12      0.00
   10   -8   11     -1.30      0.00
  -11   -7   11      2.65      0.00
  -10   -7   11      2.19      0.00
   -9   -7   11     -3.97      0.00
   -8   -7   11     -2.40      0.00
   -7   -7   11     -4.21      0.00
   -6   -7   11     -0.31      0.00
   -5   -7   11      5.40      0.00
   -4   -7   11     -1.86      0.00
   -3   -7   11     -6.09      0.00
   -2   -7   11      1.94      0.00
   -1   -7   11      7.84      0.00
    0   -7   11     -1.96      0.00
    2   -7   11      1.70      0.00
    3   -7   11     -1.99      0.00
    4   -7   11      2.33      0.00
    5   -7   11     -1.91      0.00
    6   -7   11     -0.06      0.00
    7   -7   11      3.11      0.00
    8   -7   11     -1.95      0.00
    9   -7   11      0.70      0.00
   10   -7   11     -0.74      0.00
   11   -7   11     -0.39      0.00
  -11   -6   11      5.55      0.00
  -10   -6   11     -6.66      0.00
   -9   -6   11     -1.37      0.00
   -8   -6   11     -0.48      0.00
   -7   -6   11     -1.82      0.00
   -6   -6   11     -3.89      0.00
   -5   -6   11      2.21      0.00
   -4   -6   11     -5.93      0.00
   -3   -6   11      7.67      0.00
   -2   -6   11      1.83      0.00
   -1   -6   11     -3.34      0.00
    0   -6   11      4.11      0.00
    1   -6   11     -1.83      0.00
    2   -6   11      0.80      0.00
    3   -6   11     -1.72      0.00
    4   -6   11     -3.29      0.00
    5   -6   11      2.09      0.00
    6   -6   11      1.09      0.00
    7   -6   11     -2.15      0.00
    8   -6   11      3.90      0.00
    9   -6   11      0.50      0.00
   10   -6   11     -0.04      0.00
   11   -6   11      0.22      0.00
   12   -6   11      0.30      0.00
  -12   -5   11      4.18      0.00
  -11   -5   11      3.50      0.00
  -10   -5   11     -4.85      0.00
   -9   -5   11     -1.47      0.00
   -8   -5   11      0.14      0.00
   -7   -5   11     -4.66      0.00
   -6   -5   11      1.24      0.00
   -5   -5   11     -2.90      0.00
   -4   -5   11      5.07      0.00
   -3   -5   11     -7.23      0.00
   -2   -5   11      6.00      0.00
   -1   -5   11      8.40      0.00
    0   -5   11     -6.25      0.00
    1   -5   11      1.60      0.00
    2   -5   11     -4.55      0.00
    3   -5   11     -1.52      0.00
    4   -5   11      3.21      0.00
    5   -5   11     -2.05      0.00
    6   -5   11     -5.20      0.00
    7   -5   11      5.66      0.00
    8   -5   11     -1.93      0.00
    9   -5   11      2.73      0.00
   10   -5   11      2.11      0.00
   11   -5   11      0.01      0.00
   12   -5   11     -1.35      0.00
   13   -5   11     -3.70      0.00
  -12   -4   11      3.39      0.00
  -11   -4   11     -0.14      0.00
  -10   -4   11     -2.16      0.00
   -9   -4   11      0.88      0.00
   -8   -4   11     -0.55      0.00
   -7   -4   11     -2.04      0.00
   -6   -4   11     -3.63      0.00
   -5   -4   11      0.47      0.00
   -4   -4   11     -0.52      0.00
   -3   -4   11      2.43      0.00
   -2   -4   11      5.19      0.00
   -1   -4   11     -8.38      0.00
    0   -4   11      9.73      0.00
    1   -4   11     -9.27      0.00
    2   -4   11      5.51      0.00
    3   -4   11     -5.16      0.00
    4   -4   11     -2.88      0.00
    5   -4   11      0.55      0.00
    6   -4   11      2.29      0.00
    7   -4   11     -5.90      0.00
    8   -4   11     -0.53      0.00
    9   -4   11      2.33      0.00
   10   -4   11      1.59      0.00
   11   -4   11      2.80      0.00
   12   -4   11     -3.28      0.00
   13   -4   11     -1.70      0.00
   14   -4   11     -1.44      0.00
  -12   -3   11      3.86      0.00
  -11   -3   11     -1.28      0.00
  -10   -3   11      1.10      0.00
   -9   -3   11     -4.81      0.00
   -8   -3   11      2.97      0.00
   -7   -3   11     -1.23      0.00
   -6   -3   11     -1.04      0.00
   -4   -3   11     -3.98      0.00
   -3   -3   11     -1.96      0.00
   -2   -3   11      2.80      0.00
   -1   -3   11      5.43      0.00
    0   -3   11     -6.26      0.00
    1   -3   11      5.51      0.00
    2   -3   11    -13.49      0.00
    3   -3   11     12.97      0.00
    4   -3   11     -3.01      0.00
    5   -3   11     -1.58      0.00
    6   -3   11     -5.83      0.00
    7   -3   11     -4.20      0.00
    8   -3   11      1.45      0.00
    9   -3   11      1.73      0.00
   10   -3   11      0.17      0.00
   11   -3   11     -1.35      0.00
   12   -3   11      0.67      0.00
   13   -3   11     -5.38      0.00
   14   -3   11     -0.80      0.00
  -12   -2   11     -0.15      0.00
  -11   -2   11     -1.41      0.00
  -10   -2   11      2.79      0.00
   -9   -2   11      3.35      0.00
   -8   -2   11     -5.13      0.00
   -7   -2   11     -1.36      0.00
   -6   -2   11      1.58      0.00
   -5   -2   11     -1.90      0.00
   -4   -2   11     -0.30      0.00
   -3   -2   11     -1.71      0.00
   -2   -2   11     -3.31      0.00
   -1   -2   11     -1.00      0.00
    0   -2   11     11.13      0.00
    1   -2   11     -9.18      0.00
    2   -2   11      8.99      0.00
    3   -2   11     -2.37      0.00
    4   -2   11     -0.94      0.00
    5   -2   11      0.52      0.00
    6   -2   11     -0.49      0.00
    8   -2   11     -2.25      0.00
    9   -2   11      0.11      0.00
   10   -2   11      3.58      0.00
   11   -2   11     -4.17      0.00
   12   -2   11     -1.56      0.00
   13   -2   11     -2.65      0.00
   14   -2   11     -3.33      0.00
   15   -2   11     -2.16      0.00
  -11   -1   11      3.23      0.00
  -10   -1   11     -1.00      0.00
   -9   -1   11     -2.13      0.00
   -8   -1   11      1.14      0.00
   -7   -1   11      3.30      0.00
   -6   -1   11      1.31      0.00
   -5   -1   11     -3.67      0.00
   -4   -1   11     -3.50      0.00
   -3   -1   11     -0.22      0.00
   -2   -1   11     -2.89      0.00
   -1   -1   11      6.68      0.00
    0   -1   11      4.74      0.00
    1   -1   11     -3.76      0.00
    2   -1   11      4.55      0.00
    3   -1   11      1.54      0.00
    4   -1   11      4.02      0.00
    5   -1   11     -4.93      0.00
    6   -1   11     -3.62      0.00
    7   -1   11     -4.90      0.00
    8   -1   11     -1.91      0.00
    9   -1   11      3.82      0.00
   10   -1   11     -1.97      0.00
   11   -1   11     -5.16      0.00
   12   -1   11      1.59      0.00
   13   -1   11     -3.75      0.00
   14   -1   11     -2.86      0.00
   15   -1   11      2.69      0.00
   16   -1   11     -2.82      0.00
  -11    0   11      2.88      0.00
  -10    0   11      5.96      0.00
   -9    0   11     -3.95      0.00
   -8    0   11      1.63      0.00
   -7    0   11     -3.59      0.00
   -6    0   11      2.84      0.00
   -5    0   11      2.34      0.00
   -4    0   11      2.96      0.00
   -3    0   11     -9.95      0.00
   -2    0   11     -0.91      0.00
   -1    0   11      3.44      0.00
    0    0   11      8.11      0.00
    1    0   11      2.66      0.00
    2    0   11      1.23      0.00
    3    0   11     -8.95      0.00
    4    0   11      5.39      0.00
    5    0   11      3.38      0.00
    6    0   11     -4.98      0.00
    7    0   11     -2.72      0.00
    8    0   11     -2.94      0.00
    9    0   11      5.68      0.00
   10    0   11     -5.75      0.00
   11    0   11      4.00      0.00
   12    0   11     -2.39      0.00
   13    0   11      1.32      0.00
   14    0   11     -0.32      0.00
   15    0   11      1.91      0.00
   16    0   11     -2.81      0.00
  -11    1   11      1.96      0.00
  -10    1   11     -7.02      0.00
   -9    1   11      2.33      0.00
   -8    1   11     -1.54      0.00
   -7    1   11      4.12      0.00
   -6    1   11      0.83      0.00
   -5    1   11     -3.63      0.00
   -4    1   11     -0.66      0.00
   -3    1   11     -2.10      0.00
   -2    1   11     -3.91      0.00
   -1    1   11      3.06      0.00
    0    1   11     10.36      0.00
    1    1   11     -7.54      0.00
    2    1   11      2.50      0.00
    3    1   11     -1.70      0.00
    4    1   11     -0.49      0.00
    5    1   11      3.76      0.00
    6    1   11     -3.84      0.00
    7    1   11      0.48      0.00
    8    1   11      0.51      0.00
    9    1   11      1.51      0.00
   10    1   11     -2.94      0.00
   11    1   11      5.01      0.00
   12    1   11     -0.84      0.00
   13    1   11      2.09      0.00
   14    1   11      3.93      0.00
   15    1   11     -0.68      0.00
   16    1   11     -2.66      0.00
   17    1   11      2.75      0.00
  -11    2   11     -5.28      0.00
  -10    2   11      5.08      0.00
   -9    2   11     -6.18      0.00
   -8    2   11      0.17      0.00
   -7    2   11     -5.95      0.00
   -6    2   11      1.66      0.00
   -5    2   11      3.82      0.00
   -4    2   11     -1.79      0.00
   -3    2   11    -12.21      0.00
   -2    2   11      7.81      0.00
   -1    2   11     -6.67      0.00
    0    2   11      3.35      0.00
    1    2   11     14.16      0.00
    2    2   11    -10.16      0.00
    3    2   11     -6.24      0.00
    4    2   11      0.64      0.00
    5    2   11     12.45      0.00
    6    2   11     -6.36      0.00
    7    2   11     -1.73      0.00
    8    2   11     -1.31      0.00
    9    2   11      0.89      0.00
   10    2   11     -1.67      0.00
   11    2   11      2.49      0.00
   12    2   11     -0.16      0.00
   13    2   11      2.26      0.00
   14    2   11      1.53      0.00
   15    2   11      1.37      0.00
   16    2   11     -3.85      0.00
   17    2   11      1.51      0.00
  -11    3   11     -3.18      0.00
  -10    3   11     -6.79      0.00
   -9    3   11      0.29      0.00
   -8    3   11     -4.70      0.00
   -7    3   11      1.28      0.00
   -6    3   11     -0.82      0.00
   -5    3   11     -5.78      0.00
   -4    3   11     -1.19      0.00
   -3    3   11      1.02      0.00
   -2    3   11     -3.21      0.00
   -1    3   11     -0.94      0.00
    0    3   11      7.14      0.00
    1    3   11      0.96      0.00
    2    3   11      0.14      0.00
    3    3   11     -2.40      0.00
    4    3   11      2.63      0.00
    5    3   11     -0.72      0.00
    6    3   11     -2.62      0.00
    7    3   11      0.47      0.00
    8    3   11     -0.22      0.00
    9    3   11     -8.75      0.00
   10    3   11      1.33      0.00
   11    3   11      2.41      0.00
   12    3   11     -4.25      0.00
   13    3   11      2.52      0.00
   14    3   11     -1.50      0.00
   15    3   11     -1.34      0.00
   16    3   11      1.87      0.00
   17    3   11      0.28      0.00
   18    3   11     -3.26      0.00
  -10    4   11     -2.04      0.00
   -9    4   11      0.36      0.00
   -8    4   11     -7.96      0.00
   -7    4   11     -3.05      0.00
   -6    4   11     -2.58      0.00
   -5    4   11      8.49      0.00
   -4    4   11    -11.98      0.00
   -3    4   11      3.68      0.00
   -2    4   11      4.31      0.00
   -1    4   11     -7.41      0.00
    0    4   11      2.36      0.00
    1    4   11     14.03      0.00
    2    4   11     -5.12      0.00
    3    4   11      1.91      0.00
    4    4   11     -8.27      0.00
    5    4   11      7.97      0.00
    6    4   11      3.19      0.00
    7    4   11    -10.64      0.00
    8    4   11     -2.71      0.00
    9    4   11      4.08      0.00
   10    4   11     -1.91      0.00
   11    4   11     -5.31      0.00
   12    4   11     -1.82      0.00
   13    4   11      0.15      0.00
   14    4   11      1.36      0.00
   15    4   11     -0.31      0.00
   16    4   11     -0.72      0.00
   17    4   11     -1.74      0.00
   18    4   11      0.94      0.00
  -10    5   11      0.96      0.00
   -9    5   11     -7.91      0.00
   -8    5   11     -0.31      0.00
   -7    5   11     -0.76      0.00
   -6    5   11      2.02      0.00
   -5    5   11     -9.28      0.00
   -4    5   11      3.29      0.00
   -3    5   11      6.00      0.00
   -2    5   11     -9.39      0.00
   -1    5   11      8.45      0.00
    0    5   11     -4.54      0.00
    1    5   11      7.31      0.00
    2    5   11      5.90      0.00
    3    5   11     -7.86      0.00
    4    5   11      8.89      0.00
    5    5   11     -2.58      0.00
    6    5   11     -3.34      0.00
    7    5   11      4.51      0.00
    8    5   11      1.14      0.00
    9    5   11     -3.40      0.00
   10    5   11      1.35      0.00
   11    5   11     -2.27      0.00
   12    5   11     -2.55      0.00
   13    5   11      2.25      0.00
   14    5   11     -4.50      0.00
   15    5   11     -1.59      0.00
   16    5   11      3.45      0.00
   17    5   11     -1.23      0.00
   18    5   11     -0.99      0.00
   -9    6   11     -3.14      0.00
   -8    6   11     -0.18      0.00
   -7    6   11     -0.94      0.00
   -6    6   11     -5.32      0.00
   -5    6   11      6.40      0.00
   -4    6   11     -7.12      0.00
   -3    6   11      4.21      0.00
   -2    6   11      0.66      0.00
   -1    6   11     -1.78      0.00
    0    6   11      5.28      0.00
    1    6   11     -6.43      0.00
    2    6   11     13.23      0.00
    3    6   11     -4.83      0.00
    4    6   11      3.53      0.00
    5    6   11     -0.99      0.00
    6    6   11      7.67      0.00
    7    6   11     -5.47      0.00
    8    6   11      1.91      0.00
    9    6   11     10.87      0.00
   10    6   11     -4.94      0.00
   11    6   11     -3.60      0.00
   12    6   11     -0.66      0.00
   13    6   11     -2.89      0.00
   14    6   11     -1.00      0.00
   15    6   11     -0.72      0.00
   16    6   11     -0.12      0.00
   17    6   11      0.54      0.00
   18    6   11      0.11      0.00
   -9    7   11     -5.91      0.00
   -8    7   11      6.31      0.00
   -7    7   11     -3.48      0.00
   -6    7   11     -0.98      0.00
   -5    7   11     -1.01      0.00
   -4    7   11      3.26      0.00
   -3    7   11     -2.96      0.00
   -2    7   11      2.05      0.00
   -1    7   11      2.32      0.00
    0    7   11     -5.80      0.00
    1    7   11      9.22      0.00
    2    7   11     -3.40      0.00
    3    7   11     -1.79      0.00
    4    7   11      6.23      0.00
    5    7   11      3.69      0.00
    6    7   11     -7.42      0.00
    7    7   11      5.59      0.00
    8    7   11      8.49      0.00
    9    7   11     -5.65      0.00
   10    7   11      2.42      0.00
   11    7   11     -2.14      0.00
   12    7   11      4.62      0.00
   13    7   11    -11.35      0.00
   14    7   11     -3.17      0.00
   15    7   11      1.43      0.00
   16    7   11      3.66      0.00
   17    7   11      0.75      0.00
   18    7   11      4.35      0.00
   19    7   11     -1.51      0.00
   -8    8   11      0.24      0.00
   -7    8   11      0.68      0.00
   -6    8   11      0.52      0.00
   -5    8   11      0.62      0.00
   -4    8   11     -0.96      0.00
   -3    8   11      0.75      0.00
   -2    8   11      4.10      0.00
   -1    8   11     -3.81      0.00
    0    8   11      4.17      0.00
    1    8   11     -9.89      0.00
    2    8   11      7.68      0.00
    3    8   11      1.43      0.00
    4    8   11     -1.71      0.00
    5    8   11     -0.80      0.00
    6    8   11     -0.66      0.00
    7    8   11      1.04      0.00
    8    8   11      5.98      0.00
    9    8   11     -1.51      0.00
   10    8   11      2.71      0.00
   11    8   11     -2.07      0.00
   12    8   11     -3.26      0.00
   13    8   11     -1.72      0.00
   14    8   11     -4.51      0.00
   15    8   11      3.61      0.00
   16    8   11     -0.49      0.00
   17    8   11      8.30      0.00
   18    8   11     -0.93      0.00
   19    8   11     -1.09      0.00
   -7    9   11      0.02      0.00
   -6    9   11     -1.42      0.00
   -5    9   11      8.62      0.00
   -4    9   11     -4.12      0.00
   -3    9   11      0.35      0.00
   -2    9   11      1.64      0.00
   -1    9   11     -5.72      0.00
    0    9   11      1.60      0.00
    1    9   11      7.49      0.00
    2    9   11     -7.51      0.00
    3    9   11      0.01      0.00
    4    9   11      0.57      0.00
    5    9   11      1.23      0.00
    6    9   11     -5.09      0.00
    7    9   11      7.73      0.00
    8    9   11      3.71      0.00
    9    9   11     -7.10      0.00
   10    9   11      3.19      0.00
   11    9   11      3.49      0.00
   12    9   11     -0.50      0.00
   13    9   11     -6.46      0.00
   14    9   11     -3.41      0.00
   15    9   11      2.20      0.00
   16    9   11      5.14      0.00
   17    9   11      2.90      0.00
   18    9   11     -1.88      0.00
   19    9   11     -1.06      0.00
   -7   10   11      2.31      0.00
   -6   10   11      6.12      0.00
   -5   10   11     -2.07      0.00
   -4   10   11     -1.98      0.00
   -3   10   11      0.25      0.00
   -2   10   11      1.18      0.00
   -1   10   11     -0.92      0.00
    0   10   11     -2.65      0.00
    1   10   11      0.06      0.00
    2   10   11     -0.20      0.00
    3   10   11      5.29      0.00
    4   10   11     -0.75      0.00
    5   10   11     -9.13      0.00
    6   10   11      5.56      0.00
    7   10   11      4.83      0.00
    8   10   11      2.52      0.00
    9   10   11     -2.72      0.00
   10   10   11      0.67      0.00
   11   10   11     -2.49      0.00
   12   10   11     -3.98      0.00
   13   10   11      4.59      0.00
   14   10   11     -2.05      0.00
   15   10   11     -4.34      0.00
   16   10   11      3.81      0.00
   17   10   11      3.03      0.00
   18   10   11      0.26      0.00
   19   10   11     -1.70      0.00
   -6   11   11      1.19      0.00
   -5   11   11      0.16      0.00
   -4   11   11     -1.20      0.00
   -3   11   11     -0.55      0.00
   -2   11   11     -5.37      0.00
   -1   11   11     -2.82      0.00
    0   11   11      5.92      0.00
    1   11   11     -1.65      0.00
    2   11   11     -1.12      0.00
    3   11   11     -1.20      0.00
    4   11   11      0.65      0.00
    5   11   11     -0.40      0.00
    6   11   11      4.69      0.00
    7   11   11     -1.41      0.00
    8   11   11      4.10      0.00
    9   11   11     -4.32      0.00
   10   11   11     -5.34      0.00
   11   11   11      4.00      0.00
   12   11   11     -3.72      0.00
   13   11   11      0.91      0.00
   14   11   11     -0.87      0.00
   15   11   11      1.17      0.00
   16   11   11      3.52      0.00
   17   11   11     -0.49      0.00
   18   11   11      3.12      0.00
   19   11   11     -1.52      0.00
   -5   12   11     -0.67      0.00
   -4   12   11     -3.22      0.00
   -3   12   11     -6.40      0.00
   -2   12   11      3.65      0.00
   -1   12   11     -0.87      0.00
    0   12   11     -3.98      0.00
    1   12   11     -2.47      0.00
    2   12   11     -0.83      0.00
    3   12   11      7.54      0.00
    4   12   11     -1.09      0.00
    5   12   11     -5.44      0.00
    6   12   11      0.95      0.00
    7   12   11      4.93      0.00
    8   12   11     -0.66      0.00
    9   12   11      0.21      0.00
   10   12   11     -2.98      0.00
   11   12   11     -8.85      0.00
   12   12   11      5.93      0.00
   13   12   11      4.46      0.00
   14   12   11      0.41      0.00
   15   12   11     -0.42      0.00
   16   12   11      2.40      0.00
   17   12   11      2.18      0.00
   18   12   11      2.52      0.00
   19   12   11      0.25      0.00
   -4   13   11     -6.18      0.00
   -3   13   11      1.87      0.00
   -2   13   11     -6.10      0.00
   -1   13   11      1.11      0.00
    0   13   11      0.77      0.00
    1   13   11     -0.56      0.00
    2   13   11      0.89      0.00
    3   13   11     -3.21      0.00
    4   13   11      3.50      0.00
    5   13   11      1.57      0.00
    6   13   11     -2.97      0.00
    7   13   11      3.90      0.00
    8   13   11      0.22      0.00
    9   13   11      0.87      0.00
   10   13   11     -5.89      0.00
   11   13   11      4.29      0.00
   12   13   11     -1.45      0.00
   13   13   11      1.70      0.00
   14   13   11      0.54      0.00
   15   13   11      4.38      0.00
   16   13   11      0.76      0.00
   17   13   11     -0.10      0.00
   18   13   11     -1.55      0.00
   -3   14   11     -6.67      0.00
   -2   14   11      4.50      0.00
   -1   14   11      2.03      0.00
    0   14   11     -2.45      0.00
    1   14   11      1.24      0.00
    2   14   11     -0.99      0.00
    3   14   11      4.90      0.00
    4   14   11      4.22      0.00
    5   14   11     -6.76      0.00
    6   14   11     -1.16      0.00
    7   14   11      7.00      0.00
    8   14   11      1.05      0.00
    9   14   11      0.48      0.00
   10   14   11     -2.07      0.00
   11   14   11     -2.60      0.00
   12   14   11     -0.85      0.00
   13   14   11      5.54      0.00
   14   14   11     -0.75      0.00
   15   14   11     -1.91      0.00
   16   14   11      3.20      0.00
   17   14   11     -3.81      0.00
   18   14   11      0.01      0.00
   -2   15   11      3.13      0.00
   -1   15   11      0.72      0.00
    0   15   11      0.78      0.00
    1   15   11      3.27      0.00
    2   15   11      3.39      0.00
    3   15   11     -3.47      0.00
    4   15   11      1.60      0.00
    5   15   11      2.25      0.00
    6   15   11     -4.14      0.00
    7   15   11      5.32      0.00
    8   15   11      3.39      0.00
    9   15   11     -7.31      0.00
   10   15   11      5.96      0.00
   11   15   11     -2.79      0.00
   12   15   11      0.17      0.00
   13   15   11      1.74      0.00
   14   15   11     -0.95      0.00
   15   15   11      1.67      0.00
   16   15   11     -0.56      0.00
   17   15   11      0.86      0.00
    0   16   11      1.87      0.00
    1   16   11      0.02      0.00
    2   16   11     -1.78      0.00
    3   16   11      3.80      0.00
    4   16   11      0.07      0.00
    5   16   11     -0.62      0.00
    6   16   11     -3.35      0.00
    7   16   11      7.23      0.00
    8   16   11     -0.60      0.00
    9   16   11      4.85      0.00
   10   16   11      0.07      0.00
   11   16   11     -1.82      0.00
   12   16   11      3.17      0.00
   13   16   11      1.62      0.00
   14   16   11      1.82      0.00
   15   16   11     -1.21      0.00
   16   16   11      2.75      0.00
   17   16   11     -3.23      0.00
    1   17   11     -3.35      0.00
    2   17   11      5.95      0.00
    3   17   11     -4.19      0.00
    4   17   11     -1.84      0.00
    5   17   11      3.32      0.00
    6   17   11      4.90      0.00
    7   17   11      6.66      0.00
    8   17   11     -1.82      0.00
    9   17   11      6.68      0.00
   10   17   11      0.19      0.00
   11   17   11      3.96      0.00
   12   17   11     -1.52      0.00
   13   17   11      2.52      0.00
   14   17   11     -1.96      0.00
   15   17   11      1.35      0.00
   16   17   11      1.78      0.00
    3   18   11     -2.19      0.00
    4   18   11      4.24      0.00
    5   18   11      2.94      0.00
    6   18   11      7.41      0.00
    7   18   11      2.95      0.00
    8   18   11     -1.17      0.00
    9   18   11     14.65      0.00
   10   18   11     -6.30      0.00
   11   18   11     -0.94      0.00
   12   18   11     -0.94      0.00
   13   18   11      0.73      0.00
   14   18   11     -4.68      0.00
   15   18   11      3.27      0.00
    6   19   11     10.14      0.00
    7   19   11      6.14      0.00
    8   19   11     -4.11      0.00
    9   19   11      2.44      0.00
   10   19   11      0.28      0.00
   11   19   11     -2.01      0.00
   12   19   11     -1.77      0.00
   13   19   11     -4.25      0.00
   -5  -12   12     -1.37      0.00
   -4  -12   12      2.12      0.00
   -3  -12   12     -6.51      0.00
   -2  -12   12      2.54      0.00
   -1  -12   12     -1.42      0.00
    0  -12   12     -1.72      0.00
    1  -12   12     -1.87      0.00
   -7  -11   12      2.06      0.00
   -6  -11   12      0.31      0.00
   -5  -11   12      3.32      0.00
   -4  -11   12     -5.26      0.00
   -3  -11   12     -1.41      0.00
   -2  -11   12     -1.33      0.00
   -1  -11   12     -0.49      0.00
    0  -11   12     -5.45      0.00
    1  -11   12     -0.37      0.00
    2  -11   12     -4.85      0.00
    3  -11   12     -0.37      0.00
    4  -11   12     -5.20      0.00
   -8  -10   12      1.63      0.00
   -7  -10   12     -1.76      0.00
   -6  -10   12      4.00      0.00
   -5  -10   12     -1.40      0.00
   -4  -10   12     -4.01      0.00
   -3  -10   12     -0.74      0.00
   -2  -10   12     -3.59      0.00
   -1  -10   12     -6.02      0.00
    0  -10   12      2.00      0.00
    1  -10   12     -0.51      0.00
    2  -10   12     -7.61      0.00
    3  -10   12      0.24      0.00
    4  -10   12     -0.30      0.00
    5  -10   12     -5.39      0.00
    6  -10   12      4.72      0.00
   -9   -9   12      6.38      0.00
   -8   -9   12     -0.31      0.00
   -7   -9   12     -2.39      0.00
   -6   -9   12     -0.62      0.00
   -5   -9   12      2.87      0.00
   -4   -9   12     -5.21      0.00
   -3   -9   12     -3.61      0.00
   -2   -9   12     -1.23      0.00
   -1   -9   12      0.90      0.00
    0   -9   12     -4.61      0.00
    1   -9   12     -2.15      0.00
    2   -9   12     -0.49      0.00
    3   -9   12     -3.20      0.00
    4   -9   12      3.82      0.00
    5   -9   12     -5.95      0.00
    6   -9   12      1.89      0.00
    7   -9   12      0.21      0.00
    8   -9   12      3.48      0.00
  -10   -8   12      3.40      0.00
   -9   -8   12      1.92      0.00
   -8   -8   12      2.21      0.00
   -7   -8   12     -3.54      0.00
   -6   -8   12     -1.64      0.00
   -5   -8   12     -0.53      0.00
   -4   -8   12      1.51      0.00
   -3   -8   12     -1.19      0.00
   -2   -8   12     -2.98      0.00
   -1   -8   12     -1.37      0.00
    0   -8   12     -0.62      0.00
    1   -8   12      0.16      0.00
    2   -8   12     -3.55      0.00
    3   -8   12      0.68      0.00
    4   -8   12      1.24      0.00
    5   -8   12     -1.44      0.00
    6   -8   12     -3.38      0.00
    7   -8   12      4.85      0.00
    8   -8   12     -0.38      0.00
    9   -8   12      1.91      0.00
  -10   -7   12     -0.10      0.00
   -9   -7   12      1.74      0.00
   -8   -7   12      3.56      0.00
   -7   -7   12     -2.39      0.00
   -6   -7   12     -1.54      0.00
   -5   -7   12     -0.53      0.00
   -4   -7   12     -0.65      0.00
   -3   -7   12      1.81      0.00
   -2   -7   12      3.66      0.00
   -1   -7   12     -4.61      0.00
    0   -7   12     -1.26      0.00
    1   -7   12     -2.17      0.00
    2   -7   12      2.12      0.00
    3   -7   12     -0.74      0.00
    4   -7   12      0.77      0.00
    5   -7   12     -0.27      0.00
    6   -7   12     -2.78      0.00
    7   -7   12      1.39      0.00
    8   -7   12     -1.36      0.00
    9   -7   12      0.16      0.00
   10   -7   12      0.35      0.00
  -10   -6   12     -0.02      0.00
   -9   -6   12      3.18      0.00
   -8   -6   12      3.10      0.00
   -7   -6   12     -2.07      0.00
   -6   -6   12     -3.00      0.00
   -5   -6   12      0.59      0.00
   -4   -6   12      6.04      0.00
   -3   -6   12     -2.60      0.00
   -2   -6   12     -2.51      0.00
   -1   -6   12      3.38      0.00
    0   -6   12     -3.05      0.00
    1   -6   12      1.91      0.00
    2   -6   12      0.58      0.00
    3   -6   12     -2.10      0.00
    4   -6   12     -0.21      0.00
    5   -6   12      4.02      0.00
    6   -6   12     -9.93      0.00
    7   -6   12      5.55      0.00
    8   -6   12     -4.25      0.00
    9   -6   12     -3.04      0.00
   10   -6   12      1.57      0.00
   11   -6   12      1.45      0.00
  -11   -5   12     -0.09      0.00
  -10   -5   12      0.88      0.00
   -9   -5   12      1.59      0.00
   -8   -5   12      2.39      0.00
   -7   -5   12      2.08      0.00
   -6   -5   12     -1.55      0.00
   -5   -5   12     -1.51      0.00
   -4   -5   12     -0.23      0.00
   -3   -5   12      1.24      0.00
   -2   -5   12      6.62      0.00
   -1   -5   12     -8.24      0.00
    0   -5   12      5.08      0.00
    1   -5   12      0.42      0.00
    2   -5   12      2.74      0.00
    3   -5   12     -2.43      0.00
    4   -5   12     -0.54      0.00
    5   -5   12     -4.88      0.00
    6   -5   12      4.85      0.00
    7   -5   12     -2.07      0.00
    8   -5   12     -5.99      0.00
    9   -5   12      0.35      0.00
   10   -5   12      0.28      0.00
   11   -5   12      1.13      0.00
   12   -5   12      0.93      0.00
  -11   -4   12     -2.50      0.00
  -10   -4   12      5.70      0.00
   -9   -4   12     -3.24      0.00
   -8   -4   12      4.23      0.00
   -7   -4   12     -0.19      0.00
   -6   -4   12      2.30      0.00
   -5   -4   12     -1.07      0.00
   -4   -4   12      4.23      0.00
   -3   -4   12     -3.90      0.00
   -2   -4   12     -2.52      0.00
   -1   -4   12      9.80      0.00
    0   -4   12     -0.12      0.00
    1   -4   12      5.51      0.00
    2   -4   12     -7.05      0.00
    3   -4   12      3.34      0.00
    4   -4   12     -3.37      0.00
    5   -4   12      2.32      0.00
    6   -4   12     -1.83      0.00
    7   -4   12     -3.06      0.00
    8   -4   12      0.32      0.00
    9   -4   12      0.47      0.00
   10   -4   12      1.63      0.00
   11   -4   12     -1.65      0.00
   12   -4   12      1.87      0.00
   13   -4   12     -2.61      0.00
  -11   -3   12     -3.60      0.00
  -10   -3   12      5.14      0.00
   -9   -3   12     -0.36      0.00
   -8   -3   12      4.40      0.00
   -7   -3   12     -0.17      0.00
   -6   -3   12      0.48      0.00
   -5   -3   12      3.63      0.00
   -4   -3   12     -2.49      0.00
   -3   -3   12      2.64      0.00
   -2   -3   12      5.21      0.00
   -1   -3   12     -5.21      0.00
    0   -3   12     10.06      0.00
    1   -3   12     -3.32      0.00
    2   -3   12      1.57      0.00
    3   -3   12      1.25      0.00
    4   -3   12     -8.23      0.00
    5   -3   12     -1.22      0.00
    6   -3   12      7.31      0.00
    7   -3   12     -1.82      0.00
    8   -3   12     -3.28      0.00
    9   -3   12      3.52      0.00
   10   -3   12      1.30      0.00
   11   -3   12      0.50      0.00
   12   -3   12     -0.74      0.00
   13   -3   12     -1.42      0.00
   14   -3   12      0.29      0.00
  -11   -2   12      3.02      0.00
  -10   -2   12      3.61      0.00
   -9   -2   12     -1.35      0.00
   -8   -2   12     -1.46      0.00
   -7   -2   12      2.03      0.00
   -6   -2   12      6.21      0.00
   -5   -2   12      1.12      0.00
   -4   -2   12     -1.29      0.00
   -3   -2   12      0.87      0.00
   -2   -2   12     -3.36      0.00
   -1   -2   12      7.83      0.00
    0   -2   12      0.12      0.00
    1   -2   12     -1.10      0.00
    2   -2   12     -3.40      0.00
    3   -2   12     -3.92      0.00
    4   -2   12      2.77      0.00
    5   -2   12     -0.47      0.00
    6   -2   12     -0.79      0.00
    7   -2   12     -2.84      0.00
    8   -2   12      3.81      0.00
    9   -2   12      5.23      0.00
   10   -2   12      4.37      0.00
   11   -2   12     -7.32      0.00
   12   -2   12      4.00      0.00
   13   -2   12     -1.21      0.00
   14   -2   12     -2.61      0.00
   15   -2   12      2.51      0.00
  -11   -1   12      0.56      0.00
  -10   -1   12      3.63      0.00
   -9   -1   12     -0.54      0.00
   -8   -1   12      2.22      0.00
   -7   -1   12     -3.87      0.00
   -6   -1   12      2.67      0.00
   -5   -1   12     -0.64      0.00
   -4   -1   12      6.54      0.00
   -3   -1   12     -3.02      0.00
   -2   -1   12     -2.49      0.00
   -1   -1   12     -3.84      0.00
    0   -1   12      5.40      0.00
    1   -1   12     -4.63      0.00
    2   -1   12      2.89      0.00
    3   -1   12     -7.53      0.00
    4   -1   12     -1.68      0.00
    5   -1   12      1.11      0.00
    6   -1   12      2.05      0.00
    7   -1   12      1.52      0.00
    8   -1   12     -1.39      0.00
    9   -1   12      5.92      0.00
   10   -1   12     -2.18      0.00
   11   -1   12      2.03      0.00
   12   -1   12     -2.73      0.00
   13   -1   12      0.57      0.00
   14   -1   12     -1.52      0.00
   15   -1   12      0.94      0.00
  -11    0   12      5.49      0.00
  -10    0   12     -4.75      0.00
   -9    0   12      0.46      0.00
   -8    0   12     -2.43      0.00
   -7    0   12     -0.16      0.00
   -6    0   12      6.99      0.00
   -5    0   12     -4.54      0.00
   -4    0   12      2.68      0.00
   -3    0   12     -6.83      0.00
   -2    0   12      3.93      0.00
   -1    0   12     -3.39      0.00
    0    0   12      2.98      0.00
    1    0   12     -2.50      0.00
    2    0   12     -3.51      0.00
    3    0   12     -2.73      0.00
    4    0   12      1.75      0.00
    5    0   12     -0.30      0.00
    6    0   12     -1.91      0.00
    7    0   12      0.27      0.00
    8    0   12     -0.28      0.00
    9    0   12      4.27      0.00
   10    0   12     -5.13      0.00
   11    0   12      1.06      0.00
   12    0   12     -4.65      0.00
   13    0   12     -0.94      0.00
   14    0   12     -0.89      0.00
   15    0   12      0.86      0.00
   16    0   12     -2.92      0.00
  -10    1   12      7.06      0.00
   -9    1   12     -3.03      0.00
   -8    1   12      4.72      0.00
   -7    1   12     -5.00      0.00
   -6    1   12     -0.78      0.00
   -5    1   12      1.31      0.00
   -4    1   12      7.08      0.00
   -3    1   12     -5.07      0.00
   -2    1   12      0.74      0.00
   -1    1   12      0.26      0.00
    0    1   12     -5.21      0.00
    1    1   12      9.74      0.00
    2    1   12     -2.77      0.00
    3    1   12     -7.91      0.00
    4    1   12     -6.90      0.00
    5    1   12      8.97      0.00
    6    1   12     -4.16      0.00
    7    1   12      0.26      0.00
    8    1   12      0.85      0.00
    9    1   12     -5.40      0.00
   10    1   12     -0.94      0.00
   11    1   12     -0.89      0.00
   12    1   12     -3.73      0.00
   13    1   12     -2.50      0.00
   14    1   12     -1.08      0.00
   15    1   12      1.29      0.00
   16    1   12     -2.47      0.00
  -10    2   12     -2.83      0.00
   -9    2   12      1.59      0.00
   -8    2   12      1.10      0.00
   -7    2   12      1.28      0.00
   -6    2   12      4.08      0.00
   -5    2   12     -1.06      0.00
   -4    2   12      0.02      0.00
   -3    2   12      2.27      0.00
   -2    2   12      5.58      0.00
   -1    2   12     -6.32      0.00
    0    2   12      4.27      0.00
    1    2   12      0.90      0.00
    2    2   12     -5.50      0.00
    3    2   12     -1.78      0.00
    4    2   12     -4.40      0.00
    5    2   12      0.81      0.00
    6    2   12     -1.27      0.00
    7    2   12      1.89      0.00
    8    2   12      1.20      0.00
    9    2   12     -1.74      0.00
   10    2   12     -4.81      0.00
   11    2   12      4.43      0.00
   12    2   12     -4.06      0.00
   13    2   12     -1.17      0.00
   14    2   12      1.00      0.00
   15    2   12     -1.56      0.00
   16    2   12     -2.36      0.00
   17    2   12      0.46      0.00
  -10    3   12      2.32      0.00
   -9    3   12      6.31      0.00
   -8    3   12     -0.35      0.00
   -7    3   12     -1.51      0.00
   -6    3   12     -0.25      0.00
   -5    3   12      5.29      0.00
   -4    3   12      2.54      0.00
   -3    3   12     -0.84      0.00
   -2    3   12      4.37      0.00
   -1    3   12     -1.18      0.00
    0    3   12     -8.23      0.00
    1    3   12      9.43      0.00
    2    3   12     -1.95      0.00
    3    3   12     -6.63      0.00
    4    3   12     -6.71      0.00
    5    3   12      0.57      0.00
    6    3   12      7.87      0.00
    7    3   12      1.05      0.00
    8    3   12     -2.18      0.00
    9    3   12      1.12      0.00
   10    3   12      6.28      0.00
   11    3   12     -2.38      0.00
   12    3   12     -0.29      0.00
   13    3   12      0.28      0.00
   14    3   12     -0.71      0.00
   15    3   12      1.25      0.00
   16    3   12     -0.18      0.00
   17    3   12     -6.05      0.00
   -9    4   12     -1.40      0.00
   -8    4   12      0.18      0.00
   -7    4   12      1.14      0.00
   -6    4   12      6.28      0.00
   -5    4   12     -4.25      0.00
   -4    4   12     -2.62      0.00
   -3    4   12      9.54      0.00
   -2    4   12     -4.04      0.00
   -1    4   12      1.55      0.00
    0    4   12     -3.01      0.00
    1    4   12     -0.09      0.00
    2    4   12     -0.40      0.00
    3    4   12     -0.79      0.00
    4    4   12     -6.79      0.00
    5    4   12      4.14      0.00
    6    4   12     -2.42      0.00
    7    4   12      2.63      0.00
    8    4   12      6.57      0.00
    9    4   12     -0.55      0.00
   10    4   12      1.14      0.00
   11    4   12      3.66      0.00
   12    4   12     -1.67      0.00
   13    4   12      1.32      0.00
   14    4   12      0.54      0.00
   15    4   12     -3.68      0.00
   16    4   12      0.63      0.00
   17    4   12     -3.15      0.00
   18    4   12     -1.54      0.00
   -9    5   12     -0.48      0.00
   -8    5   12      0.05      0.00
   -7    5   12      2.47      0.00
   -6    5   12     -8.17      0.00
   -5    5   12      7.94      0.00
   -4    5   12     -5.06      0.00
   -3    5   12      1.92      0.00
   -2    5   12      5.73      0.00
   -1    5   12     -5.38      0.00
    0    5   12      1.59      0.00
    1    5   12     -5.79      0.00
    2    5   12      6.13      0.00
    3    5   12     -4.06      0.00
    4    5   12     -2.29      0.00
    5    5   12     -4.95      0.00
    6    5   12      5.46      0.00
    7    5   12     -0.14      0.00
    8    5   12     -7.77      0.00
    9    5   12     11.25      0.00
   10    5   12      2.62      0.00
   11    5   12     -3.72      0.00
   12    5   12      0.99      0.00
   13    5   12     -3.01      0.00
   14    5   12      1.94      0.00
   15    5   12      2.07      0.00
   16    5   12     -1.82      0.00
   17    5   12     -1.02      0.00
   18    5   12     -3.81      0.00
   -9    6   12     -6.18      0.00
   -8    6   12      2.29      0.00
   -7    6   12     -0.52      0.00
   -6    6   12      0.91      0.00
   -5    6   12     -8.00      0.00
   -4    6   12      3.08      0.00
   -3    6   12      3.46      0.00
   -2    6   12     -3.98      0.00
   -1    6   12      5.64      0.00
    0    6   12     -7.06      0.00
    1    6   12     -0.83      0.00
    2    6   12      6.30      0.00
    3    6   12     -6.15      0.00
    4    6   12     -1.45      0.00
    5    6   12      4.29      0.00
    6    6   12     -7.34      0.00
    7    6   12     -4.63      0.00
    8    6   12      7.76      0.00
    9    6   12     -0.42      0.00
   10    6   12      1.06      0.00
   11    6   12     -2.17      0.00
   12    6   12      4.33      0.00
   13    6   12     -1.73      0.00
   14    6   12     -0.02      0.00
   15    6   12      0.27      0.00
   16    6   12      2.66      0.00
   17    6   12     -4.67      0.00
   18    6   12     -1.27      0.00
   -8    7   12     -0.28      0.00
   -7    7   12     -0.63      0.00
   -6    7   12     -6.86      0.00
   -5    7   12      0.76      0.00
   -4    7   12     -1.00      0.00
   -3    7   12     -5.35      0.00
   -2    7   12      9.45      0.00
   -1    7   12     -8.20      0.00
    0    7   12      5.67      0.00
    1    7   12     -6.49      0.00
    2    7   12      2.95      0.00
    3    7   12      2.14      0.00
    4    7   12      2.49      0.00
    5    7   12     -3.30      0.00
    6    7   12     -0.63      0.00
    7    7   12     -2.01      0.00
    8    7   12      0.75      0.00
    9    7   12      3.08      0.00
   10    7   12      3.42      0.00
   11    7   12      1.14      0.00
   12    7   12      0.26      0.00
   13    7   12     -4.18      0.00
   14    7   12      2.44      0.00
   15    7   12      4.36      0.00
   16    7   12     -5.04      0.00
   17    7   12     -0.47      0.00
   18    7   12     -4.56      0.00
   -7    8   12     -1.45      0.00
   -6    8   12     -5.90      0.00
   -5    8   12     -1.85      0.00
   -4    8   12     -1.20      0.00
   -3    8   12     -1.15      0.00
   -2    8   12      1.36      0.00
   -1    8   12     -2.23      0.00
    0    8   12     -3.44      0.00
    1    8   12      6.95      0.00
    2    8   12      1.13      0.00
    3    8   12      1.80      0.00
    4    8   12     -2.83      0.00
    5    8   12      9.79      0.00
    6    8   12     -8.48      0.00
    7    8   12      1.60      0.00
    8    8   12      8.29      0.00
    9    8   12     -6.04      0.00
   10    8   12      5.85      0.00
   11    8   12     -0.81      0.00
   12    8   12      3.56      0.00
   13    8   12     -0.50      0.00
   14    8   12     -2.08      0.00
   15    8   12     -1.57      0.00
   16    8   12     -1.58      0.00
   17    8   12     -1.68      0.00
   18    8   12     -1.26      0.00
   19    8   12     -1.88      0.00
   -7    9   12     -4.56      0.00
   -6    9   12     -0.35      0.00
   -5    9   12     -2.92      0.00
   -4    9   12     -3.81      0.00
   -3    9   12     -0.61      0.00
   -2    9   12      0.81      0.00
   -1    9   12      1.86      0.00
    0    9   12     -1.09      0.00
    1    9   12      0.33      0.00
    2    9   12      0.37      0.00
    3    9   12      4.88      0.00
    4    9   12      5.32      0.00
    5    9   12     -5.22      0.00
    6    9   12     -0.23      0.00
    7    9   12      0.77      0.00
    8    9   12      1.90      0.00
    9    9   12      1.47      0.00
   10    9   12      2.49      0.00
   11    9   12      3.26      0.00
   12    9   12     -4.94      0.00
   13    9   12      4.71      0.00
   14    9   12      0.89      0.00
   15    9   12     -5.28      0.00
   16    9   12     -0.13      0.00
   17    9   12      0.11      0.00
   18    9   12     -0.74      0.00
   19    9   12      1.24      0.00
   -6   10   12     -4.05      0.00
   -5   10   12      0.62      0.00
   -4   10   12     -2.13      0.00
   -3   10   12      2.70      0.00
   -2   10   12     -0.92      0.00
   -1   10   12     -2.69      0.00
    0   10   12     -0.36      0.00
    1   10   12      6.82      0.00
    2   10   12     -0.92      0.00
    3   10   12     -1.09      0.00
    4   10   12      2.17      0.00
    5   10   12     -4.78      0.00
    6   10   12      1.20      0.00
    7   10   12     -2.71      0.00
    8   10   12      3.32      0.00
    9   10   12      4.23      0.00
   10   10   12     -3.55      0.00
   11   10   12      6.20      0.00
   12   10   12      0.13      0.00
   13   10   12      3.04      0.00
   14   10   12     -1.41      0.00
   15   10   12     -1.54      0.00
   16   10   12      1.02      0.00
   17   10   12     -1.18      0.00
   18   10   12      0.73      0.00
   19   10   12      1.99      0.00
   -5   11   12      1.14      0.00
   -4   11   12     -0.83      0.00
   -3   11   12     -0.94      0.00
   -2   11   12      2.12      0.00
   -1   11   12      3.80      0.00
    0   11   12     -0.14      0.00
    1   11   12     -2.65      0.00
    2   11   12     -1.82      0.00
    3   11   12      3.41      0.00
    4   11   12      2.26      0.00
    5   11   12     -6.35      0.00
    6   11   12     -3.81      0.00
    7   11   12     -1.41      0.00
    8   11   12      6.02      0.00
    9   11   12      3.16      0.00
   10   11   12      4.72      0.00
   11   11   12     -2.71      0.00
   12   11   12     -2.95      0.00
   13   11   12      7.26      0.00
   14   11   12      0.67      0.00
   15   11   12     -3.88      0.00
   16   11   12     -0.78      0.00
   17   11   12     -0.54      0.00
   18   11   12      1.47      0.00
   -4   12   12      1.45      0.00
   -3   12   12      3.36      0.00
   -2   12   12      0.93      0.00
   -1   12   12     -2.11      0.00
    0   12   12      3.19      0.00
    1   12   12     -1.03      0.00
    2   12   12      1.16      0.00
    3   12   12     -2.65      0.00
    4   12   12     -2.30      0.00
    5   12   12      0.46      0.00
    6   12   12     -0.85      0.00
    7   12   12     -3.62      0.00
    8   12   12      3.87      0.00
    9   12   12      8.36      0.00
   10   12   12     -5.78      0.00
   11   12   12      0.36      0.00
   12   12   12      2.54      0.00
   13   12   12     -3.07      0.00
   14   12   12     -2.58      0.00
   15   12   12      3.16      0.00
   16   12   12     -0.38      0.00
   17   12   12     -0.47      0.00
   18   12   12     -0.80      0.00
   -3   13   12     -3.41      0.00
   -2   13   12      3.58      0.00
   -1   13   12      4.48      0.00
    0   13   12     -4.39      0.00
    1   13   12     -0.55      0.00
    2   13   12     -5.57      0.00
    3   13   12      2.48      0.00
    4   13   12      4.06      0.00
    5   13   12     -2.53      0.00
    6   13   12     -8.09      0.00
    7   13   12      5.41      0.00
    8   13   12      1.13      0.00
    9   13   12      3.12      0.00
   10   13   12     -0.29      0.00
   11   13   12     -2.42      0.00
   12   13   12     -4.53      0.00
   13   13   12      1.09      0.00
   14   13   12      2.92      0.00
   15   13   12     -1.36      0.00
   16   13   12      3.11      0.00
   17   13   12      1.45      0.00
   18   13   12      0.14      0.00
   -2   14   12      0.87      0.00
   -1   14   12     -0.27      0.00
    0   14   12     -4.82      0.00
    1   14   12     -1.12      0.00
    2   14   12      0.43      0.00
    3   14   12     -2.27      0.00
    4   14   12     -2.06      0.00
    5   14   12      3.52      0.00
    6   14   12     -1.83      0.00
    7   14   12     -2.19      0.00
    8   14   12      6.40      0.00
    9   14   12     -2.19      0.00
   10   14   12      0.56      0.00
   11   14   12      2.19      0.00
   12   14   12     -5.38      0.00
   13   14   12      2.04      0.00
   14   14   12     -0.16      0.00
   15   14   12      4.33      0.00
   16   14   12      5.48      0.00
   17   14   12      4.69      0.00
   18   14   12     -4.05      0.00
   -1   15   12     -0.94      0.00
    0   15   12     -1.75      0.00
    1   15   12     -3.30      0.00
    2   15   12     -4.25      0.00
    3   15   12      0.68      0.00
    4   15   12      3.17      0.00
    5   15   12      3.49      0.00
    6   15   12     -8.07      0.00
    7   15   12      5.08      0.00
    8   15   12      1.11      0.00
    9   15   12     -0.78      0.00
   10   15   12      4.19      0.00
   11   15   12     -4.50      0.00
   12   15   12     -2.29      0.00
   13   15   12      0.93      0.00
   14   15   12      2.60      0.00
   15   15   12      4.32      0.00
   16   15   12      4.50      0.00
   17   15   12      1.12      0.00
    0   16   12     -1.04      0.00
    1   16   12     -4.75      0.00
    2   16   12      3.07      0.00
    3   16   12     -1.43      0.00
    4   16   12      0.83      0.00
    5   16   12      1.13      0.00
    6   16   12     -1.95      0.00
    7   16   12      0.53      0.00
    8   16   12     -3.75      0.00
    9   16   12     -1.32      0.00
   10   16   12     -2.48      0.00
   11   16   12     -0.57      0.00
   12   16   12     -3.93      0.00
   13   16   12     -0.30      0.00
   14   16   12      3.77      0.00
   15   16   12      1.22      0.00
   16   16   12      2.99      0.00
   17   16   12      1.59      0.00
    2   17   12     -1.58      0.00
    3   17   12     -0.40      0.00
    4   17   12      1.36      0.00
    5   17   12     -0.88      0.00
    6   17   12     -2.78      0.00
    7   17   12     -6.47      0.00
    8   17   12    -11.36      0.00
    9   17   12      2.02      0.00
   10   17   12     -4.51      0.00
   11   17   12     -0.91      0.00
   12   17   12     -5.85      0.00
   13   17   12      5.81      0.00
   14   17   12     -0.88      0.00
   15   17   12      3.86      0.00
   16   17   12     -0.96      0.00
    4   18   12     -2.02      0.00
    5   18   12     -6.24      0.00
    6   18   12     -6.01      0.00
    7   18   12     -1.06      0.00
    8   18   12    -11.59      0.00
    9   18   12     -3.96      0.00
   10   18   12     -2.32      0.00
   11   18   12      2.53      0.00
   12   18   12     -1.16      0.00
   13   18   12      6.11      0.00
   14   18   12     -0.93      0.00
    7   19   12     -6.93      0.00
    8   19   12     -7.67      0.00
    9   19   12     -1.20      0.00
   10   19   12      4.77      0.00
   11   19   12     -1.21      0.00
   12   19   12      3.31      0.00
   -4  -11   13     -0.88      0.00
   -3  -11   13      3.62      0.00
   -2  -11   13      4.42      0.00
   -1  -11   13     -0.17      0.00
    0  -11   13      4.44      0.00
    1  -11   13      5.49      0.00
    2  -11   13     -1.97      0.00
   -6  -10   13      0.89      0.00
   -5  -10   13      6.26      0.00
   -4  -10   13      2.06      0.00
   -3  -10   13      3.22      0.00
   -2  -10   13      0.56      0.00
   -1  -10   13      6.89      0.00
    0  -10   13      2.69      0.00
    1  -10   13      0.28      0.00
    2  -10   13      3.32      0.00
    3  -10   13     -1.63      0.00
    4  -10   13      4.38      0.00
    5  -10   13     -4.24      0.00
   -7   -9   13     -0.62      0.00
   -6   -9   13      4.22      0.00
   -5   -9   13      2.63      0.00
   -4   -9   13      1.94      0.00
   -3   -9   13      3.73      0.00
   -2   -9   13      3.97      0.00
   -1   -9   13     -0.85      0.00
    0   -9   13      2.36      0.00
    1   -9   13      3.09      0.00
    2   -9   13      2.73      0.00
    3   -9   13     -4.85      0.00
    4   -9   13      5.72      0.00
    5   -9   13     -2.55      0.00
    6   -9   13     -1.78      0.00
    7   -9   13      1.74      0.00
   -8   -8   13      4.43      0.00
   -7   -8   13      0.04      0.00
   -6   -8   13      3.60      0.00
   -5   -8   13      1.29      0.00
   -4   -8   13      1.83      0.00
   -3   -8   13     -0.77      0.00
   -2   -8   13      2.32      0.00
   -1   -8   13      2.14      0.00
    0   -8   13      1.84      0.00
    1   -8   13      0.34      0.00
    2   -8   13      1.97      0.00
    3   -8   13     -3.52      0.00
    4   -8   13      1.61      0.00
    5   -8   13      0.68      0.00
    6   -8   13     -0.63      0.00
    7   -8   13     -0.01      0.00
    8   -8   13      0.25      0.00
   -9   -7   13     -0.12      0.00
   -8   -7   13      3.45      0.00
   -7   -7   13      2.25      0.00
   -6   -7   13      1.88      0.00
   -5   -7   13     -4.02      0.00
   -4   -7   13      4.52      0.00
   -3   -7   13     -1.96      0.00
   -2   -7   13     -0.11      0.00
   -1   -7   13      1.18      0.00
    0   -7   13      1.14      0.00
    1   -7   13      2.72      0.00
    2   -7   13      0.54      0.00
    3   -7   13     -1.18      0.00
    4   -7   13     -4.75      0.00
    5   -7   13     11.11      0.00
    6   -7   13    -11.62      0.00
    7   -7   13      9.06      0.00
    8   -7   13     -1.03      0.00
    9   -7   13      0.68      0.00
   10   -7   13      0.95      0.00
   -9   -6   13      0.82      0.00
   -8   -6   13      2.23      0.00
   -7   -6   13      1.42      0.00
   -6   -6   13      1.96      0.00
   -5   -6   13     -2.12      0.00
   -4   -6   13     -2.93      0.00
   -3   -6   13     -3.73      0.00
   -2   -6   13      5.89      0.00
   -1   -6   13     -0.33      0.00
    0   -6   13     -0.48      0.00
    1   -6   13      3.04      0.00
    2   -6   13      2.22      0.00
    3   -6   13     -5.40      0.00
    4   -6   13      4.12      0.00
    5   -6   13     -0.26      0.00
    6   -6   13      1.85      0.00
    7   -6   13      4.41      0.00
    8   -6   13     -1.61      0.00
    9   -6   13      0.78      0.00
   10   -6   13      2.32      0.00
   11   -6   13      1.76      0.00
  -10   -5   13      3.67      0.00
   -9   -5   13     -0.03      0.00
   -8   -5   13      0.34      0.00
   -7   -5   13     -0.04      0.00
   -6   -5   13      0.59      0.00
   -5   -5   13     -4.14      0.00
   -4   -5   13      1.30      0.00
   -3   -5   13     -0.99      0.00
   -2   -5   13     -4.61      0.00
   -1   -5   13      2.09      0.00
    0   -5   13      2.64      0.00
    1   -5   13      2.17      0.00
    2   -5   13     -3.38      0.00
    3   -5   13      3.28      0.00
    4   -5   13     -0.05      0.00
    5   -5   13      2.79      0.00
    6   -5   13      3.77      0.00
    7   -5   13     -4.02      0.00
    8   -5   13      5.77      0.00
    9   -5   13     -4.67      0.00
   10   -5   13      3.70      0.00
   11   -5   13      0.52      0.00
   12   -5   13     -0.29      0.00
  -10   -4   13      6.74      0.00
   -9   -4   13     -5.59      0.00
   -8   -4   13      0.81      0.00
   -7   -4   13      2.05      0.00
   -6   -4   13     -2.08      0.00
   -5   -4   13     -1.46      0.00
   -4   -4   13     -3.99      0.00
   -3   -4   13     -3.89      0.00
   -2   -4   13      5.33      0.00
   -1   -4   13     -3.66      0.00
    0   -4   13     -0.45      0.00
    1   -4   13     -0.69      0.00
    2   -4   13      1.32      0.00
    3   -4   13      6.19      0.00
    4   -4   13     -1.63      0.00
    5   -4   13     -1.64      0.00
    6   -4   13      4.83      0.00
    7   -4   13      4.53      0.00
    8   -4   13     -7.85      0.00
    9   -4   13      1.53      0.00
   10   -4   13     -0.30      0.00
   11   -4   13     -0.24      0.00
   12   -4   13      2.33      0.00
   13   -4   13      2.90      0.00
  -10   -3   13      4.69      0.00
   -9   -3   13     -5.01      0.00
   -8   -3   13      0.45      0.00
   -7   -3   13     -4.09      0.00
   -6   -3   13      0.58      0.00
   -5   -3   13      0.29      0.00
   -4   -3   13     -3.40      0.00
   -3   -3   13      2.34      0.00
   -2   -3   13     -7.99      0.00
   -1   -3   13      0.87      0.00
    0   -3   13      3.64      0.00
    1   -3   13     -1.76      0.00
    2   -3   13      2.01      0.00
    3   -3   13     -0.11      0.00
    4   -3   13      3.15      0.00
    5   -3   13      3.81      0.00
    6   -3   13      3.74      0.00
    7   -3   13     -7.44      0.00
    8   -3   13     -1.45      0.00
    9   -3   13     -2.39      0.00
   10   -3   13      5.36      0.00
   11   -3   13     -5.86      0.00
   12   -3   13      5.35      0.00
   13   -3   13      1.18      0.00
  -10   -2   13     -0.14      0.00
   -9   -2   13     -2.07      0.00
   -8   -2   13      0.18      0.00
   -7   -2   13     -0.08      0.00
   -6   -2   13     -1.46      0.00
   -5   -2   13     -1.75      0.00
   -4   -2   13     -0.18      0.00
   -3   -2   13      3.10      0.00
   -2   -2   13     -0.35      0.00
   -1   -2   13     -2.76      0.00
    0   -2   13      1.28      0.00
    1   -2   13      1.42      0.00
    2   -2   13      2.56      0.00
    3   -2   13      3.20      0.00
    4   -2   13      1.51      0.00
    5   -2   13     -3.52      0.00
    6   -2   13      5.54      0.00
    7   -2   13     -0.32      0.00
    8   -2   13     -7.37      0.00
    9   -2   13     -0.49      0.00
   10   -2   13     -4.04      0.00
   11   -2   13      3.84      0.00
   12   -2   13     -0.09      0.00
   13   -2   13      1.65      0.00
   14   -2   13     -0.70      0.00
  -10   -1   13     -2.27      0.00
   -9   -1   13      1.94      0.00
   -8   -1   13     -3.29      0.00
   -7   -1   13     -1.78      0.00
   -6   -1   13      4.71      0.00
   -5   -1   13     -1.48      0.00
   -4   -1   13      9.01      0.00
   -3   -1   13     -5.28      0.00
   -2   -1   13      1.15      0.00
   -1   -1   13      2.93      0.00
    0   -1   13      1.65      0.00
    1   -1   13      0.93      0.00
    2   -1   13      3.27      0.00
    3   -1   13     -4.90      0.00
    4   -1   13      4.37      0.00
    5   -1   13      6.37      0.00
    6   -1   13     -3.96      0.00
    7   -1   13     -1.99      0.00
    8   -1   13     -5.28      0.00
    9   -1   13      1.20      0.00
   10   -1   13     -0.74      0.00
   11   -1   13      0.72      0.00
   12   -1   13     -1.18      0.00
   13   -1   13      2.50      0.00
   14   -1   13     -7.01      0.00
   15   -1   13      4.27      0.00
  -10    0   13      4.22      0.00
   -9    0   13     -3.98      0.00
   -8    0   13      8.11      0.00
   -7    0   13     -2.78      0.00
   -6    0   13     -0.85      0.00
   -5    0   13      1.49      0.00
   -4    0   13      6.97      0.00
   -3    0   13      2.01      0.00
   -2    0   13      0.75      0.00
   -1    0   13     -2.38      0.00
    0    0   13     -2.69      0.00
    1    0   13      5.71      0.00
    2    0   13      3.46      0.00
    3    0   13     -0.28      0.00
    4    0   13     -3.76      0.00
    5    0   13      3.63      0.00
    6    0   13      1.70      0.00
    7    0   13     -1.25      0.00
    8    0   13      4.33      0.00
    9    0   13     -5.80      0.00
   10    0   13     -1.21      0.00
   11    0   13      4.72      0.00
   12    0   13      0.39      0.00
   13    0   13     -3.95      0.00
   14    0   13     -0.51      0.00
   15    0   13      0.20      0.00
  -10    1   13      0.42      0.00
   -9    1   13     -0.47      0.00
   -8    1   13      0.07      0.00
   -7    1   13     -1.70      0.00
   -6    1   13      4.54      0.00
   -5    1   13      2.32      0.00
   -4    1   13      1.03      0.00
   -3    1   13     -2.03      0.00
   -2    1   13      1.76      0.00
   -1    1   13     -3.27      0.00
    0    1   13     -3.08      0.00
    1    1   13      6.49      0.00
    2    1   13     -0.57      0.00
    3    1   13      2.27      0.00
    4    1   13     -0.39      0.00
    5    1   13      3.20      0.00
    6    1   13      0.76      0.00
    7    1   13      2.13      0.00
    8    1   13      1.06      0.00
    9    1   13      0.59      0.00
   10    1   13     -2.12      0.00
   11    1   13      3.28      0.00
   12    1   13     -1.69      0.00
   13    1   13     -3.02      0.00
   14    1   13      0.71      0.00
   15    1   13      1.87      0.00
   16    1   13     -0.10      0.00
   -9    2   13      1.07      0.00
   -8    2   13      3.40      0.00
   -7    2   13     -2.62      0.00
   -6    2   13     -2.49      0.00
   -5    2   13      0.68      0.00
   -4    2   13      1.77      0.00
   -3    2   13      1.76      0.00
   -2    2   13     -5.75      0.00
   -1    2   13     -1.09      0.00
    0    2   13     -7.15      0.00
    1    2   13      6.97      0.00
    2    2   13      8.43      0.00
    3    2   13     -0.85      0.00
    4    2   13     -4.16      0.00
    5    2   13      1.88      0.00
    6    2   13      2.84      0.00
    7    2   13      2.38      0.00
    8    2   13      3.11      0.00
    9    2   13     -7.36      0.00
   10    2   13      1.81      0.00
   11    2   13     -0.99      0.00
   12    2   13     -3.54      0.00
   13    2   13     -0.29      0.00
   14    2   13     -1.59      0.00
   15    2   13      1.68      0.00
   16    2   13      4.44      0.00
   17    2   13     -1.49      0.00
   -9    3   13     -1.80      0.00
   -8    3   13     -1.08      0.00
   -7    3   13     -2.17      0.00
   -6    3   13      5.22      0.00
   -5    3   13     -0.69      0.00
   -4    3   13     -5.19      0.00
   -3    3   13      2.95      0.00
   -2    3   13     -3.66      0.00
   -1    3   13     -3.16      0.00
    0    3   13      0.52      0.00
    1    3   13      1.88      0.00
    2    3   13      0.84      0.00
    3    3   13      5.85      0.00
    4    3   13     -3.95      0.00
    5    3   13      0.96      0.00
    6    3   13     -2.21      0.00
    7    3   13     -0.15      0.00
    8    3   13      0.25      0.00
    9    3   13     -0.55      0.00
   10    3   13     -6.50      0.00
   11    3   13     -3.63      0.00
   12    3   13     -0.09      0.00
   13    3   13     -0.54      0.00
   14    3   13      1.89      0.00
   15    3   13      0.07      0.00
   16    3   13      2.75      0.00
   17    3   13      1.79      0.00
   -9    4   13      2.00      0.00
   -8    4   13      0.09      0.00
   -7    4   13      2.64      0.00
   -6    4   13     -2.35      0.00
   -5    4   13      1.75      0.00
   -4    4   13      0.61      0.00
   -3    4   13     -3.59      0.00
   -2    4   13     -0.83      0.00
   -1    4   13      0.02      0.00
    0    4   13     -1.56      0.00
    1    4   13     -2.27      0.00
    2    4   13      5.22      0.00
    3    4   13      1.20      0.00
    4    4   13     -1.76      0.00
    5    4   13     -5.32      0.00
    6    4   13      0.75      0.00
    7    4   13      4.00      0.00
    8    4   13     -8.47      0.00
    9    4   13     -1.70      0.00
   10    4   13      2.84      0.00
   11    4   13     -6.86      0.00
   12    4   13      2.35      0.00
   13    4   13      0.11      0.00
   14    4   13     -1.10      0.00
   15    4   13      3.63      0.00
   16    4   13      2.93      0.00
   17    4   13      4.18      0.00
   -8    5   13      1.49      0.00
   -7    5   13      2.04      0.00
   -6    5   13      6.86      0.00
   -5    5   13     -1.95      0.00
   -4    5   13     -5.73      0.00
   -3    5   13      2.92      0.00
   -2    5   13     -2.70      0.00
   -1    5   13      1.62      0.00
    0    5   13     -0.03      0.00
    1    5   13     -4.47      0.00
    2    5   13      2.08      0.00
    3    5   13      4.47      0.00
    4    5   13     -7.33      0.00
    5    5   13      4.92      0.00
    6    5   13     -1.53      0.00
    7    5   13     -6.58      0.00
    8    5   13      3.08      0.00
    9    5   13      2.62      0.00
   10    5   13     -4.82      0.00
   11    5   13     -0.71      0.00
   12    5   13      4.86      0.00
   13    5   13     -0.34      0.00
   14    5   13      1.29      0.00
   15    5   13     -2.96      0.00
   16    5   13      3.90      0.00
   17    5   13      2.91      0.00
   18    5   13      4.69      0.00
   -8    6   13      3.17      0.00
   -7    6   13      6.15      0.00
   -6    6   13     -2.40      0.00
   -5    6   13      1.57      0.00
   -4    6   13      1.16      0.00
   -3    6   13     -8.04      0.00
   -2    6   13      6.04      0.00
   -1    6   13     -0.58      0.00
    0    6   13      2.41      0.00
    1    6   13     -4.94      0.00
    2    6   13      3.02      0.00
    3    6   13     -4.34      0.00
    4    6   13      4.27      0.00
    5    6   13     -1.96      0.00
    6    6   13     -1.61      0.00
    7    6   13      0.52      0.00
    8    6   13     -3.26      0.00
    9    6   13     -0.07      0.00
   10    6   13      4.02      0.00
   11    6   13     -1.57      0.00
   12    6   13      8.20      0.00
   13    6   13     -5.77      0.00
   14    6   13     -5.64      0.00
   15    6   13      5.74      0.00
   16    6   13     -1.86      0.00
   17    6   13      8.23      0.00
   18    6   13     -0.42      0.00
   -7    7   13      4.37      0.00
   -6    7   13      4.13      0.00
   -5    7   13     -2.33      0.00
   -4    7   13      0.44      0.00
   -3    7   13     -2.31      0.00
   -2    7   13      4.43      0.00
   -1    7   13      1.52      0.00
    0    7   13     -3.79      0.00
    1    7   13     -0.22      0.00
    2    7   13     -0.06      0.00
    3    7   13      2.25      0.00
    4    7   13     -8.75      0.00
    5    7   13      5.13      0.00
    6    7   13     -3.18      0.00
    7    7   13     -8.72      0.00
    8    7   13      8.21      0.00
    9    7   13     -4.93      0.00
   10    7   13      2.01      0.00
   11    7   13      0.57      0.00
   12    7   13      2.56      0.00
   13    7   13     -0.51      0.00
   14    7   13     -0.99      0.00
   15    7   13     -1.08      0.00
   16    7   13      1.51      0.00
   17    7   13      4.69      0.00
   18    7   13      3.11      0.00
   -7    8   13      1.48      0.00
   -6    8   13      2.43      0.00
   -5    8   13      3.22      0.00
   -4    8   13     -2.47      0.00
   -3    8   13      0.26      0.00
   -2    8   13      0.04      0.00
   -1    8   13      2.07      0.00
    0    8   13     -0.84      0.00
    1    8   13      0.20      0.00
    2    8   13     -5.67      0.00
    3    8   13     -0.84      0.00
    4    8   13      1.11      0.00
    5    8   13     -3.34      0.00
    6    8   13     -6.18      0.00
    7    8   13      0.15      0.00
    8    8   13      0.42      0.00
    9    8   13     -2.30      0.00
   10    8   13      1.39      0.00
   11    8   13      3.72      0.00
   12    8   13     -1.31      0.00
   13    8   13      0.32      0.00
   14    8   13      2.83      0.00
   15    8   13     -2.26      0.00
   16    8   13      1.05      0.00
   17    8   13      6.64      0.00
   18    8   13      0.31      0.00
   -6    9   13      3.96      0.00
   -5    9   13     -1.25      0.00
   -4    9   13      0.31      0.00
   -3    9   13      0.42      0.00
   -2    9   13     -0.10      0.00
   -1    9   13      0.58      0.00
    0    9   13     -6.27      0.00
    1    9   13      3.98      0.00
    2    9   13     -1.42      0.00
    3    9   13     -1.24      0.00
    4    9   13     -2.04      0.00
    5    9   13     -1.97      0.00
    6    9   13     -2.26      0.00
    7    9   13     -0.46      0.00
    8    9   13      2.86      0.00
    9    9   13      0.85      0.00
   10    9   13     -2.68      0.00
   11    9   13     -0.58      0.00
   12    9   13     -0.02      0.00
   13    9   13      6.62      0.00
   14    9   13     -1.59      0.00
   15    9   13     -2.42      0.00
   16    9   13      1.44      0.00
   17    9   13      0.69      0.00
   18    9   13      0.13      0.00
   -5   10   13      3.90      0.00
   -4   10   13     -4.13      0.00
   -3   10   13     -1.16      0.00
   -2   10   13     -3.39      0.00
   -1   10   13      2.55      0.00
    0   10   13      2.02      0.00
    1   10   13     -1.44      0.00
    2   10   13     -3.86      0.00
    3   10   13     -0.52      0.00
    4   10   13      5.93      0.00
    5   10   13     -1.75      0.00
    6   10   13      0.77      0.00
    7   10   13     -0.67      0.00
    8   10   13      0.27      0.00
    9   10   13      2.72      0.00
   10   10   13     -3.73      0.00
   11   10   13      0.77      0.00
   12   10   13     -3.10      0.00
   13   10   13      2.99      0.00
   14   10   13      4.50      0.00
   15   10   13     -5.73      0.00
   16   10   13     -1.69      0.00
   17   10   13     -0.18      0.00
   18   10   13     -1.84      0.00
   -5   11   13     -0.60      0.00
   -4   11   13     -3.36      0.00
   -3   11   13     -0.08      0.00
   -2   11   13     -0.49      0.00
   -1   11   13     -2.96      0.00
    0   11   13      1.36      0.00
    1   11   13     -0.26      0.00
    2   11   13      0.77      0.00
    3   11   13     -0.82      0.00
    4   11   13      3.35      0.00
    5   11   13     -1.12      0.00
    6   11   13      6.59      0.00
    7   11   13     -2.92      0.00
    8   11   13     -3.23      0.00
    9   11   13      4.65      0.00
   10   11   13     -3.76      0.00
   11   11   13     -2.82      0.00
   12   11   13      4.62      0.00
   13   11   13      3.91      0.00
   14   11   13     -3.97      0.00
   15   11   13     -0.19      0.00
   16   11   13     -1.21      0.00
   17   11   13     -1.29      0.00
   18   11   13     -3.52      0.00
   -4   12   13      1.78      0.00
   -3   12   13     -7.29      0.00
   -2   12   13     -2.17      0.00
   -1   12   13      4.41      0.00
    0   12   13     -0.59      0.00
    1   12   13     -0.20      0.00
    2   12   13     -4.16      0.00
    3   12   13      1.01      0.00
    4   12   13      2.41      0.00
    5   12   13      6.89      0.00
    6   12   13     -4.65      0.00
    7   12   13     -1.98      0.00
    8   12   13      1.44      0.00
    9   12   13     -0.72      0.00
   10   12   13      2.44      0.00
   11   12   13      0.84      0.00
   12   12   13      2.13      0.00
   13   12   13      2.28      0.00
   14   12   13      2.18      0.00
   15   12   13     -1.67      0.00
   16   12   13     -5.16      0.00
   17   12   13     -0.43      0.00
   18   12   13     -1.73      0.00
   -3   13   13     -3.31      0.00
   -2   13   13      0.75      0.00
   -1   13   13     -0.09      0.00
    0   13   13     -1.63      0.00
    1   13   13      0.82      0.00
    2   13   13      0.08      0.00
    3   13   13      1.02      0.00
    4   13   13     -2.91      0.00
    5   13   13      0.66      0.00
    6   13   13      4.78      0.00
    7   13   13     -5.40      0.00
    8   13   13     -0.70      0.00
    9   13   13      3.42      0.00
   10   13   13     -2.02      0.00
   11   13   13      4.70      0.00
   12   13   13      4.64      0.00
   13   13   13     -1.63      0.00
   14   13   13     -0.44      0.00
   15   13   13     -5.47      0.00
   16   13   13     -1.44      0.00
   17   13   13      0.40      0.00
   18   13   13     -4.93      0.00
   -2   14   13     -1.45      0.00
   -1   14   13      3.28      0.00
    0   14   13      0.58      0.00
    1   14   13      1.56      0.00
    2   14   13     -2.24      0.00
    3   14   13     -2.56      0.00
    4   14   13      0.13      0.00
    5   14   13      5.42      0.00
    6   14   13     -9.10      0.00
    7   14   13      1.29      0.00
    8   14   13      0.31      0.00
    9   14   13     -2.96      0.00
   10   14   13      2.15      0.00
   11   14   13      3.63      0.00
   12   14   13     -4.19      0.00
   13   14   13      2.15      0.00
   14   14   13     -2.91      0.00
   15   14   13     -5.48      0.00
   16   14   13     -3.41      0.00
   17   14   13     -2.98      0.00
    0   15   13      0.94      0.00
    1   15   13     -0.32      0.00
    2   15   13      2.07      0.00
    3   15   13     -4.41      0.00
    4   15   13     -2.46      0.00
    5   15   13     -0.32      0.00
    6   15   13     -0.02      0.00
    7   15   13     -4.44      0.00
    8   15   13     -0.08      0.00
    9   15   13     -0.37      0.00
   10   15   13     -0.23      0.00
   11   15   13      3.49      0.00
   12   15   13     -1.24      0.00
   13   15   13     -2.10      0.00
   14   15   13     -3.75      0.00
   15   15   13     -5.02      0.00
   16   15   13     -3.17      0.00
   17   15   13     -1.02      0.00
    1   16   13      2.48      0.00
    2   16   13     -4.00      0.00
    3   16   13     -5.27      0.00
    4   16   13      0.19      0.00
    5   16   13      0.71      0.00
    6   16   13     -0.33      0.00
    7   16   13      0.54      0.00
    8   16   13     -0.39      0.00
    9   16   13      3.62      0.00
   10   16   13      3.58      0.00
   11   16   13      3.89      0.00
   12   16   13     -1.23      0.00
   13   16   13     -2.78      0.00
   14   16   13     -4.52      0.00
   15   16   13      0.91      0.00
   16   16   13     -6.70      0.00
    3   17   13     -1.29      0.00
    4   17   13     -0.03      0.00
    5   17   13      2.30      0.00
    6   17   13      1.51      0.00
    7   17   13      6.52      0.00
    8   17   13      3.89      0.00
    9   17   13      6.78      0.00
   10   17   13      1.20      0.00
   11   17   13      9.76      0.00
   12   17   13     -8.66      0.00
   13   17   13      1.74      0.00
   14   17   13     -2.82      0.00
   15   17   13     -3.71      0.00
    5   18   13      2.91      0.00
    6   18   13      6.58      0.00
    7   18   13      7.37      0.00
    8   18   13      2.06      0.00
    9   18   13      3.54      0.00
   10   18   13      6.73      0.00
   11   18   13      0.06      0.00
   12   18   13     -1.87      0.00
   13   18   13     -3.24      0.00
   14   18   13     -2.58      0.00
    9   19   13      0.06      0.00
   10   19   13     -0.61      0.00
   -4  -10   14     -4.66      0.00
   -3  -10   14      0.00      0.00
   -2  -10   14     -1.00      0.00
   -1  -10   14     -4.08      0.00
    0  -10   14     -2.48      0.00
    1  -10   14     -6.48      0.00
    2  -10   14      4.09      0.00
    3  -10   14     -2.55      0.00
   -6   -9   14     -2.77      0.00
   -5   -9   14     -5.07      0.00
   -4   -9   14      1.47      0.00
   -3   -9   14     -0.97      0.00
   -2   -9   14     -0.95      0.00
   -1   -9   14     -1.03      0.00
    0   -9   14     -2.66      0.00
    1   -9   14     -5.87      0.00
    2   -9   14      4.00      0.00
    3   -9   14     -3.22      0.00
    4   -9   14      2.87      0.00
    5   -9   14     -5.72      0.00
   -7   -8   14     -3.94      0.00
   -6   -8   14     -0.62      0.00
   -5   -8   14     -5.25      0.00
   -4   -8   14      0.76      0.00
   -3   -8   14      1.59      0.00
   -2   -8   14      3.36      0.00
   -1   -8   14     -1.68      0.00
    0   -8   14     -5.81      0.00
    1   -8   14     -1.26      0.00
    2   -8   14      1.88      0.00
    3   -8   14     -0.99      0.00
    4   -8   14     -2.50      0.00
    5   -8   14      6.12      0.00
    6   -8   14     -9.81      0.00
    7   -8   14      3.52      0.00
   -7   -7   14     -3.41      0.00
   -6   -7   14     -0.90      0.00
   -5   -7   14     -0.59      0.00
   -4   -7   14      2.95      0.00
   -3   -7   14     -0.58      0.00
   -2   -7   14      1.71      0.00
   -1   -7   14      0.79      0.00
    0   -7   14     -4.88      0.00
    1   -7   14     -0.31      0.00
    2   -7   14      1.81      0.00
    3   -7   14     -0.21      0.00
    4   -7   14     -3.77      0.00
    5   -7   14      2.57      0.00
    6   -7   14     -3.80      0.00
    7   -7   14      1.32      0.00
    8   -7   14     -3.68      0.00
    9   -7   14     -4.18      0.00
   -8   -6   14     -1.81      0.00
   -7   -6   14     -2.17      0.00
   -6   -6   14      3.41      0.00
   -5   -6   14     -0.10      0.00
   -4   -6   14      4.48      0.00
   -3   -6   14      0.70      0.00
   -2   -6   14     -0.46      0.00
   -1   -6   14     -1.76      0.00
    0   -6   14     -1.45      0.00
    1   -6   14      0.69      0.00
    2   -6   14     -0.13      0.00
    3   -6   14      0.24      0.00
    4   -6   14     -1.53      0.00
    5   -6   14      0.66      0.00
    6   -6   14     -1.45      0.00
    7   -6   14     -6.56      0.00
    8   -6   14      3.11      0.00
    9   -6   14     -4.98      0.00
   10   -6   14     -1.58      0.00
   -8   -5   14     -3.13      0.00
   -7   -5   14      2.89      0.00
   -6   -5   14      4.85      0.00
   -5   -5   14      5.37      0.00
   -4   -5   14      0.86      0.00
   -3   -5   14     -3.43      0.00
   -2   -5   14      1.46      0.00
   -1   -5   14      1.98      0.00
    0   -5   14     -2.49      0.00
    1   -5   14     -0.60      0.00
    2   -5   14      1.34      0.00
    3   -5   14      2.16      0.00
    4   -5   14     -0.97      0.00
    5   -5   14     -4.45      0.00
    6   -5   14     -1.86      0.00
    7   -5   14      1.98      0.00
    8   -5   14     -2.16      0.00
    9   -5   14     -1.79      0.00
   10   -5   14      1.46      0.00
   11   -5   14      0.11      0.00
   -9   -4   14     -5.54      0.00
   -8   -4   14      1.50      0.00
   -7   -4   14      2.25      0.00
   -6   -4   14      4.16      0.00
   -5   -4   14      6.12      0.00
   -4   -4   14     -1.73      0.00
   -3   -4   14      5.46      0.00
   -2   -4   14     -3.25      0.00
   -1   -4   14     -3.43      0.00
    0   -4   14      4.58      0.00
    1   -4   14      0.00      0.00
    2   -4   14     -0.74      0.00
    3   -4   14      2.68      0.00
    4   -4   14     -2.38      0.00
    5   -4   14     -2.28      0.00
    6   -4   14      4.49      0.00
    7   -4   14     -7.41      0.00
    8   -4   14      3.34      0.00
    9   -4   14     -2.50      0.00
   10   -4   14      4.92      0.00
   11   -4   14     -3.09      0.00
   12   -4   14      0.52      0.00
   -9   -3   14     -2.82      0.00
   -8   -3   14     -0.08      0.00
   -7   -3   14      4.93      0.00
   -6   -3   14      6.16      0.00
   -5   -3   14      1.84      0.00
   -4   -3   14     -1.58      0.00
   -3   -3   14      0.52      0.00
   -2   -3   14     -0.06      0.00
   -1   -3   14      2.05      0.00
    0   -3   14     -2.82      0.00
    1   -3   14      0.30      0.00
    2   -3   14      0.78      0.00
    3   -3   14      3.01      0.00
    4   -3   14      2.83      0.00
    5   -3   14     -6.96      0.00
    6   -3   14     -0.46      0.00
    7   -3   14      5.04      0.00
    8   -3   14     -3.04      0.00
    9   -3   14      3.95      0.00
   10   -3   14     -2.96      0.00
   11   -3   14      0.74      0.00
   12   -3   14     -0.53      0.00
   13   -3   14     -1.51      0.00
   -9   -2   14      3.39      0.00
   -8   -2   14     -1.07      0.00
   -7   -2   14      2.17      0.00
   -6   -2   14      1.48      0.00
   -5   -2   14     -1.33      0.00
   -4   -2   14      3.52      0.00
   -3   -2   14     -1.04      0.00
   -2   -2   14     -5.50      0.00
   -1   -2   14     -2.62      0.00
    0   -2   14      3.54      0.00
    1   -2   14     -0.93      0.00
    2   -2   14      4.41      0.00
    3   -2   14     -3.58      0.00
    4   -2   14      0.03      0.00
    5   -2   14      6.01      0.00
    6   -2   14      0.67      0.00
    7   -2   14     -1.76      0.00
    8   -2   14      0.10      0.00
    9   -2   14     -0.05      0.00
   10   -2   14      4.33      0.00
   11   -2   14      0.45      0.00
   12   -2   14     -2.90      0.00
   13   -2   14      6.33      0.00
   14   -2   14     -5.59      0.00
   -9   -1   14     -1.85      0.00
   -8   -1   14      0.90      0.00
   -7   -1   14      4.02      0.00
   -6   -1   14     -2.63      0.00
   -5   -1   14     -3.57      0.00
   -4   -1   14      0.44      0.00
   -3   -1   14     -6.46      0.00
   -2   -1   14      0.59      0.00
   -1   -1   14     -1.09      0.00
    0   -1   14     -4.44      0.00
    1   -1   14      5.90      0.00
    2   -1   14      0.24      0.00
    3   -1   14      3.19      0.00
    4   -1   14      3.10      0.00
    5   -1   14     -2.39      0.00
    6   -1   14      1.46      0.00
    7   -1   14      0.86      0.00
    8   -1   14      6.54      0.00
    9   -1   14     -0.90      0.00
   10   -1   14     -2.78      0.00
   11   -1   14      3.36      0.00
   12   -1   14      3.75      0.00
   13   -1   14      0.84      0.00
   14   -1   14     -0.24      0.00
   -9    0   14     -0.11      0.00
   -8    0   14      1.04      0.00
   -7    0   14     -3.90      0.00
   -6    0   14     -2.25      0.00
   -5    0   14      1.38      0.00
   -4    0   14     -1.56      0.00
   -3    0   14     -6.47      0.00
   -2    0   14     -1.96      0.00
   -1    0   14      1.89      0.00
    0    0   14      1.16      0.00
    1    0   14      3.56      0.00
    2    0   14      2.48      0.00
    3    0   14      0.41      0.00
    4    0   14     -1.42      0.00
    5    0   14      4.63      0.00
    6    0   14     -0.99      0.00
    7    0   14      1.17      0.00
    8    0   14      1.87      0.00
    9    0   14      0.48      0.00
   10    0   14      0.17      0.00
   11    0   14      3.43      0.00
   12    0   14      3.42      0.00
   13    0   14     -0.76      0.00
   14    0   14      0.38      0.00
   15    0   14      1.26      0.00
   -9    1   14     -3.01      0.00
   -8    1   14      2.00      0.00
   -7    1   14      1.44      0.00
   -6    1   14     -2.94      0.00
   -5    1   14     -1.24      0.00
   -4    1   14     -3.64      0.00
   -3    1   14      2.54      0.00
   -2    1   14      1.31      0.00
   -1    1   14     -0.39      0.00
    0    1   14      0.65      0.00
    1    1   14      1.85      0.00
    2    1   14      5.55      0.00
    3    1   14      3.14      0.00
    4    1   14     -5.16      0.00
    5    1   14     -2.81      0.00
    6    1   14      1.41      0.00
    7    1   14     -0.66      0.00
   10    1   14     -0.94      0.00
   11    1   14      5.01      0.00
   12    1   14      1.32      0.00
   13    1   14      2.02      0.00
   14    1   14      0.37      0.00
   15    1   14     -2.23      0.00
   16    1   14      2.12      0.00
   -9    2   14     -0.71      0.00
   -8    2   14     -1.37      0.00
   -7    2   14     -1.31      0.00
   -6    2   14      1.37      0.00
   -5    2   14      2.43      0.00
   -4    2   14     -3.41      0.00
   -3    2   14      2.70      0.00
   -2    2   14     -0.07      0.00
   -1    2   14      1.46      0.00
    0    2   14      3.40      0.00
    1    2   14      1.60      0.00
    2    2   14     -0.64      0.00
    3    2   14      2.52      0.00
    4    2   14     -1.18      0.00
    5    2   14     -1.23      0.00
    6    2   14     -0.49      0.00
    7    2   14      2.62      0.00
    8    2   14      2.64      0.00
    9    2   14      5.16      0.00
   10    2   14      4.06      0.00
   11    2   14     -1.82      0.00
   12    2   14      3.42      0.00
   13    2   14      0.30      0.00
   14    2   14      3.01      0.00
   15    2   14     -2.63      0.00
   16    2   14     -2.71      0.00
   -8    3   14      1.68      0.00
   -7    3   14     -0.09      0.00
   -6    3   14     -0.86      0.00
   -5    3   14     -2.34      0.00
   -4    3   14      1.33      0.00
   -3    3   14      3.22      0.00
   -2    3   14     -1.99      0.00
   -1    3   14      1.20      0.00
    0    3   14      4.52      0.00
    1    3   14     -3.72      0.00
    2    3   14      4.91      0.00
    3    3   14      3.28      0.00
    4    3   14      0.31      0.00
    5    3   14     -0.65      0.00
    6    3   14     -0.41      0.00
    7    3   14      6.29      0.00
    8    3   14      4.94      0.00
    9    3   14      1.89      0.00
   10    3   14      5.36      0.00
   11    3   14      0.23      0.00
   12    3   14     -0.83      0.00
   13    3   14      2.64      0.00
   14    3   14     -4.16      0.00
   15    3   14     -2.11      0.00
   16    3   14     -3.00      0.00
   17    3   14     -2.06      0.00
   -8    4   14     -2.16      0.00
   -7    4   14     -2.65      0.00
   -6    4   14      1.56      0.00
   -5    4   14      0.66      0.00
   -4    4   14     -2.93      0.00
   -3    4   14     -0.38      0.00
   -2    4   14      1.67      0.00
   -1    4   14      1.02      0.00
    0    4   14      4.77      0.00
    1    4   14     -2.11      0.00
    2    4   14     -1.95      0.00
    3    4   14      9.06      0.00
    4    4   14      0.43      0.00
    5    4   14      3.78      0.00
    6    4   14      3.09      0.00
    7    4   14     -0.14      0.00
    8    4   14      0.81      0.00
    9    4   14     10.60      0.00
   10    4   14     -0.09      0.00
   11    4   14     -6.18      0.00
   12    4   14      2.37      0.00
   13    4   14     -3.21      0.00
   14    4   14     -1.32      0.00
   15    4   14     -2.74      0.00
   16    4   14     -1.08      0.00
   17    4   14     -6.78      0.00
   -8    5   14      0.17      0.00
   -7    5   14      0.47      0.00
   -6    5   14     -4.64      0.00
   -5    5   14      2.55      0.00
   -4    5   14      0.75      0.00
   -3    5   14     -2.44      0.00
   -2    5   14     -0.94      0.00
   -1    5   14      2.50      0.00
    0    5   14      3.58      0.00
    1    5   14     -5.28      0.00
    2    5   14      4.95      0.00
    3    5   14      0.86      0.00
    4    5   14      3.59      0.00
    5    5   14      4.54      0.00
    6    5   14      0.59      0.00
    7    5   14      2.69      0.00
    8    5   14     -0.48      0.00
    9    5   14     -1.18      0.00
   10    5   14      4.21      0.00
   11    5   14     -5.71      0.00
   12    5   14      1.62      0.00
   13    5   14     -2.35      0.00
   14    5   14     -6.75      0.00
   15    5   14      3.91      0.00
   16    5   14     -2.16      0.00
   17    5   14      0.69      0.00
   -7    6   14     -3.35      0.00
   -6    6   14      4.84      0.00
   -5    6   14      0.86      0.00
   -4    6   14     -0.81      0.00
   -3    6   14     -4.23      0.00
   -2    6   14      1.93      0.00
   -1    6   14      1.77      0.00
    0    6   14     -1.22      0.00
    1    6   14     -2.81      0.00
    2    6   14     -0.59      0.00
    3    6   14      6.43      0.00
    4    6   14     -0.75      0.00
    5    6   14      3.68      0.00
    6    6   14      7.50      0.00
    7    6   14     -9.40      0.00
    8    6   14      5.27      0.00
    9    6   14     -0.29      0.00
   10    6   14     -0.22      0.00
   11    6   14     -3.92      0.00
   12    6   14      1.28      0.00
   13    6   14     -3.03      0.00
   14    6   14      2.19      0.00
   15    6   14      2.35      0.00
   16    6   14     -2.04      0.00
   17    6   14     -0.38      0.00
   18    6   14     -2.45      0.00
   -7    7   14      2.31      0.00
   -6    7   14     -0.87      0.00
   -5    7   14      5.46      0.00
   -4    7   14     -1.33      0.00
   -3    7   14     -2.17      0.00
   -2    7   14     -3.89      0.00
   -1    7   14      4.56      0.00
    0    7   14     -4.73      0.00
    1    7   14      2.53      0.00
    2    7   14      0.46      0.00
    3    7   14     -2.70      0.00
    4    7   14      5.93      0.00
    5    7   14      5.52      0.00
    6    7   14      0.63      0.00
    7    7   14     -1.83      0.00
    9    7   14     -5.93      0.00
   10    7   14      2.23      0.00
   11    7   14     -0.57      0.00
   12    7   14      1.86      0.00
   13    7   14     -0.95      0.00
   14    7   14     -1.14      0.00
   15    7   14      3.19      0.00
   16    7   14     -6.19      0.00
   17    7   14      2.32      0.00
   18    7   14     -2.73      0.00
   -6    8   14      7.03      0.00
   -5    8   14     -0.19      0.00
   -4    8   14     -1.92      0.00
   -3    8   14      0.90      0.00
   -2    8   14      0.79      0.00
   -1    8   14      1.61      0.00
    0    8   14     -4.93      0.00
    1    8   14      2.28      0.00
    2    8   14     -2.64      0.00
    3    8   14      7.37      0.00
    4    8   14      0.29      0.00
    5    8   14      4.48      0.00
    6    8   14      1.75      0.00
    7    8   14     -3.91      0.00
    8    8   14      2.47      0.00
    9    8   14     -1.44      0.00
   10    8   14      0.23      0.00
   11    8   14      0.45      0.00
   12    8   14     -4.66      0.00
   13    8   14      4.55      0.00
   14    8   14      1.54      0.00
   15    8   14     -4.17      0.00
   16    8   14     -3.19      0.00
   17    8   14     -0.42      0.00
   18    8   14     -2.37      0.00
   -5    9   14      2.21      0.00
   -4    9   14      1.60      0.00
   -3    9   14      3.46      0.00
   -2    9   14     -3.21      0.00
   -1    9   14     -0.35      0.00
    0    9   14      0.35      0.00
    1    9   14      3.47      0.00
    2    9   14     -3.07      0.00
    3    9   14     -1.17      0.00
    4    9   14      7.24      0.00
    5    9   14      2.00      0.00
    6    9   14     -2.62      0.00
    7    9   14     -0.53      0.00
    8    9   14     -4.52      0.00
    9    9   14      1.29      0.00
   10    9   14      1.02      0.00
   11    9   14      0.00      0.00
   12    9   14     -0.42      0.00
   13    9   14     -0.71      0.00
   14    9   14      2.94      0.00
   15    9   14     -3.05      0.00
   16    9   14     -1.88      0.00
   17    9   14     -0.06      0.00
   18    9   14     -0.76      0.00
   -5   10   14      2.85      0.00
   -4   10   14      0.91      0.00
   -3   10   14      2.39      0.00
   -2   10   14      2.98      0.00
   -1   10   14     -3.15      0.00
    0   10   14     -0.98      0.00
    1   10   14     -0.16      0.00
    2   10   14      1.34      0.00
    3   10   14     -1.44      0.00
    4   10   14      5.17      0.00
    5   10   14     -4.83      0.00
    6   10   14      1.67      0.00
    7   10   14     -3.37      0.00
    8   10   14     -4.04      0.00
    9   10   14      3.72      0.00
   10   10   14      2.17      0.00
   11   10   14     -2.06      0.00
   12   10   14     -0.72      0.00
   13   10   14      2.56      0.00
   14   10   14     -0.82      0.00
   15   10   14     -0.62      0.00
   16   10   14      2.81      0.00
   17   10   14     -0.12      0.00
   18   10   14     -1.94      0.00
   -4   11   14      4.59      0.00
   -3   11   14      1.75      0.00
   -2   11   14     -4.73      0.00
   -1   11   14      1.32      0.00
    0   11   14      2.85      0.00
    1   11   14      0.62      0.00
    2   11   14     -2.13      0.00
    3   11   14      0.22      0.00
    4   11   14     -2.01      0.00
    5   11   14      2.58      0.00
    6   11   14      0.17      0.00
    7   11   14     -5.05      0.00
    8   11   14      0.23      0.00
    9   11   14      0.06      0.00
   10   11   14      5.30      0.00
   11   11   14     -3.94      0.00
   12   11   14     -2.02      0.00
   13   11   14     -3.34      0.00
   14   11   14      2.23      0.00
   15   11   14      4.78      0.00
   16   11   14     -3.64      0.00
   17   11   14      3.10      0.00
   18   11   14     -0.29      0.00
   -3   12   14     -2.04      0.00
   -2   12   14      2.04      0.00
   -1   12   14      2.45      0.00
    0   12   14     -1.04      0.00
    1   12   14      1.52      0.00
    2   12   14      0.45      0.00
    3   12   14      2.50      0.00
    4   12   14     -2.48      0.00
    5   12   14     -3.78      0.00
    6   12   14      4.99      0.00
    7   12   14     -0.83      0.00
    8   12   14     -3.42      0.00
    9   12   14      1.47      0.00
   10   12   14      0.80      0.00
   11   12   14     -7.13      0.00
   12   12   14     -0.51      0.00
   13   12   14     -1.82      0.00
   14   12   14     -0.53      0.00
   15   12   14     -0.77      0.00
   16   12   14      2.36      0.00
   17   12   14      4.16      0.00
   18   12   14     -0.82      0.00
   -2   13   14     -1.29      0.00
   -1   13   14      3.84      0.00
    0   13   14      1.26      0.00
    1   13   14      1.81      0.00
    2   13   14      1.82      0.00
    3   13   14     -2.04      0.00
    4   13   14     -2.46      0.00
    5   13   14      6.09      0.00
    6   13   14     -3.37      0.00
    7   13   14     -2.85      0.00
    8   13   14      3.22      0.00
    9   13   14      0.27      0.00
   10   13   14     -4.28      0.00
   11   13   14      1.46      0.00
   12   13   14     -5.79      0.00
   13   13   14     -3.05      0.00
   14   13   14      3.95      0.00
   15   13   14      0.93      0.00
   16   13   14      0.84      0.00
   17   13   14      0.91      0.00
   18   13   14      2.25      0.00
   -1   14   14      3.58      0.00
    0   14   14     -1.43      0.00
    1   14   14      0.01      0.00
    2   14   14      4.36      0.00
    3   14   14     -0.59      0.00
    4   14   14      0.25      0.00
    5   14   14     -3.13      0.00
    6   14   14      3.60      0.00
    7   14   14      1.87      0.00
    8   14   14     -1.69      0.00
    9   14   14      4.07      0.00
   10   14   14     -2.46      0.00
   11   14   14      2.11      0.00
   12   14   14     -1.57      0.00
   13   14   14      0.00      0.00
   14   14   14      1.90      0.00
   15   14   14     -1.99      0.00
   16   14   14      4.14      0.00
   17   14   14      1.14      0.00
    0   15   14     -1.52      0.00
    1   15   14      3.72      0.00
    2   15   14      2.82      0.00
    3   15   14     -2.95      0.00
    4   15   14      1.84      0.00
    5   15   14      2.80      0.00
    6   15   14      0.24      0.00
    7   15   14     -0.32      0.00
    8   15   14      3.79      0.00
    9   15   14      1.38      0.00
   10   15   14      1.12      0.00
   11   15   14     -0.06      0.00
   12   15   14     -0.33      0.00
   13   15   14      1.63      0.00
   14   15   14     -3.47      0.00
   15   15   14      7.57      0.00
   16   15   14     -1.57      0.00
   17   15   14      0.96      0.00
    2   16   14      2.35      0.00
    3   16   14      0.07      0.00
    4   16   14      0.65      0.00
    5   16   14      0.74      0.00
    6   16   14      0.41      0.00
    7   16   14     -0.68      0.00
    8   16   14     -1.05      0.00
    9   16   14      0.25      0.00
   10   16   14     -6.45      0.00
   11   16   14      7.00      0.00
   12   16   14     -3.94      0.00
   13   16   14     -1.30      0.00
   14   16   14      2.58      0.00
   15   16   14      2.37      0.00
   16   16   14     -0.37      0.00
    4   17   14      0.32      0.00
    5   17   14     -3.44      0.00
    6   17   14     -1.79      0.00
    7   17   14     -0.54      0.00
    8   17   14     -6.90      0.00
    9   17   14     -3.89      0.00
   10   17   14     -2.81      0.00
   11   17   14      0.42      0.00
   12   17   14     -1.25      0.00
   13   17   14      1.30      0.00
   14   17   14     -1.00      0.00
   15   17   14      3.86      0.00
    6   18   14     -7.12      0.00
    7   18   14     -2.94      0.00
    8   18   14     -3.09      0.00
    9   18   14     -3.21      0.00
   10   18   14     -4.19      0.00
   11   18   14      1.73      0.00
   12   18   14      0.77      0.00
   13   18   14     -2.57      0.00
   -3   -9   15     -1.68      0.00
   -2   -9   15      0.77      0.00
   -1   -9   15      6.05      0.00
    0   -9   15      1.40      0.00
    1   -9   15     -0.34      0.00
    2   -9   15      5.99      0.00
    3   -9   15     -3.69      0.00
   -5   -8   15     -1.10      0.00
   -4   -8   15     -0.75      0.00
   -3   -8   15     -2.67      0.00
   -2   -8   15      0.55      0.00
   -1   -8   15      2.77      0.00
    0   -8   15      3.02      0.00
    1   -8   15      2.52      0.00
    2   -8   15     -0.27      0.00
    3   -8   15      3.02      0.00
    4   -8   15     -0.21      0.00
    5   -8   15      0.62      0.00
    6   -8   15      2.36      0.00
   -6   -7   15      1.58      0.00
   -5   -7   15     -2.37      0.00
   -4   -7   15     -1.91      0.00
   -3   -7   15     -3.15      0.00
   -2   -7   15     -0.75      0.00
   -1   -7   15      5.26      0.00
    0   -7   15     -0.78      0.00
    1   -7   15      3.21      0.00
    2   -7   15     -1.25      0.00
    3   -7   15      1.85      0.00
    4   -7   15     -4.12      0.00
    5   -7   15      7.35      0.00
    6   -7   15     -0.14      0.00
    7   -7   15     -0.22      0.00
   -7   -6   15     -0.08      0.00
   -6   -6   15     -2.16      0.00
   -5   -6   15     -1.43      0.00
   -4   -6   15     -1.61      0.00
   -3   -6   15     -5.26      0.00
   -2   -6   15      0.37      0.00
   -1   -6   15      2.49      0.00
    0   -6   15      1.27      0.00
    1   -6   15     -3.16      0.00
    2   -6   15      2.20      0.00
    3   -6   15      0.62      0.00
    4   -6   15     -1.51      0.00
    5   -6   15      1.40      0.00
    6   -6   15     -0.06      0.00
    7   -6   15      2.33      0.00
    8   -6   15      2.54      0.00
    9   -6   15     -2.44      0.00
   -7   -5   15     -2.54      0.00
   -6   -5   15     -3.57      0.00
   -5   -5   15     -2.03      0.00
   -4   -5   15     -4.86      0.00
   -3   -5   15      0.77      0.00
   -2   -5   15      0.11      0.00
   -1   -5   15     -2.42      0.00
    0   -5   15     -0.12      0.00
    1   -5   15     -0.45      0.00
    2   -5   15     -1.93      0.00
    3   -5   15      1.30      0.00
    4   -5   15     -0.21      0.00
    5   -5   15     -1.61      0.00
    6   -5   15      6.67      0.00
    7   -5   15     -4.94      0.00
    8   -5   15      0.81      0.00
    9   -5   15     -0.55      0.00
   10   -5   15     -2.69      0.00
   -7   -4   15     -4.17      0.00
   -6   -4   15     -1.04      0.00
   -5   -4   15     -1.67      0.00
   -4   -4   15     -5.41      0.00
   -3   -4   15      1.34      0.00
   -2   -4   15     -3.99      0.00
   -1   -4   15      3.53      0.00
    0   -4   15     -3.22      0.00
    1   -4   15     -1.77      0.00
    2   -4   15     -2.72      0.00
    3   -4   15      2.79      0.00
    4   -4   15      1.91      0.00
    5   -4   15     -1.78      0.00
    6   -4   15     -0.33      0.00
    7   -4   15      1.54      0.00
    8   -4   15     -0.77      0.00
    9   -4   15     -0.75      0.00
   10   -4   15     -2.62      0.00
   11   -4   15     -0.63      0.00
   -8   -3   15     -2.88      0.00
   -7   -3   15     -1.98      0.00
   -6   -3   15     -3.92      0.00
   -5   -3   15     -5.28      0.00
   -4   -3   15     -0.21      0.00
   -3   -3   15      3.59      0.00
   -2   -3   15      1.27      0.00
   -1   -3   15     -4.32      0.00
    0   -3   15      0.30      0.00
    1   -3   15     -0.17      0.00
    2   -3   15      0.05      0.00
    3   -3   15     -1.32      0.00
    4   -3   15     -3.42      0.00
    5   -3   15      2.22      0.00
    6   -3   15      4.48      0.00
    7   -3   15     -1.41      0.00
    8   -3   15     -0.36      0.00
    9   -3   15     -3.64      0.00
   10   -3   15     -0.41      0.00
   11   -3   15      1.90      0.00
   12   -3   15     -0.39      0.00
   -8   -2   15     -4.60      0.00
   -7   -2   15     -1.57      0.00
   -6   -2   15     -0.28      0.00
   -5   -2   15     -4.74      0.00
   -4   -2   15      5.68      0.00
   -3   -2   15     -2.59      0.00
   -2   -2   15      4.61      0.00
   -1   -2   15      3.67      0.00
    0   -2   15     -3.97      0.00
    1   -2   15      0.26      0.00
    2   -2   15     -1.50      0.00
    3   -2   15     -5.15      0.00
    4   -2   15      4.64      0.00
    5   -2   15     -2.35      0.00
    6   -2   15     -2.02      0.00
    7   -2   15     -0.56      0.00
    8   -2   15      4.12      0.00
    9   -2   15     -2.30      0.00
   10   -2   15     -2.30      0.00
   11   -2   15     -0.81      0.00
   12   -2   15      1.22      0.00
   13   -2   15      0.27      0.00
   -8   -1   15     -1.16      0.00
   -7   -1   15      0.49      0.00
   -6   -1   15     -6.25      0.00
   -5   -1   15     -0.08      0.00
   -4   -1   15      6.56      0.00
   -3   -1   15      3.23      0.00
   -2   -1   15      1.74      0.00
   -1   -1   15      0.16      0.00
    0   -1   15     -1.82      0.00
    1   -1   15      0.97      0.00
    2   -1   15     -2.81      0.00
    3   -1   15     -2.91      0.00
    4   -1   15     -6.25      0.00
    5   -1   15      1.87      0.00
    6   -1   15      0.75      0.00
    7   -1   15     -1.00      0.00
    8   -1   15     -0.47      0.00
    9   -1   15     -2.51      0.00
   10   -1   15     -0.81      0.00
   11   -1   15     -0.97      0.00
   12   -1   15      0.95      0.00
   13   -1   15     -0.51      0.00
   14   -1   15     -2.00      0.00
   -8    0   15     -2.56      0.00
   -7    0   15      1.36      0.00
   -6    0   15     -1.59      0.00
   -5    0   15      0.11      0.00
   -4    0   15      2.44      0.00
   -3    0   15     -0.82      0.00
   -2    0   15      5.92      0.00
   -1    0   15     -2.26      0.00
    0    0   15     -4.18      0.00
    1    0   15     -1.73      0.00
    2    0   15     -3.84      0.00
    3    0   15      2.44      0.00
    4    0   15     -1.83      0.00
    5    0   15     -2.88      0.00
    6    0   15     -3.86      0.00
    7    0   15     -2.26      0.00
    8    0   15      4.61      0.00
    9    0   15      0.91      0.00
   10    0   15     -6.16      0.00
   11    0   15      0.43      0.00
   12    0   15     -2.81      0.00
   13    0   15      0.64      0.00
   14    0   15      1.05      0.00
   -8    1   15     -0.52      0.00
   -7    1   15     -2.47      0.00
   -6    1   15     -1.41      0.00
   -5    1   15     -0.04      0.00
   -4    1   15     -0.49      0.00
   -3    1   15      1.62      0.00
   -2    1   15     -1.86      0.00
   -1    1   15     -5.02      0.00
    0    1   15      1.08      0.00
    1    1   15     -3.09      0.00
    2    1   15     -0.46      0.00
    3    1   15     -0.88      0.00
    4    1   15     -0.42      0.00
    5    1   15     -1.24      0.00
    6    1   15     -2.45      0.00
    7    1   15      0.29      0.00
    8    1   15     -2.58      0.00
    9    1   15     -0.82      0.00
   10    1   15      1.67      0.00
   11    1   15     -4.72      0.00
   12    1   15     -1.17      0.00
   13    1   15     -4.47      0.00
   14    1   15      7.05      0.00
   15    1   15      0.31      0.00
   -8    2   15     -2.80      0.00
   -7    2   15      2.69      0.00
   -6    2   15      0.60      0.00
   -5    2   15     -6.55      0.00
   -4    2   15     -0.24      0.00
   -3    2   15      2.00      0.00
   -2    2   15     -1.26      0.00
   -1    2   15     -5.57      0.00
    0    2   15      1.25      0.00
    1    2   15     -5.27      0.00
    2    2   15     -0.18      0.00
    3    2   15      2.50      0.00
    4    2   15      1.35      0.00
    5    2   15     -4.91      0.00
    6    2   15     -2.48      0.00
    7    2   15     -4.11      0.00
    8    2   15     -1.71      0.00
    9    2   15      2.76      0.00
   10    2   15     -3.15      0.00
   11    2   15     -3.18      0.00
   12    2   15     -3.41      0.00
   13    2   15      3.58      0.00
   14    2   15      1.98      0.00
   15    2   15      1.47      0.00
   16    2   15      0.67      0.00
   -7    3   15     -0.17      0.00
   -6    3   15     -0.02      0.00
   -5    3   15      0.44      0.00
   -4    3   15      0.78      0.00
   -3    3   15     -2.78      0.00
   -2    3   15      0.94      0.00
   -1    3   15     -5.08      0.00
    0    3   15      3.24      0.00
    1    3   15     -3.28      0.00
    2    3   15     -6.35      0.00
    3    3   15      0.19      0.00
    4    3   15     -1.39      0.00
    5    3   15      0.47      0.00
    6    3   15     -5.35      0.00
    7    3   15     -4.64      0.00
    8    3   15     -6.66      0.00
    9    3   15      2.84      0.00
   10    3   15      3.22      0.00
   11    3   15     -5.67      0.00
   12    3   15      1.21      0.00
   13    3   15      2.46      0.00
   14    3   15      4.52      0.00
   15    3   15     -0.29      0.00
   16    3   15      5.17      0.00
   -7    4   15      3.59      0.00
   -6    4   15     -1.65      0.00
   -5    4   15      0.75      0.00
   -4    4   15      2.16      0.00
   -3    4   15      1.73      0.00
   -2    4   15     -2.16      0.00
   -1    4   15     -3.65      0.00
    0    4   15      3.46      0.00
    1    4   15     -8.02      0.00
    2    4   15     -1.80      0.00
    3    4   15     -2.62      0.00
    4    4   15     -2.74      0.00
    5    4   15     -1.41      0.00
    6    4   15     -5.94      0.00
    7    4   15     -1.72      0.00
    8    4   15     -4.32      0.00
    9    4   15     -0.26      0.00
   10    4   15      2.01      0.00
   11    4   15      1.74      0.00
   12    4   15      5.06      0.00
   13    4   15      3.98      0.00
   14    4   15     -2.52      0.00
   15    4   15      1.02      0.00
   16    4   15      0.97      0.00
   17    4   15      0.83      0.00
   -7    5   15     -1.63      0.00
   -6    5   15      0.00      0.00
   -5    5   15      6.06      0.00
   -4    5   15      1.09      0.00
   -3    5   15     -5.12      0.00
   -2    5   15      2.66      0.00
   -1    5   15      0.51      0.00
    0    5   15      0.14      0.00
    1    5   15     -2.50      0.00
    2    5   15     -7.29      0.00
    3    5   15     -0.50      0.00
    4    5   15     -2.20      0.00
    5    5   15     -4.75      0.00
    6    5   15      5.63      0.00
    7    5   15     -9.36      0.00
    8    5   15     -3.96      0.00
    9    5   15      4.52      0.00
   11    5   15      0.94      0.00
   12    5   15      5.60      0.00
   13    5   15     -1.18      0.00
   14    5   15     -2.37      0.00
   15    5   15     -1.52      0.00
   16    5   15      0.15      0.00
   17    5   15     -2.40      0.00
   -6    6   15     -4.54      0.00
   -5    6   15      6.12      0.00
   -4    6   15     -0.42      0.00
   -3    6   15      3.29      0.00
   -2    6   15     -6.40      0.00
   -1    6   15      6.07      0.00
    0    6   15     -0.69      0.00
    1    6   15     -3.86      0.00
    2    6   15      2.03      0.00
    3    6   15     -5.28      0.00
    4    6   15     -3.78      0.00
    5    6   15      2.08      0.00
    6    6   15      0.82      0.00
    7    6   15     -7.67      0.00
    8    6   15      5.26      0.00
    9    6   15     -8.01      0.00
   10    6   15      5.29      0.00
   11    6   15      2.02      0.00
   12    6   15      1.54      0.00
   13    6   15      0.59      0.00
   14    6   15     -8.41      0.00
   15    6   15     -1.51      0.00
   16    6   15     -3.92      0.00
   17    6   15      2.37      0.00
   -6    7   15      2.77      0.00
   -5    7   15      2.94      0.00
   -4    7   15     -1.74      0.00
   -3    7   15     -2.58      0.00
   -2    7   15      1.95      0.00
   -1    7   15      4.61      0.00
    0    7   15     -3.35      0.00
    1    7   15      1.29      0.00
    2    7   15     -6.95      0.00
    3    7   15      1.38      0.00
    4    7   15      0.41      0.00
    5    7   15     -2.41      0.00
    6    7   15      1.53      0.00
    7    7   15     -5.92      0.00
    8    7   15      0.44      0.00
    9    7   15     -2.53      0.00
   10    7   15      3.97      0.00
   11    7   15     -0.06      0.00
   12    7   15     -2.51      0.00
   13    7   15     -3.63      0.00
   14    7   15      0.14      0.00
   15    7   15     -0.64      0.00
   16    7   15     -4.04      0.00
   17    7   15      4.65      0.00
   -5    8   15     -1.13      0.00
   -4    8   15     -0.59      0.00
   -3    8   15      1.46      0.00
   -2    8   15     -1.61      0.00
   -1    8   15     -0.17      0.00
    0    8   15     -3.92      0.00
    1    8   15      3.64      0.00
    2    8   15     -0.95      0.00
    3    8   15     -6.19      0.00
    4    8   15      1.35      0.00
    5    8   15      1.16      0.00
    6    8   15     -0.65      0.00
    7    8   15     -2.48      0.00
    8    8   15      0.01      0.00
    9    8   15     -1.11      0.00
   10    8   15     -0.04      0.00
   11    8   15      2.61      0.00
   12    8   15     -4.08      0.00
   13    8   15      1.16      0.00
   14    8   15     -0.51      0.00
   15    8   15      0.06      0.00
   16    8   15      1.13      0.00
   17    8   15      1.19      0.00
   18    8   15      4.03      0.00
   -4    9   15     -3.40      0.00
   -3    9   15     -0.49      0.00
   -2    9   15      0.95      0.00
   -1    9   15     -1.15      0.00
    0    9   15     -0.42      0.00
    1    9   15     -0.19      0.00
    2    9   15     -3.21      0.00
    3    9   15     -0.53      0.00
    4    9   15      2.27      0.00
    5    9   15     -1.74      0.00
    6    9   15      0.45      0.00
    7    9   15      2.18      0.00
    8    9   15     -4.10      0.00
    9    9   15      1.78      0.00
   10    9   15      1.69      0.00
   11    9   15     -0.70      0.00
   12    9   15     -5.18      0.00
   13    9   15      3.62      0.00
   14    9   15      1.06      0.00
   15    9   15     -1.38      0.00
   16    9   15      5.04      0.00
   17    9   15     -0.18      0.00
   18    9   15     -0.69      0.00
   -4   10   15      0.69      0.00
   -3   10   15      1.67      0.00
   -2   10   15     -1.11      0.00
   -1   10   15     -3.76      0.00
    0   10   15      2.44      0.00
    1   10   15      1.56      0.00
    2   10   15     -0.68      0.00
    3   10   15     -2.69      0.00
    4   10   15     -0.06      0.00
    5   10   15     -0.85      0.00
    6   10   15      5.35      0.00
    7   10   15     -1.49      0.00
    8   10   15     -0.68      0.00
    9   10   15     -6.04      0.00
   10   10   15      6.23      0.00
   11   10   15     -3.98      0.00
   12   10   15      1.82      0.00
   13   10   15     -2.77      0.00
   14   10   15     -0.04      0.00
   15   10   15      6.81      0.00
   16   10   15     -1.81      0.00
   17   10   15     -1.89      0.00
   18   10   15      0.40      0.00
   -3   11   15     -1.00      0.00
   -2   11   15     -0.65      0.00
   -1   11   15      3.51      0.00
    0   11   15     -1.75      0.00
    1   11   15     -1.29      0.00
    2   11   15     -0.58      0.00
    3   11   15      2.20      0.00
    4   11   15     -1.38      0.00
    5   11   15     -3.03      0.00
    6   11   15      3.20      0.00
    7   11   15      0.98      0.00
    8   11   15     -1.83      0.00
    9   11   15     -3.23      0.00
   10   11   15      3.46      0.00
   11   11   15     -0.44      0.00
   12   11   15     -1.08      0.00
   13   11   15      2.39      0.00
   14   11   15      4.21      0.00
   15   11   15     -1.96      0.00
   16   11   15      0.18      0.00
   17   11   15      1.31      0.00
   18   11   15     -4.54      0.00
   -2   12   15     -3.26      0.00
   -1   12   15      1.48      0.00
    0   12   15     -2.23      0.00
    1   12   15     -0.07      0.00
    2   12   15      1.14      0.00
    3   12   15      1.17      0.00
    4   12   15     -5.12      0.00
    5   12   15      1.63      0.00
    6   12   15      5.06      0.00
    7   12   15     -3.40      0.00
    8   12   15     -0.55      0.00
    9   12   15      3.14      0.00
   10   12   15      0.79      0.00
   11   12   15      4.04      0.00
   12   12   15      0.97      0.00
   13   12   15      0.12      0.00
   14   12   15      1.55      0.00
   15   12   15      5.35      0.00
   16   12   15     -1.95      0.00
   17   12   15     -2.87      0.00
   -1   13   15      1.55      0.00
    0   13   15     -1.80      0.00
    1   13   15     -2.93      0.00
    2   13   15      3.45      0.00
    3   13   15     -0.06      0.00
    4   13   15      1.56      0.00
    5   13   15     -0.97      0.00
    6   13   15     -0.70      0.00
    7   13   15      4.72      0.00
    8   13   15      0.04      0.00
    9   13   15      2.09      0.00
   10   13   15      0.17      0.00
   11   13   15      3.06      0.00
   12   13   15      0.47      0.00
   13   13   15      2.53      0.00
   14   13   15      3.20      0.00
   15   13   15     -1.36      0.00
   16   13   15     -0.38      0.00
   17   13   15     -0.81      0.00
    0   14   15     -3.10      0.00
    1   14   15      1.63      0.00
    2   14   15      3.61      0.00
    3   14   15     -2.72      0.00
    4   14   15      1.61      0.00
    5   14   15      2.11      0.00
    6   14   15      1.55      0.00
    7   14   15     -3.39      0.00
    8   14   15     -0.86      0.00
    9   14   15      3.33      0.00
   10   14   15     -1.93      0.00
   11   14   15      2.97      0.00
   12   14   15     -0.74      0.00
   13   14   15     -0.16      0.00
   14   14   15      1.03      0.00
   15   14   15      1.24      0.00
   16   14   15      1.63      0.00
   17   14   15     -1.72      0.00
    1   15   15     -0.24      0.00
    2   15   15      3.58      0.00
    3   15   15     -0.94      0.00
    4   15   15      0.52      0.00
    5   15   15     -0.27      0.00
    6   15   15     -2.07      0.00
    7   15   15      0.19      0.00
    8   15   15     -2.74      0.00
    9   15   15      0.59      0.00
   10   15   15     -3.83      0.00
   11   15   15      3.37      0.00
   12   15   15      1.44      0.00
   13   15   15      1.18      0.00
   14   15   15     -3.13      0.00
   15   15   15      2.68      0.00
   16   15   15     -0.51      0.00
    3   16   15     -2.34      0.00
    4   16   15      2.14      0.00
    5   16   15     -0.96      0.00
    6   16   15     -2.25      0.00
    7   16   15      1.31      0.00
    8   16   15     -1.44      0.00
    9   16   15      0.36      0.00
   10   16   15      1.15      0.00
   11   16   15      2.85      0.00
   12   16   15      0.42      0.00
   13   16   15      1.23      0.00
   14   16   15     -3.84      0.00
   15   16   15      3.33      0.00
    5   17   15      2.22      0.00
    6   17   15     -0.57      0.00
    7   17   15      3.89      0.00
    8   17   15     -0.01      0.00
    9   17   15      3.23      0.00
   10   17   15     -1.39      0.00
   11   17   15      3.62      0.00
   12   17   15      2.88      0.00
   13   17   15     -3.33      0.00
   14   17   15      1.32      0.00
    8   18   15     -0.01      0.00
    9   18   15      3.10      0.00
   10   18   15     -1.40      0.00
   11   18   15      1.21      0.00
   -2   -8   16     -4.38      0.00
   -1   -8   16      4.94      0.00
    0   -8   16     -4.29      0.00
    1   -8   16      2.15      0.00
    2   -8   16     -2.29      0.00
    3   -8   16     -1.86      0.00
   -4   -7   16      2.82      0.00
   -3   -7   16     -3.27      0.00
   -2   -7   16      1.86      0.00
   -1   -7   16     -1.36      0.00
    0   -7   16      3.36      0.00
    1   -7   16     -2.00      0.00
    2   -7   16      0.15      0.00
    3   -7   16      2.74      0.00
    4   -7   16     -3.05      0.00
    5   -7   16      0.98      0.00
    6   -7   16     -1.73      0.00
   -5   -6   16      0.14      0.00
   -4   -6   16      1.76      0.00
   -3   -6   16     -0.20      0.00
   -2   -6   16      1.38      0.00
   -1   -6   16      0.58      0.00
    0   -6   16      3.03      0.00
    1   -6   16      1.08      0.00
    2   -6   16      1.81      0.00
    3   -6   16      2.43      0.00
    4   -6   16     -3.94      0.00
    5   -6   16      3.01      0.00
    6   -6   16      1.98      0.00
    7   -6   16      1.35      0.00
    8   -6   16     -2.16      0.00
   -6   -5   16      1.65      0.00
   -5   -5   16      2.72      0.00
   -4   -5   16     -0.37      0.00
   -3   -5   16      2.56      0.00
   -2   -5   16     -1.90      0.00
   -1   -5   16      4.47      0.00
    0   -5   16      3.48      0.00
    1   -5   16      0.67      0.00
    2   -5   16      0.96      0.00
    3   -5   16     -0.44      0.00
    4   -5   16      3.61      0.00
    5   -5   16     -1.48      0.00
    6   -5   16      3.50      0.00
    7   -5   16      0.05      0.00
    8   -5   16      2.69      0.00
    9   -5   16      2.39      0.00
   -6   -4   16      2.21      0.00
   -5   -4   16     -0.82      0.00
   -4   -4   16     -0.13      0.00
   -3   -4   16      1.58      0.00
   -2   -4   16      2.63      0.00
   -1   -4   16      0.84      0.00
    0   -4   16      0.60      0.00
    1   -4   16      2.91      0.00
    2   -4   16     -2.74      0.00
    3   -4   16      1.43      0.00
    4   -4   16     -0.77      0.00
    5   -4   16     -1.22      0.00
    6   -4   16      6.49      0.00
    7   -4   16     -0.30      0.00
    8   -4   16      0.52      0.00
    9   -4   16      3.91      0.00
   10   -4   16     -2.23      0.00
   -6   -3   16      3.25      0.00
   -5   -3   16     -0.77      0.00
   -4   -3   16      2.06      0.00
   -3   -3   16     -1.76      0.00
   -2   -3   16     -2.46      0.00
   -1   -3   16      1.07      0.00
    0   -3   16      0.70      0.00
    1   -3   16     -1.43      0.00
    2   -3   16     -2.37      0.00
    3   -3   16     -1.52      0.00
    4   -3   16      1.93      0.00
    5   -3   16      2.47      0.00
    6   -3   16      0.19      0.00
    7   -3   16     -3.00      0.00
    8   -3   16      6.17      0.00
    9   -3   16     -3.36      0.00
   10   -3   16      2.09      0.00
   11   -3   16     -3.29      0.00
   -7   -2   16      4.01      0.00
   -6   -2   16     -0.14      0.00
   -5   -2   16     -3.85      0.00
   -4   -2   16      2.77      0.00
   -3   -2   16     -4.33      0.00
   -2   -2   16     -0.45      0.00
   -1   -2   16     -3.32      0.00
    0   -2   16     -4.82      0.00
    1   -2   16      0.84      0.00
    2   -2   16      2.01      0.00
    3   -2   16     -0.10      0.00
    4   -2   16     -2.13      0.00
    5   -2   16      0.88      0.00
    6   -2   16      2.21      0.00
    7   -2   16      2.86      0.00
    8   -2   16     -0.44      0.00
    9   -2   16     -1.49      0.00
   10   -2   16     -1.48      0.00
   11   -2   16     -2.95      0.00
   12   -2   16      1.76      0.00
   -7   -1   16      1.18      0.00
   -6   -1   16      1.67      0.00
   -5   -1   16     -0.65      0.00
   -4   -1   16      2.35      0.00
   -3   -1   16     -5.96      0.00
   -2   -1   16     -2.60      0.00
   -1   -1   16     -2.26      0.00
    0   -1   16     -2.79      0.00
    1   -1   16      1.53      0.00
    2   -1   16      0.37      0.00
    3   -1   16      0.50      0.00
    4   -1   16      2.67      0.00
    5   -1   16      4.35      0.00
    6   -1   16     -1.77      0.00
    7   -1   16     -2.10      0.00
    8   -1   16      2.89      0.00
    9   -1   16      2.12      0.00
   10   -1   16     -4.16      0.00
   11   -1   16      1.09      0.00
   12   -1   16     -2.82      0.00
   13   -1   16      1.50      0.00
   -7    0   16      1.64      0.00
   -6    0   16      2.55      0.00
   -5    0   16     -0.90      0.00
   -4    0   16      1.76      0.00
   -3    0   16      2.11      0.00
   -2    0   16     -2.98      0.00
   -1    0   16     -4.70      0.00
    0    0   16      0.84      0.00
    1    0   16      1.30      0.00
    2    0   16      2.24      0.00
    3    0   16      2.74      0.00
    4    0   16     -2.09      0.00
    5    0   16      2.55      0.00
    6    0   16      0.71      0.00
    7    0   16      3.00      0.00
    8    0   16     -1.54      0.00
    9    0   16     -0.62      0.00
   10    0   16      0.17      0.00
   11    0   16      1.82      0.00
   12    0   16      0.57      0.00
   13    0   16     -3.69      0.00
   14    0   16      1.01      0.00
   -7    1   16      0.45      0.00
   -6    1   16      9.37      0.00
   -5    1   16     -0.84      0.00
   -4    1   16      1.52      0.00
   -3    1   16      4.89      0.00
   -2    1   16     -0.75      0.00
   -1    1   16     -1.62      0.00
    0    1   16      0.39      0.00
    1    1   16     -1.44      0.00
    2    1   16      1.08      0.00
    3    1   16     -1.85      0.00
    4    1   16      7.07      0.00
    5    1   16      0.79      0.00
    6    1   16     -2.79      0.00
    7    1   16      1.80      0.00
    8    1   16     -4.72      0.00
    9    1   16      6.22      0.00
   10    1   16      3.27      0.00
   11    1   16      0.70      0.00
   12    1   16     -1.98      0.00
   13    1   16     -0.43      0.00
   14    1   16     -0.21      0.00
   -7    2   16      3.41      0.00
   -6    2   16      3.98      0.00
   -5    2   16     -0.91      0.00
   -4    2   16      7.41      0.00
   -3    2   16      0.84      0.00
   -2    2   16      2.54      0.00
   -1    2   16     -6.56      0.00
    0    2   16      4.12      0.00
    1    2   16     -0.16      0.00
    2    2   16     -0.91      0.00
    3    2   16      0.24      0.00
    4    2   16      0.35      0.00
    5    2   16      4.54      0.00
    6    2   16      0.91      0.00
    7    2   16      0.55      0.00
    8    2   16     -4.06      0.00
    9    2   16      4.45      0.00
   10    2   16      5.87      0.00
   11    2   16      1.33      0.00
   12    2   16     -0.02      0.00
   13    2   16     -6.11      0.00
   14    2   16      2.30      0.00
   15    2   16     -3.76      0.00
   -6    3   16      4.08      0.00
   -5    3   16     -3.36      0.00
   -4    3   16      2.78      0.00
   -3    3   16      3.14      0.00
   -2    3   16      1.98      0.00
   -1    3   16     -3.15      0.00
    0    3   16      1.23      0.00
    1    3   16     -1.81      0.00
    2    3   16      2.44      0.00
    3    3   16      0.66      0.00
    4    3   16      4.21      0.00
    5    3   16      3.09      0.00
    6    3   16     -0.04      0.00
    7    3   16      0.96      0.00
    8    3   16     -0.12      0.00
    9    3   16      5.05      0.00
   10    3   16      1.11      0.00
   11    3   16     -1.92      0.00
   12    3   16      1.04      0.00
   13    3   16     -2.03      0.00
   14    3   16     -3.72      0.00
   15    3   16     -1.03      0.00
   16    3   16      2.50      0.00
   -6    4   16     -3.61      0.00
   -5    4   16      1.30      0.00
   -4    4   16      5.11      0.00
   -3    4   16     -4.24      0.00
   -2    4   16      1.56      0.00
   -1    4   16     -0.92      0.00
    0    4   16      0.08      0.00
    1    4   16      4.39      0.00
    2    4   16      0.31      0.00
    3    4   16      1.20      0.00
    4    4   16      2.66      0.00
    5    4   16      0.25      0.00
    6    4   16      5.12      0.00
    7    4   16      4.96      0.00
    8    4   16     -5.52      0.00
    9    4   16      3.41      0.00
   10    4   16      1.03      0.00
   11    4   16     -3.09      0.00
   12    4   16     -0.45      0.00
   13    4   16     -2.83      0.00
   14    4   16     -0.40      0.00
   15    4   16     -0.57      0.00
   16    4   16      7.17      0.00
   -6    5   16     -7.64      0.00
   -5    5   16      1.86      0.00
   -4    5   16      0.29      0.00
   -3    5   16      4.68      0.00
   -2    5   16     -3.72      0.00
   -1    5   16     -1.90      0.00
    0    5   16      1.47      0.00
    1    5   16      0.58      0.00
    2    5   16      3.00      0.00
    3    5   16      4.58      0.00
    4    5   16     -4.03      0.00
    5    5   16     -0.86      0.00
    6    5   16      8.34      0.00
    7    5   16     -1.27      0.00
    8    5   16      6.52      0.00
    9    5   16     -3.42      0.00
   10    5   16     -5.20      0.00
   11    5   16      1.57      0.00
   12    5   16      0.08      0.00
   13    5   16      4.01      0.00
   14    5   16      0.46      0.00
   15    5   16      3.54      0.00
   16    5   16      0.54      0.00
   -5    6   16      4.74      0.00
   -4    6   16      1.67      0.00
   -3    6   16     -2.26      0.00
   -2    6   16     -4.25      0.00
   -1    6   16      4.32      0.00
    0    6   16     -2.67      0.00
    1    6   16      5.30      0.00
    2    6   16     -1.19      0.00
    3    6   16     -1.73      0.00
    4    6   16     -1.18      0.00
    5    6   16      0.55      0.00
    6    6   16      4.28      0.00
    7    6   16      2.10      0.00
    8    6   16      3.49      0.00
    9    6   16     -5.15      0.00
   10    6   16      3.21      0.00
   11    6   16     -0.09      0.00
   12    6   16      2.54      0.00
   13    6   16      3.26      0.00
   14    6   16      4.51      0.00
   15    6   16      4.34      0.00
   16    6   16     -2.30      0.00
   17    6   16      1.71      0.00
   -5    7   16     -3.74      0.00
   -4    7   16      5.40      0.00
   -3    7   16      0.80      0.00
   -2    7   16     -0.50      0.00
   -1    7   16      1.05      0.00
    0    7   16      0.18      0.00
    1    7   16     -0.50      0.00
    2    7   16      4.59      0.00
    3    7   16     -5.56      0.00
    4    7   16     -1.43      0.00
    5    7   16     -2.02      0.00
    6    7   16      5.35      0.00
    7    7   16      1.60      0.00
    8    7   16      2.82      0.00
    9    7   16     -2.73      0.00
   10    7   16     -1.99      0.00
   11    7   16      4.14      0.00
   12    7   16      2.33      0.00
   13    7   16      4.81      0.00
   14    7   16      3.90      0.00
   15    7   16     -2.49      0.00
   16    7   16     -2.67      0.00
   17    7   16     -1.70      0.00
   -4    8   16     -0.71      0.00
   -3    8   16      1.67      0.00
   -2    8   16      4.61      0.00
   -1    8   16      1.52      0.00
    0    8   16      0.51      0.00
    1    8   16      4.76      0.00
    2    8   16     -7.23      0.00
    3    8   16     -1.95      0.00
    4    8   16      0.91      0.00
    5    8   16     -0.28      0.00
    6    8   16     -0.75      0.00
    7    8   16      3.65      0.00
    8    8   16     -3.89      0.00
    9    8   16     -1.39      0.00
   10    8   16      0.22      0.00
   11    8   16      6.86      0.00
   12    8   16     -5.65      0.00
   13    8   16      3.50      0.00
   14    8   16      1.06      0.00
   15    8   16     -4.30      0.00
   16    8   16     -1.45      0.00
   17    8   16     -1.96      0.00
   -4    9   16      3.15      0.00
   -3    9   16      4.94      0.00
   -2    9   16      4.42      0.00
   -1    9   16     -1.07      0.00
    0    9   16      0.33      0.00
    1    9   16     -0.47      0.00
    2    9   16      0.62      0.00
    3    9   16     -2.44      0.00
    4    9   16     -2.18      0.00
    5    9   16     -2.43      0.00
    6    9   16      2.81      0.00
    7    9   16     -0.50      0.00
    8    9   16     -0.99      0.00
    9    9   16     -5.22      0.00
   10    9   16      3.09      0.00
   11    9   16      1.32      0.00
   12    9   16     -0.82      0.00
   13    9   16      1.86      0.00
   14    9   16     -6.55      0.00
   15    9   16     -0.52      0.00
   16    9   16      1.78      0.00
   17    9   16     -4.50      0.00
   -3   10   16      0.96      0.00
   -2   10   16     -1.51      0.00
   -1   10   16      3.19      0.00
    0   10   16      1.41      0.00
    1   10   16     -2.99      0.00
    2   10   16     -2.38      0.00
    3   10   16      1.99      0.00
    4   10   16     -0.44      0.00
    5   10   16     -2.78      0.00
    6   10   16     -0.49      0.00
    7   10   16      1.97      0.00
    8   10   16     -2.54      0.00
    9   10   16      0.32      0.00
   10   10   16      2.86      0.00
   11   10   16     -0.08      0.00
   12   10   16     -1.77      0.00
   13   10   16     -3.89      0.00
   14   10   16      2.17      0.00
   15   10   16     -2.81      0.00
   16   10   16     -0.12      0.00
   17   10   16      2.95      0.00
   -2   11   16     -2.47      0.00
   -1   11   16      1.86      0.00
    0   11   16     -2.15      0.00
    1   11   16     -0.02      0.00
    2   11   16      0.67      0.00
    3   11   16      1.76      0.00
    4   11   16     -1.72      0.00
    5   11   16     -5.27      0.00
    6   11   16      5.13      0.00
    7   11   16     -0.90      0.00
    8   11   16     -0.21      0.00
    9   11   16     -0.05      0.00
   10   11   16     -1.91      0.00
   11   11   16      2.48      0.00
   12   11   16     -3.08      0.00
   13   11   16     -1.80      0.00
   14   11   16     -3.13      0.00
   15   11   16      1.47      0.00
   16   11   16      2.21      0.00
   17   11   16      0.02      0.00
   -1   12   16      2.72      0.00
    0   12   16      1.02      0.00
    1   12   16     -1.97      0.00
    2   12   16     -0.40      0.00
    3   12   16      1.59      0.00
    4   12   16     -1.94      0.00
    5   12   16      0.37      0.00
    6   12   16     -3.61      0.00
    7   12   16     -3.08      0.00
    8   12   16      1.62      0.00
    9   12   16     -0.74      0.00
   10   12   16     -4.09      0.00
   11   12   16      0.23      0.00
   12   12   16     -5.09      0.00
   13   12   16      0.46      0.00
   14   12   16      0.17      0.00
   15   12   16      0.39      0.00
   16   12   16     -1.80      0.00
   17   12   16      2.26      0.00
    0   13   16     -2.48      0.00
    1   13   16      0.60      0.00
    2   13   16      0.72      0.00
    3   13   16     -2.95      0.00
    4   13   16     -1.12      0.00
    5   13   16     -1.45      0.00
    6   13   16     -1.18      0.00
    7   13   16     -4.09      0.00
    8   13   16     -6.67      0.00
    9   13   16      2.50      0.00
   10   13   16     -4.87      0.00
   11   13   16      0.55      0.00
   12   13   16      2.47      0.00
   13   13   16     -4.33      0.00
   14   13   16     -1.07      0.00
   15   13   16      0.30      0.00
   16   13   16      0.97      0.00
   17   13   16      0.53      0.00
    1   14   16     -3.11      0.00
    2   14   16      0.43      0.00
    3   14   16     -3.35      0.00
    4   14   16      1.91      0.00
    5   14   16      1.08      0.00
    6   14   16     -7.33      0.00
    7   14   16     -2.11      0.00
    8   14   16      0.14      0.00
    9   14   16     -0.17      0.00
   10   14   16     -2.83      0.00
   11   14   16      2.87      0.00
   12   14   16     -1.63      0.00
   13   14   16      2.86      0.00
   14   14   16     -2.02      0.00
   15   14   16     -0.83      0.00
   16   14   16     -1.06      0.00
    3   15   16     -2.40      0.00
    4   15   16      2.19      0.00
    5   15   16      1.98      0.00
    6   15   16     -1.89      0.00
    7   15   16      0.50      0.00
    8   15   16     -2.16      0.00
    9   15   16      0.44      0.00
   10   15   16      0.46      0.00
   11   15   16      1.76      0.00
   12   15   16      1.46      0.00
   13   15   16      1.66      0.00
   14   15   16     -3.24      0.00
   15   15   16     -0.43      0.00
    4   16   16      1.27      0.00
    5   16   16      2.21      0.00
    6   16   16     -3.09      0.00
    7   16   16      3.87      0.00
    8   16   16     -0.62      0.00
    9   16   16     -0.39      0.00
   10   16   16     -1.84      0.00
   11   16   16     -1.45      0.00
   12   16   16      7.11      0.00
   13   16   16     -1.07      0.00
   14   16   16     -0.59      0.00
    7   17   16      5.00      0.00
    8   17   16     -4.68      0.00
    9   17   16      0.96      0.00
   10   17   16     -2.98      0.00
   11   17   16      4.88      0.00
   12   17   16     -0.92      0.00
   13   17   16      2.71      0.00
    0   -7   17     -0.71      0.00
    1   -7   17     -2.24      0.00
    2   -7   17     -0.44      0.00
    3   -7   17      6.06      0.00
   -3   -6   17     -0.15      0.00
   -2   -6   17     -3.50      0.00
   -1   -6   17     -4.46      0.00
    0   -6   17     -1.32      0.00
    1   -6   17     -6.72      0.00
    2   -6   17      2.52      0.00
    3   -6   17     -2.03      0.00
    4   -6   17      1.05      0.00
    5   -6   17     -0.57      0.00
    6   -6   17     -2.43      0.00
   -4   -5   17      2.11      0.00
   -3   -5   17     -1.16      0.00
   -2   -5   17     -2.92      0.00
   -1   -5   17     -4.06      0.00
    0   -5   17     -4.44      0.00
    1   -5   17     -1.52      0.00
    2   -5   17     -1.03      0.00
    3   -5   17     -0.51      0.00
    4   -5   17      2.85      0.00
    5   -5   17     -5.95      0.00
    6   -5   17      2.46      0.00
    7   -5   17     -0.51      0.00
    8   -5   17     -6.16      0.00
   -4   -4   17      0.17      0.00
   -3   -4   17      0.01      0.00
   -2   -4   17     -2.27      0.00
   -1   -4   17     -3.96      0.00
    0   -4   17      0.27      0.00
    1   -4   17      3.06      0.00
    2   -4   17     -4.67      0.00
    3   -4   17      2.12      0.00
    4   -4   17      1.35      0.00
    5   -4   17     -1.78      0.00
    6   -4   17      2.61      0.00
    7   -4   17     -6.71      0.00
    8   -4   17      4.11      0.00
    9   -4   17     -4.31      0.00
   -5   -3   17     -1.88      0.00
   -4   -3   17      2.14      0.00
   -3   -3   17     -1.17      0.00
   -2   -3   17      0.57      0.00
   -1   -3   17      2.44      0.00
    0   -3   17      2.44      0.00
    1   -3   17      0.80      0.00
    2   -3   17     -0.54      0.00
    3   -3   17      4.01      0.00
    4   -3   17     -1.57      0.00
    5   -3   17     -0.86      0.00
    6   -3   17     -2.05      0.00
    7   -3   17      2.98      0.00
    8   -3   17     -0.51      0.00
    9   -3   17      0.36      0.00
   10   -3   17      3.45      0.00
   -5   -2   17     -0.09      0.00
   -4   -2   17      2.41      0.00
   -3   -2   17     -0.88      0.00
   -2   -2   17      2.03      0.00
   -1   -2   17      4.56      0.00
    0   -2   17      2.96      0.00
    1   -2   17      0.47      0.00
    2   -2   17      0.44      0.00
    3   -2   17      0.13      0.00
    4   -2   17     -2.82      0.00
    5   -2   17      2.76      0.00
    6   -2   17     -1.04      0.00
    7   -2   17     -1.94      0.00
    8   -2   17      1.93      0.00
    9   -2   17      3.19      0.00
   10   -2   17      1.89      0.00
   11   -2   17      1.90      0.00
   -5   -1   17     -3.75      0.00
   -4   -1   17     -1.40      0.00
   -3   -1   17      0.31      0.00
   -2   -1   17      5.71      0.00
   -1   -1   17     -1.38      0.00
    0   -1   17      2.75      0.00
    1   -1   17     -3.37      0.00
    2   -1   17      1.28      0.00
    3   -1   17      1.81      0.00
    4   -1   17     -2.78      0.00
    5   -1   17     -3.23      0.00
    6   -1   17     -1.62      0.00
    7   -1   17      2.15      0.00
    8   -1   17      0.74      0.00
    9   -1   17      5.00      0.00
   10   -1   17     -1.71      0.00
   11   -1   17      4.38      0.00
   12   -1   17     -1.68      0.00
   -5    0   17     -1.29      0.00
   -4    0   17     -8.03      0.00
   -3    0   17      6.25      0.00
   -2    0   17     -6.36      0.00
   -1    0   17      3.41      0.00
    0    0   17     -1.06      0.00
    1    0   17     -4.56      0.00
    2    0   17      3.50      0.00
    3    0   17     -4.50      0.00
    4    0   17     -0.35      0.00
    5    0   17      2.99      0.00
    6    0   17     -4.01      0.00
    7    0   17     -0.29      0.00
    8    0   17     -1.51      0.00
    9    0   17      2.83      0.00
   10    0   17      2.55      0.00
   11    0   17      1.11      0.00
   12    0   17     -2.49      0.00
   13    0   17      1.22      0.00
   -5    1   17     -7.10      0.00
   -4    1   17     -5.07      0.00
   -3    1   17      0.05      0.00
   -2    1   17      0.85      0.00
   -1    1   17     -6.40      0.00
    0    1   17      0.08      0.00
    1    1   17     -0.11      0.00
    2    1   17      0.77      0.00
    3    1   17      1.48      0.00
    4    1   17     -4.43      0.00
    5    1   17      1.37      0.00
    6    1   17     -1.86      0.00
    7    1   17      3.13      0.00
    8    1   17     -4.92      0.00
    9    1   17      0.19      0.00
   10    1   17     -1.56      0.00
   11    1   17     -0.38      0.00
   12    1   17      1.84      0.00
   13    1   17     -2.74      0.00
   14    1   17      3.15      0.00
   -5    2   17     -6.50      0.00
   -4    2   17     -4.44      0.00
   -3    2   17     -1.17      0.00
   -2    2   17     -0.41      0.00
   -1    2   17     -0.81      0.00
    0    2   17      1.72      0.00
    1    2   17     -3.98      0.00
    2    2   17      3.78      0.00
    3    2   17     -5.78      0.00
    4    2   17      2.96      0.00
    5    2   17      1.53      0.00
    6    2   17     -0.77      0.00
    7    2   17     -0.66      0.00
    8    2   17     -7.86      0.00
    9    2   17      1.28      0.00
   10    2   17     -2.12      0.00
   11    2   17     -4.47      0.00
   12    2   17      2.80      0.00
   13    2   17      0.45      0.00
   14    2   17      2.38      0.00
   -5    3   17     -4.11      0.00
   -4    3   17      2.91      0.00
   -3    3   17     -4.26      0.00
   -2    3   17      1.46      0.00
   -1    3   17     -0.29      0.00
    0    3   17     -0.37      0.00
    1    3   17      1.14      0.00
    2    3   17      0.33      0.00
    3    3   17     -1.84      0.00
    4    3   17     -3.17      0.00
    5    3   17      0.63      0.00
    6    3   17     -0.34      0.00
    7    3   17      0.35      0.00
    8    3   17     -5.63      0.00
    9    3   17     -5.22      0.00
   10    3   17     -0.98      0.00
   11    3   17     -1.06      0.00
   12    3   17      5.15      0.00
   13    3   17     -0.10      0.00
   14    3   17     -0.01      0.00
   15    3   17     -5.09      0.00
   -5    4   17     -2.04      0.00
   -4    4   17     -2.98      0.00
   -3    4   17      1.95      0.00
   -2    4   17      1.96      0.00
   -1    4   17      2.48      0.00
    0    4   17     -0.81      0.00
    1    4   17     -0.08      0.00
    2    4   17     -2.51      0.00
    3    4   17      0.00      0.00
    4    4   17      0.22      0.00
    5    4   17     -5.56      0.00
    6    4   17      0.84      0.00
    7    4   17     -3.97      0.00
    8    4   17     -1.73      0.00
    9    4   17     -1.66      0.00
   10    4   17     -3.68      0.00
   11    4   17     -0.34      0.00
   12    4   17      4.40      0.00
   13    4   17      3.36      0.00
   14    4   17     -3.73      0.00
   15    4   17     -2.23      0.00
   -5    5   17      1.30      0.00
   -4    5   17      2.46      0.00
   -3    5   17      2.12      0.00
   -2    5   17     -6.48      0.00
   -1    5   17      9.22      0.00
    0    5   17     -1.48      0.00
    1    5   17      2.20      0.00
    2    5   17     -1.14      0.00
    3    5   17     -0.26      0.00
    4    5   17     -4.66      0.00
    5    5   17     -1.69      0.00
    6    5   17     -2.62      0.00
    7    5   17      0.53      0.00
    8    5   17     -5.94      0.00
    9    5   17     -3.38      0.00
   10    5   17      0.42      0.00
   11    5   17      2.25      0.00
   12    5   17     -1.46      0.00
   13    5   17     -0.72      0.00
   14    5   17     -2.18      0.00
   15    5   17     -2.25      0.00
   16    5   17     -5.19      0.00
   -4    6   17      2.35      0.00
   -3    6   17      0.89      0.00
   -2    6   17      2.29      0.00
   -1    6   17      0.34      0.00
    0    6   17      4.03      0.00
    1    6   17     -1.64      0.00
    2    6   17      0.57      0.00
    3    6   17      0.51      0.00
    4    6   17     -0.75      0.00
    5    6   17     -3.66      0.00
    6    6   17     -2.10      0.00
    7    6   17     -5.38      0.00
    8    6   17      2.48      0.00
    9    6   17     -3.68      0.00
   10    6   17     -3.41      0.00
   11    6   17     -1.26      0.00
   12    6   17     -2.08      0.00
   13    6   17     -1.76      0.00
   14    6   17      1.09      0.00
   15    6   17     -1.54      0.00
   16    6   17     -6.19      0.00
   -4    7   17      1.13      0.00
   -3    7   17     -3.98      0.00
   -2    7   17     -2.03      0.00
   -1    7   17      3.79      0.00
    0    7   17     -0.45      0.00
    1    7   17      4.22      0.00
    2    7   17      0.06      0.00
    3    7   17     -3.70      0.00
    4    7   17      2.81      0.00
    5    7   17      1.18      0.00
    6    7   17     -5.17      0.00
    7    7   17      1.04      0.00
    8    7   17     -2.23      0.00
    9    7   17     -3.98      0.00
   10    7   17     -0.53      0.00
   11    7   17      1.91      0.00
   12    7   17     -4.10      0.00
   13    7   17     -2.94      0.00
   14    7   17      3.07      0.00
   15    7   17      0.02      0.00
   16    7   17     -1.16      0.00
   -3    8   17     -3.04      0.00
   -2    8   17      0.17      0.00
   -1    8   17     -1.59      0.00
    0    8   17      2.27      0.00
    1    8   17     -0.54      0.00
    2    8   17      0.49      0.00
    3    8   17      4.60      0.00
    4    8   17      1.05      0.00
    5    8   17     -4.41      0.00
    6    8   17      2.25      0.00
    7    8   17      2.05      0.00
    8    8   17      0.48      0.00
    9    8   17     -0.33      0.00
   10    8   17     -3.23      0.00
   11    8   17      0.92      0.00
   12    8   17     -2.08      0.00
   13    8   17      4.01      0.00
   14    8   17      2.65      0.00
   15    8   17     -2.12      0.00
   16    8   17      2.12      0.00
   -2    9   17     -3.53      0.00
   -1    9   17      0.18      0.00
    0    9   17      3.52      0.00
    1    9   17      3.19      0.00
    2    9   17     -3.93      0.00
    3    9   17      3.91      0.00
    4    9   17      0.01      0.00
    5    9   17      2.36      0.00
    6    9   17     -2.17      0.00
    7    9   17      5.91      0.00
    8    9   17     -1.09      0.00
    9    9   17     -2.23      0.00
   10    9   17      0.68      0.00
   11    9   17      1.65      0.00
   12    9   17     -1.11      0.00
   13    9   17      1.79      0.00
   14    9   17      1.42      0.00
   15    9   17      0.98      0.00
   16    9   17     -0.36      0.00
   -2   10   17     -1.71      0.00
   -1   10   17      4.58      0.00
    0   10   17      0.24      0.00
    1   10   17     -2.20      0.00
    2   10   17      2.80      0.00
    3   10   17      2.21      0.00
    4   10   17      0.22      0.00
    5   10   17     -4.91      0.00
    6   10   17      1.89      0.00
    7   10   17      4.27      0.00
    8   10   17     -1.85      0.00
    9   10   17      0.42      0.00
   10   10   17     -5.86      0.00
   11   10   17      0.80      0.00
   12   10   17      2.19      0.00
   13   10   17      2.09      0.00
   14   10   17     -0.31      0.00
   15   10   17     -2.81      0.00
   16   10   17      1.69      0.00
   -1   11   17      2.41      0.00
    0   11   17      2.00      0.00
    1   11   17      0.32      0.00
    2   11   17     -1.36      0.00
    3   11   17      0.84      0.00
    4   11   17      0.05      0.00
    5   11   17     -2.39      0.00
    6   11   17      3.48      0.00
    7   11   17     -4.69      0.00
    8   11   17      0.66      0.00
    9   11   17      0.51      0.00
   10   11   17     -3.50      0.00
   11   11   17      1.90      0.00
   12   11   17      1.05      0.00
   13   11   17     -3.05      0.00
   14   11   17      1.57      0.00
   15   11   17     -0.32      0.00
   16   11   17     -3.25      0.00
    0   12   17     -2.83      0.00
    1   12   17      2.17      0.00
    2   12   17      0.79      0.00
    3   12   17      0.97      0.00
    4   12   17     -2.39      0.00
    5   12   17      0.75      0.00
    6   12   17      1.26      0.00
    7   12   17      2.60      0.00
    8   12   17     -1.15      0.00
    9   12   17      1.26      0.00
   10   12   17     -3.41      0.00
   11   12   17      1.58      0.00
   12   12   17      2.74      0.00
   13   12   17     -0.32      0.00
   14   12   17     -3.41      0.00
   15   12   17     -2.43      0.00
   16   12   17      0.27      0.00
    1   13   17      1.21      0.00
    2   13   17      1.91      0.00
    3   13   17     -3.31      0.00
    4   13   17      0.13      0.00
    5   13   17      7.53      0.00
    6   13   17      2.23      0.00
    7   13   17     -2.55      0.00
    8   13   17      2.87      0.00
    9   13   17      2.40      0.00
   10   13   17     -2.87      0.00
   11   13   17      1.78      0.00
   12   13   17      0.22      0.00
   13   13   17     -2.95      0.00
   14   13   17     -1.07      0.00
   15   13   17      1.52      0.00
   16   13   17     -2.32      0.00
    2   14   17      2.23      0.00
    3   14   17     -4.08      0.00
    4   14   17      2.09      0.00
    5   14   17      3.68      0.00
    6   14   17      1.45      0.00
    7   14   17      4.67      0.00
    8   14   17     -1.75      0.00
    9   14   17     -2.23      0.00
   10   14   17     -1.82      0.00
   11   14   17     -0.47      0.00
   12   14   17      0.50      0.00
   13   14   17      0.57      0.00
   14   14   17     -1.70      0.00
   15   14   17     -1.53      0.00
    4   15   17      1.02      0.00
    5   15   17      2.93      0.00
    6   15   17     -1.61      0.00
    7   15   17      0.42      0.00
    8   15   17      0.15      0.00
    9   15   17     -1.71      0.00
   10   15   17     -1.70      0.00
   11   15   17     -5.56      0.00
   12   15   17      1.73      0.00
   13   15   17      0.10      0.00
   14   15   17     -0.54      0.00
    6   16   17     -5.23      0.00
    7   16   17      5.80      0.00
    8   16   17     -3.10      0.00
    9   16   17     -0.78      0.00
   10   16   17     -5.73      0.00
   11   16   17     -0.82      0.00
   12   16   17     -0.46      0.00
   13   16   17     -2.56      0.00
   -1   -5   18      1.95      0.00
    0   -5   18      0.29      0.00
    1   -5   18      5.96      0.00
    2   -5   18     -2.40      0.00
    3   -5   18     -2.42      0.00
    4   -5   18      1.34      0.00
    5   -5   18     -3.74      0.00
   -2   -4   18      1.01      0.00
   -1   -4   18     -3.00      0.00
    0   -4   18      1.48      0.00
    1   -4   18      3.26      0.00
    2   -4   18     -5.63      0.00
    3   -4   18      0.85      0.00
    4   -4   18     -1.35      0.00
    5   -4   18     -2.22      0.00
    6   -4   18     -0.88      0.00
    7   -4   18      3.87      0.00
   -3   -3   18      2.39      0.00
   -2   -3   18     -3.33      0.00
   -1   -3   18     -3.05      0.00
    0   -3   18     -0.91      0.00
    1   -3   18      1.85      0.00
    2   -3   18     -5.52      0.00
    3   -3   18      3.62      0.00
    4   -3   18     -6.41      0.00
    5   -3   18      0.63      0.00
    6   -3   18     -1.16      0.00
    7   -3   18      1.65      0.00
    8   -3   18      1.39      0.00
    9   -3   18     -1.37      0.00
   -4   -2   18      4.81      0.00
   -3   -2   18     -5.29      0.00
   -2   -2   18      2.78      0.00
   -1   -2   18     -4.53      0.00
    0   -2   18      2.22      0.00
    1   -2   18     -2.67      0.00
    2   -2   18     -0.01      0.00
    3   -2   18      1.22      0.00
    4   -2   18     -1.11      0.00
    5   -2   18     -2.63      0.00
    6   -2   18     -1.21      0.00
    7   -2   18      1.02      0.00
    8   -2   18     -2.54      0.00
    9   -2   18      1.75      0.00
   10   -2   18     -2.55      0.00
   -4   -1   18     -5.64      0.00
   -3   -1   18      8.23      0.00
   -2   -1   18     -2.17      0.00
   -1   -1   18      1.66      0.00
    0   -1   18      5.11      0.00
    1   -1   18     -3.99      0.00
    2   -1   18      4.33      0.00
    3   -1   18     -1.17      0.00
    4   -1   18     -2.27      0.00
    5   -1   18      1.42      0.00
    6   -1   18      1.01      0.00
    7   -1   18     -2.56      0.00
    8   -1   18     -2.82      0.00
    9   -1   18     -0.44      0.00
   10   -1   18     -1.74      0.00
   11   -1   18      0.98      0.00
   -4    0   18     -3.02      0.00
   -3    0   18      7.34      0.00
   -2    0   18      6.17      0.00
   -1    0   18      3.22      0.00
    0    0   18      3.10      0.00
    1    0   18     -1.41      0.00
    2    0   18      0.07      0.00
    3    0   18      4.08      0.00
    4    0   18     -1.16      0.00
    5    0   18     -0.61      0.00
    6    0   18     -0.70      0.00
    7    0   18     -0.67      0.00
    8    0   18     -2.15      0.00
    9    0   18      1.02      0.00
   10    0   18     -1.27      0.00
   11    0   18      1.11      0.00
   12    0   18     -1.85      0.00
   -4    1   18      0.56      0.00
   -3    1   18      7.42      0.00
   -2    1   18      5.04      0.00
   -1    1   18      5.20      0.00
    0    1   18      2.43      0.00
    1    1   18     -3.44      0.00
    2    1   18      3.46      0.00
    3    1   18     -2.37      0.00
    4    1   18     -1.96      0.00
    5    1   18      3.82      0.00
    6    1   18     -1.35      0.00
    7    1   18      2.14      0.00
    8    1   18     -5.77      0.00
    9    1   18      4.70      0.00
   10    1   18      3.00      0.00
   11    1   18     -0.42      0.00
   12    1   18      1.80      0.00
   13    1   18     -3.74      0.00
   -4    2   18      4.43      0.00
   -3    2   18      2.54      0.00
   -2    2   18      9.36      0.00
   -1    2   18     -2.08      0.00
    0    2   18     -0.70      0.00
    1    2   18     -0.25      0.00
    2    2   18     -0.66      0.00
    3    2   18      3.11      0.00
    4    2   18     -2.98      0.00
    5    2   18     -2.43      0.00
    6    2   18      1.50      0.00
    7    2   18      2.13      0.00
    8    2   18      2.43      0.00
    9    2   18      2.09      0.00
   10    2   18      2.81      0.00
   11    2   18     -1.13      0.00
   12    2   18      3.09      0.00
   13    2   18     -0.84      0.00
   -4    3   18      1.10      0.00
   -3    3   18      0.86      0.00
   -2    3   18      2.25      0.00
   -1    3   18      0.45      0.00
    0    3   18      1.67      0.00
    1    3   18     -5.03      0.00
    2    3   18      2.54      0.00
    3    3   18     -2.31      0.00
    4    3   18      0.80      0.00
    5    3   18     -1.91      0.00
    6    3   18      4.28      0.00
    7    3   18     -0.18      0.00
    8    3   18      4.88      0.00
    9    3   18      3.08      0.00
   10    3   18      1.81      0.00
   11    3   18     -4.37      0.00
   12    3   18     -0.60      0.00
   13    3   18      2.48      0.00
   14    3   18      1.52      0.00
   -4    4   18      0.61      0.00
   -3    4   18      7.92      0.00
   -2    4   18     -9.04      0.00
   -1    4   18      2.35      0.00
    0    4   18     -3.00      0.00
    1    4   18      0.32      0.00
    2    4   18      0.22      0.00
    3    4   18      2.05      0.00
    4    4   18     -0.92      0.00
    5    4   18      1.33      0.00
    6    4   18     -1.61      0.00
    7    4   18     11.95      0.00
    8    4   18      1.19      0.00
    9    4   18     -2.48      0.00
   10    4   18      0.20      0.00
   11    4   18     -1.40      0.00
   12    4   18     -2.12      0.00
   13    4   18      0.76      0.00
   14    4   18      1.35      0.00
   -3    5   18     -1.41      0.00
   -2    5   18     -0.83      0.00
   -1    5   18     -2.39      0.00
    0    5   18     -0.44      0.00
    1    5   18      0.48      0.00
    2    5   18     -2.76      0.00
    3    5   18      4.14      0.00
    4    5   18      2.16      0.00
    5    5   18      2.20      0.00
    6    5   18      5.49      0.00
    7    5   18      1.23      0.00
    8    5   18      3.65      0.00
    9    5   18      2.94      0.00
   10    5   18     -2.48      0.00
   11    5   18     -1.75      0.00
   12    5   18     -3.47      0.00
   13    5   18      2.00      0.00
   14    5   18      3.31      0.00
   15    5   18      6.25      0.00
   -3    6   18      1.52      0.00
   -2    6   18     -8.13      0.00
   -1    6   18     -0.71      0.00
    0    6   18      2.11      0.00
    1    6   18     -1.81      0.00
    2    6   18      4.02      0.00
    3    6   18      0.21      0.00
    4    6   18     -0.05      0.00
    5    6   18      7.86      0.00
    6    6   18      1.77      0.00
    7    6   18      4.39      0.00
    8    6   18      3.86      0.00
    9    6   18     -5.18      0.00
   10    6   18      2.77      0.00
   11    6   18      2.09      0.00
   12    6   18     -0.04      0.00
   13    6   18     -2.30      0.00
   14    6   18      3.66      0.00
   15    6   18      4.79      0.00
   -2    7   18     -0.02      0.00
   -1    7   18     -1.51      0.00
    0    7   18      2.22      0.00
    1    7   18      1.13      0.00
    2    7   18     -2.45      0.00
    3    7   18      1.39      0.00
    4    7   18      6.48      0.00
    5    7   18      0.60      0.00
    6    7   18      0.25      0.00
    7    7   18      2.71      0.00
    8    7   18      0.77      0.00
    9    7   18      0.42      0.00
   10    7   18      1.84      0.00
   11    7   18     -1.93      0.00
   12    7   18      1.15      0.00
   13    7   18     -2.13      0.00
   14    7   18      5.18      0.00
   15    7   18      2.07      0.00
   -2    8   18     -0.13      0.00
   -1    8   18      0.06      0.00
    0    8   18      0.28      0.00
    1    8   18      3.45      0.00
    2    8   18     -1.33      0.00
    3    8   18      0.28      0.00
    4    8   18     -0.13      0.00
    5    8   18      2.85      0.00
    6    8   18      0.47      0.00
    7    8   18     -0.18      0.00
    8    8   18     -2.35      0.00
    9    8   18     -1.77      0.00
   10    8   18     -0.54      0.00
   11    8   18      3.37      0.00
   12    8   18      0.47      0.00
   13    8   18     -1.53      0.00
   14    8   18     -0.27      0.00
   15    8   18      1.53      0.00
   16    8   18      1.51      0.00
   -1    9   18      0.92      0.00
    0    9   18      2.17      0.00
    1    9   18     -1.66      0.00
    2    9   18     -2.61      0.00
    3    9   18      6.21      0.00
    4    9   18      0.57      0.00
    5    9   18      0.03      0.00
    6    9   18     -4.85      0.00
    7    9   18      1.31      0.00
    8    9   18     -1.24      0.00
    9    9   18      1.06      0.00
   10    9   18      0.73      0.00
   11    9   18      0.04      0.00
   12    9   18     -2.23      0.00
   13    9   18      3.46      0.00
   14    9   18      0.85      0.00
   15    9   18     -0.65      0.00
   16    9   18      0.52      0.00
   -1   10   18     -0.68      0.00
    0   10   18     -0.93      0.00
    1   10   18      2.38      0.00
    2   10   18      1.72      0.00
    3   10   18     -1.49      0.00
    4   10   18      5.35      0.00
    5   10   18     -1.60      0.00
    6   10   18      2.55      0.00
    7   10   18     -1.75      0.00
    8   10   18     -1.38      0.00
    9   10   18      3.74      0.00
   10   10   18      3.42      0.00
   11   10   18     -1.50      0.00
   12   10   18      5.30      0.00
   13   10   18     -4.04      0.00
   14   10   18      0.19      0.00
   15   10   18      4.57      0.00
   16   10   18     -1.38      0.00
    0   11   18     -2.93      0.00
    1   11   18      1.04      0.00
    2   11   18      1.39      0.00
    3   11   18      3.99      0.00
    4   11   18      1.82      0.00
    5   11   18      0.86      0.00
    6   11   18     -0.10      0.00
    7   11   18     -1.08      0.00
    8   11   18      4.24      0.00
    9   11   18      6.59      0.00
   10   11   18     -2.18      0.00
   11   11   18      1.41      0.00
   12   11   18      0.21      0.00
   13   11   18     -0.92      0.00
   14   11   18      5.09      0.00
   15   11   18     -0.06      0.00
   16   11   18      0.72      0.00
    1   12   18      2.25      0.00
    2   12   18      1.45      0.00
    3   12   18      0.69      0.00
    4   12   18     -1.90      0.00
    5   12   18      2.40      0.00
    6   12   18      4.47      0.00
    7   12   18     -5.03      0.00
    8   12   18      1.73      0.00
    9   12   18      2.76      0.00
   10   12   18      2.34      0.00
   11   12   18     -1.23      0.00
   12   12   18      2.44      0.00
   13   12   18     -2.65      0.00
   14   12   18      1.62      0.00
   15   12   18      5.14      0.00
    2   13   18      3.50      0.00
    3   13   18     -2.21      0.00
    4   13   18     -1.01      0.00
    5   13   18      1.35      0.00
    6   13   18     -4.66      0.00
    7   13   18      0.92      0.00
    8   13   18      1.76      0.00
    9   13   18      0.96      0.00
   10   13   18      0.14      0.00
   11   13   18     -2.44      0.00
   12   13   18      0.06      0.00
   13   13   18      2.68      0.00
   14   13   18      1.82      0.00
   15   13   18      1.80      0.00
    4   14   18      0.19      0.00
    5   14   18     -1.37      0.00
    6   14   18      0.32      0.00
    7   14   18     -2.04      0.00
    8   14   18     -0.44      0.00
    9   14   18      2.99      0.00
   10   14   18      0.83      0.00
   11   14   18     -3.12      0.00
   12   14   18      1.79      0.00
   13   14   18     -1.68      0.00
   14   14   18      2.24      0.00
    6   15   18     -5.27      0.00
    7   15   18      4.09      0.00
    8   15   18      2.01      0.00
    9   15   18      1.20      0.00
   10   15   18     -0.62      0.00
   11   15   18     -2.25      0.00
   12   15   18     -0.12      0.00
   13   15   18      1.22      0.00
    9   16   18      0.18      0.00
   10   16   18      2.48      0.00
    2   -4   19     -6.59      0.00
    3   -4   19      6.34      0.00
    4   -4   19     -1.52      0.00
    0   -3   19      3.70      0.00
    1   -3   19      1.68      0.00
    2   -3   19     -1.62      0.00
    3   -3   19      2.36      0.00
    4   -3   19      1.71      0.00
    5   -3   19      1.29      0.00
    6   -3   19     -1.80      0.00
    7   -3   19     -0.36      0.00
   -1   -2   19     -1.65      0.00
    0   -2   19      2.80      0.00
    1   -2   19     -3.76      0.00
    2   -2   19      0.76      0.00
    3   -2   19      1.72      0.00
    4   -2   19      1.55      0.00
    5   -2   19      2.09      0.00
    6   -2   19      0.76      0.00
    7   -2   19     -1.40      0.00
    8   -2   19     -1.77      0.00
   -2   -1   19     -2.96      0.00
   -1   -1   19     -3.85      0.00
    0   -1   19     -1.53      0.00
    1   -1   19     -3.46      0.00
    2   -1   19     -2.82      0.00
    3   -1   19      1.23      0.00
    4   -1   19      6.42      0.00
    5   -1   19     -0.41      0.00
    6   -1   19      3.10      0.00
    7   -1   19     -3.32      0.00
    8   -1   19      0.04      0.00
    9   -1   19      1.85      0.00
   10   -1   19      1.85      0.00
   -2    0   19     -8.11      0.00
   -1    0   19     -3.24      0.00
    0    0   19     -1.64      0.00
    1    0   19     -5.94      0.00
    2    0   19     -0.96      0.00
    3    0   19      3.86      0.00
    4    0   19     -1.02      0.00
    5    0   19      3.97      0.00
    6    0   19     -0.25      0.00
    7    0   19      3.59      0.00
    8    0   19     -4.57      0.00
    9    0   19      2.19      0.00
   10    0   19     -0.55      0.00
   11    0   19      0.95      0.00
   -2    1   19      1.26      0.00
   -1    1   19     -2.43      0.00
    0    1   19     -7.27      0.00
    1    1   19      1.37      0.00
    2    1   19     -3.94      0.00
    3    1   19      4.15      0.00
    4    1   19      3.96      0.00
    5    1   19     -2.44      0.00
    6    1   19      2.22      0.00
    7    1   19      0.75      0.00
    8    1   19     -0.60      0.00
    9    1   19     -2.11      0.00
   10    1   19     -1.63      0.00
   11    1   19     -2.14      0.00
   12    1   19      0.87      0.00
   -2    2   19      0.38      0.00
   -1    2   19     -6.97      0.00
    0    2   19      6.08      0.00
    1    2   19     -2.55      0.00
    2    2   19      0.75      0.00
    3    2   19      2.50      0.00
    4    2   19      0.80      0.00
    5    2   19     -1.52      0.00
    6    2   19      5.51      0.00
    7    2   19     -1.19      0.00
    8    2   19     -3.09      0.00
    9    2   19     -2.05      0.00
   10    2   19     -0.30      0.00
   11    2   19     -2.57      0.00
   12    2   19     -0.76      0.00
   -2    3   19     -3.62      0.00
   -1    3   19      0.58      0.00
    0    3   19      1.33      0.00
    1    3   19     -0.12      0.00
    2    3   19      3.23      0.00
    3    3   19      2.17      0.00
    4    3   19      1.44      0.00
    5    3   19      1.70      0.00
    6    3   19     -5.29      0.00
    7    3   19      2.94      0.00
    8    3   19      0.95      0.00
    9    3   19     -4.13      0.00
   10    3   19      1.02      0.00
   11    3   19     -0.30      0.00
   12    3   19     -0.15      0.00
   13    3   19      0.51      0.00
   -2    4   19     -1.52      0.00
   -1    4   19     -0.23      0.00
    0    4   19      4.31      0.00
    1    4   19      3.64      0.00
    2    4   19     -2.10      0.00
    3    4   19      2.39      0.00
    4    4   19      0.49      0.00
    5    4   19     -0.80      0.00
    6    4   19     -1.61      0.00
    7    4   19     -1.46      0.00
    8    4   19     -2.42      0.00
    9    4   19      3.35      0.00
   10    4   19      2.61      0.00
   11    4   19      3.57      0.00
   12    4   19     -3.79      0.00
   13    4   19      0.99      0.00
   -2    5   19     -2.81      0.00
   -1    5   19     -3.42      0.00
    0    5   19      5.75      0.00
    1    5   19     -0.39      0.00
    2    5   19     -0.83      0.00
    3    5   19      2.55      0.00
    4    5   19     -2.56      0.00
    5    5   19     -2.49      0.00
    6    5   19     -5.07      0.00
    7    5   19     -0.21      0.00
    8    5   19      4.22      0.00
    9    5   19     -3.28      0.00
   10    5   19      2.10      0.00
   11    5   19      3.83      0.00
   12    5   19      0.98      0.00
   13    5   19     -2.93      0.00
   14    5   19     -1.97      0.00
   -2    6   19      0.15      0.00
   -1    6   19     -0.06      0.00
    0    6   19     -0.55      0.00
    1    6   19      2.01      0.00
    2    6   19     -3.40      0.00
    3    6   19     -0.36      0.00
    4    6   19     -3.13      0.00
    5    6   19      0.71      0.00
    6    6   19     -4.76      0.00
    7    6   19     -3.89      0.00
    8    6   19      3.18      0.00
    9    6   19     -0.55      0.00
   10    6   19      3.87      0.00
   11    6   19     -2.84      0.00
   12    6   19      0.48      0.00
   13    6   19     -4.09      0.00
   14    6   19     -0.19      0.00
   -1    7   19     -3.45      0.00
    0    7   19      1.14      0.00
    1    7   19     -3.10      0.00
    2    7   19      2.27      0.00
    3    7   19     -1.05      0.00
    4    7   19     -2.21      0.00
    5    7   19     -4.65      0.00
    6    7   19     -0.62      0.00
    7    7   19      3.62      0.00
    8    7   19      2.42      0.00
    9    7   19     -2.28      0.00
   10    7   19     -2.29      0.00
   11    7   19     -2.70      0.00
   12    7   19      3.27      0.00
   13    7   19     -2.35      0.00
   14    7   19     -2.75      0.00
   15    7   19     -0.89      0.00
   -1    8   19     -1.94      0.00
    0    8   19     -1.13      0.00
    1    8   19      1.68      0.00
    2    8   19     -3.15      0.00
    3    8   19      0.38      0.00
    4    8   19      0.14      0.00
    5    8   19     -0.47      0.00
    6    8   19     -0.74      0.00
    7    8   19      2.62      0.00
    8    8   19      4.07      0.00
    9    8   19      1.11      0.00
   10    8   19     -3.09      0.00
   11    8   19     -1.54      0.00
   12    8   19     -4.14      0.00
   13    8   19      0.86      0.00
   14    8   19     -0.62      0.00
   15    8   19     -1.90      0.00
    0    9   19     -2.79      0.00
    1    9   19      0.74      0.00
    2    9   19      2.75      0.00
    3    9   19     -3.38      0.00
    4    9   19     -2.22      0.00
    5    9   19     -0.23      0.00
    6    9   19      4.03      0.00
    7    9   19      4.59      0.00
    8    9   19      1.97      0.00
    9    9   19     -3.04      0.00
   10    9   19     -0.88      0.00
   11    9   19     -6.22      0.00
   12    9   19      3.19      0.00
   13    9   19      1.36      0.00
   14    9   19     -6.35      0.00
   15    9   19     -0.54      0.00
    1   10   19     -0.50      0.00
    2   10   19     -3.03      0.00
    3   10   19     -0.41      0.00
    4   10   19     -0.27      0.00
    5   10   19      1.34      0.00
    6   10   19      0.71      0.00
    7   10   19     -2.35      0.00
    8   10   19      1.89      0.00
    9   10   19     -0.11      0.00
   10   10   19     -3.33      0.00
   11   10   19     -1.67      0.00
   12   10   19      0.42      0.00
   13   10   19     -2.71      0.00
   14   10   19     -0.67      0.00
   15   10   19     -0.40      0.00
    2   11   19      0.11      0.00
    3   11   19     -2.16      0.00
    4   11   19     -0.58      0.00
    5   11   19     -2.64      0.00
    6   11   19      4.84      0.00
    7   11   19     -3.03      0.00
    8   11   19     -2.26      0.00
    9   11   19     -2.69      0.00
   10   11   19     -1.34      0.00
   11   11   19      0.65      0.00
   12   11   19      4.67      0.00
   13   11   19     -4.65      0.00
   14   11   19     -2.87      0.00
   15   11   19     -1.06      0.00
    3   12   19      1.66      0.00
    4   12   19     -1.17      0.00
    5   12   19      2.91      0.00
    6   12   19     -1.97      0.00
    7   12   19     -3.69      0.00
    8   12   19      1.01      0.00
    9   12   19     -0.48      0.00
   10   12   19      1.42      0.00
   11   12   19      2.00      0.00
   12   12   19     -1.77      0.00
   13   12   19     -1.33      0.00
   14   12   19     -1.98      0.00
    4   13   19      0.79      0.00
    5   13   19     -0.59      0.00
    6   13   19      2.38      0.00
    7   13   19      2.51      0.00
    8   13   19     -3.61      0.00
    9   13   19      0.39      0.00
   10   13   19      4.75      0.00
   11   13   19     -2.44      0.00
   12   13   19      4.30      0.00
   13   13   19     -3.49      0.00
   14   13   19     -2.10      0.00
    6   14   19     -0.81      0.00
    7   14   19     -0.23      0.00
    8   14   19      2.31      0.00
    9   14   19      2.34      0.00
   10   14   19      1.68      0.00
   11   14   19      0.59      0.00
   12   14   19     -2.04      0.00
    3   -2   20     -6.70      0.00
    4   -2   20      1.37      0.00
    5   -2   20     -3.71      0.00
    1   -1   20      2.76      0.00
    2   -1   20     -2.76      0.00
    3   -1   20     -0.84      0.00
    4   -1   20     -4.60      0.00
    5   -1   20      0.91      0.00
    6   -1   20     -1.13      0.00
    7   -1   20     -0.40      0.00
    0    0   20      1.19      0.00
    1    0   20      4.75      0.00
    2    0   20     -3.82      0.00
    3    0   20     -3.43      0.00
    4    0   20      2.51      0.00
    5    0   20     -2.36      0.00
    6    0   20     -0.81      0.00
    7    0   20     -0.28      0.00
    8    0   20     -1.44      0.00
    9    0   20     -1.14      0.00
    0    1   20      4.06      0.00
    1    1   20      2.27      0.00
    2    1   20     -2.86      0.00
    3    1   20     -0.66      0.00
    4    1   20      0.96      0.00
    5    1   20     -4.92      0.00
    6    1   20      1.13      0.00
    7    1   20      1.86      0.00
    8    1   20     -2.43      0.00
    9    1   20      0.96      0.00
   10    1   20      1.64      0.00
    0    2   20      0.95      0.00
    1    2   20     -1.92      0.00
    2    2   20     -1.99      0.00
    3    2   20     -2.47      0.00
    4    2   20      1.37      0.00
    5    2   20     -2.11      0.00
    6    2   20     -3.13      0.00
    7    2   20      0.03      0.00
    8    2   20      2.89      0.00
    9    2   20      0.02      0.00
   10    2   20      3.01      0.00
   11    2   20      0.66      0.00
   -1    3   20     -4.28      0.00
    0    3   20      2.48      0.00
    1    3   20     -0.81      0.00
    2    3   20     -5.09      0.00
    3    3   20     -1.09      0.00
    4    3   20     -3.41      0.00
    5    3   20     -1.09      0.00
    6    3   20     -2.06      0.00
    7    3   20      2.21      0.00
    8    3   20     -2.86      0.00
    9    3   20      1.72      0.00
   10    3   20      1.07      0.00
   11    3   20      2.16      0.00
   12    3   20     -3.38      0.00
    0    4   20      0.56      0.00
    1    4   20     -3.56      0.00
    2    4   20     -2.62      0.00
    3    4   20     -3.45      0.00
    4    4   20      0.06      0.00
    5    4   20      0.90      0.00
    6    4   20     -5.63      0.00
    7    4   20      0.60      0.00
    8    4   20      2.40      0.00
    9    4   20     -0.57      0.00
   10    4   20     -3.90      0.00
   11    4   20      0.02      0.00
   12    4   20     -0.40      0.00
    0    5   20     -2.93      0.00
    1    5   20      4.04      0.00
    2    5   20     -7.63      0.00
    3    5   20      2.59      0.00
    4    5   20     -2.97      0.00
    5    5   20      0.70      0.00
    6    5   20      3.48      0.00
    7    5   20     -3.50      0.00
    8    5   20      0.58      0.00
    9    5   20     -2.89      0.00
   10    5   20      1.51      0.00
   11    5   20     -0.39      0.00
   12    5   20      0.02      0.00
   13    5   20     -1.80      0.00
    0    6   20      2.24      0.00
    1    6   20     -1.84      0.00
    2    6   20     -0.71      0.00
    3    6   20      1.14      0.00
    4    6   20      0.71      0.00
    5    6   20     -0.25      0.00
    6    6   20     -0.40      0.00
    7    6   20     -0.53      0.00
    8    6   20      6.04      0.00
    9    6   20     -1.93      0.00
   10    6   20     -1.56      0.00
   11    6   20     -1.72      0.00
   12    6   20      5.58      0.00
   13    6   20      0.19      0.00
    1    7   20     -1.37      0.00
    2    7   20      2.39      0.00
    3    7   20     -3.90      0.00
    4    7   20      0.33      0.00
    5    7   20      3.00      0.00
    6    7   20     -0.30      0.00
    7    7   20      0.17      0.00
    8    7   20     -0.66      0.00
    9    7   20      2.01      0.00
   10    7   20      1.23      0.00
   11    7   20      2.02      0.00
   12    7   20      1.34      0.00
   13    7   20      2.00      0.00
    1    8   20     -2.08      0.00
    2    8   20      1.45      0.00
    3    8   20     -0.05      0.00
    4    8   20      0.01      0.00
    5    8   20     -4.42      0.00
    6    8   20      1.05      0.00
    7    8   20      1.39      0.00
    8    8   20     -0.14      0.00
    9    8   20      1.49      0.00
   10    8   20     -0.05      0.00
   11    8   20     -0.40      0.00
   12    8   20      1.55      0.00
   13    8   20      8.08      0.00
    2    9   20     -2.31      0.00
    3    9   20     -0.77      0.00
    4    9   20     -1.75      0.00
    5    9   20      2.41      0.00
    6    9   20      1.59      0.00
    7    9   20     -7.61      0.00
    8    9   20      2.55      0.00
    9    9   20      0.27      0.00
   10    9   20      1.31      0.00
   11    9   20      2.04      0.00
   12    9   20      0.36      0.00
   13    9   20      2.47      0.00
    3   10   20     -0.53      0.00
    4   10   20     -1.22      0.00
    5   10   20     -0.63      0.00
    6   10   20      0.30      0.00
    7   10   20      0.91      0.00
    8   10   20      0.48      0.00
    9   10   20     -0.94      0.00
   10   10   20      0.34      0.00
   11   10   20     -1.61      0.00
   12   10   20      2.76      0.00
   13   10   20      2.67      0.00
    4   11   20      0.73      0.00
    5   11   20      1.18      0.00
    6   11   20      4.01      0.00
    7   11   20     -4.11      0.00
    8   11   20      0.09      0.00
    9   11   20      1.98      0.00
   10   11   20     -3.31      0.00
   11   11   20      2.56      0.00
   12   11   20     -0.02      0.00
   13   11   20     -1.18      0.00
    5   12   20     -0.28      0.00
    6   12   20     -0.18      0.00
    7   12   20      4.27      0.00
    8   12   20     -0.98      0.00
    9   12   20     -4.10      0.00
   10   12   20     -0.70      0.00
   11   12   20     -0.74      0.00
   12   12   20      1.57      0.00
    7   13   20     -1.53      0.00
    8   13   20     -2.45      0.00
    9   13   20     -1.62      0.00
   10   13   20      1.48      0.00
   11   13   20     -1.44      0.00
    3    1   21     -6.54      0.00
    4    1   21      3.31      0.00
    5    1   21     -1.05      0.00
    6    1   21      0.49      0.00
    7    1   21      0.96      0.00
    2    2   21     -1.97      0.00
    3    2   21     -0.05      0.00
    4    2   21      1.74      0.00
    5    2   21      0.71      0.00
    6    2   21     -0.07      0.00
    7    2   21      1.28      0.00
    8    2   21     -3.25      0.00
    2    3   21      2.19      0.00
    3    3   21      1.92      0.00
    4    3   21      1.80      0.00
    5    3   21      7.33      0.00
    6    3   21     -4.05      0.00
    7    3   21     -0.86      0.00
    8    3   21     -2.31      0.00
    9    3   21      1.87      0.00
    2    4   21     -0.61      0.00
    3    4   21      3.38      0.00
    4    4   21      4.13      0.00
    5    4   21      0.33      0.00
    6    4   21      1.18      0.00
    7    4   21     -0.24      0.00
    8    4   21     -1.35      0.00
    9    4   21      0.44      0.00
   10    4   21      0.32      0.00
    2    5   21      0.06      0.00
    3    5   21      3.27      0.00
    4    5   21      2.01      0.00
    5    5   21      0.07      0.00
    6    5   21      1.11      0.00
    7    5   21     -5.79      0.00
    8    5   21      4.40      0.00
    9    5   21      2.10      0.00
   10    5   21     -1.71      0.00
   11    5   21     -2.93      0.00
    2    6   21      3.80      0.00
    3    6   21     -0.23      0.00
    4    6   21     -3.20      0.00
    5    6   21      0.61      0.00
    6    6   21      0.88      0.00
    7    6   21     -1.47      0.00
    8    6   21     -0.42      0.00
    9    6   21     -2.59      0.00
   10    6   21      0.40      0.00
   11    6   21     -3.14      0.00
    3    7   21     -2.69      0.00
    4    7   21      2.61      0.00
    5    7   21     -3.12      0.00
    6    7   21     -4.23      0.00
    7    7   21      0.45      0.00
    8    7   21     -1.87      0.00
    9    7   21      4.06      0.00
   10    7   21     -4.27      0.00
   11    7   21     -3.56      0.00
   12    7   21     -4.87      0.00
    3    8   21     -1.49      0.00
    4    8   21     -3.48      0.00
    5    8   21     -1.89      0.00
    6    8   21      3.35      0.00
    7    8   21     -3.86      0.00
    8    8   21     -1.31      0.00
    9    8   21      2.15      0.00
   10    8   21     -1.63      0.00
   11    8   21     -0.97      0.00
   12    8   21     -4.93      0.00
    4    9   21     -2.96      0.00
    5    9   21     -1.22      0.00
    6    9   21     -2.64      0.00
    7    9   21     -1.15      0.00
    8    9   21      4.29      0.00
    9    9   21      0.49      0.00
   10    9   21      0.59      0.00
   11    9   21     -1.59      0.00
   12    9   21     -6.69      0.00
    5   10   21     -2.24      0.00
    6   10   21      2.61      0.00
    7   10   21     -2.02      0.00
    8   10   21     -0.64      0.00
    9   10   21      3.06      0.00
   10   10   21      0.45      0.00
   11   10   21     -0.92      0.00
    7   11   21      0.78      0.00
    8   11   21      2.16      0.00
    9   11   21      2.46      0.00
   10   11   21     -2.65      0.00
    1    0    0   -122.78      0.00
    0    1    0    104.35      0.00
    1    1    0    105.80      0.00
    3    1    0      0.61      0.00
  -16    2    0     -0.95      0.00
   -2    2    0    -13.28      0.00
  -15    4    0      0.67      0.00
   18   10    0     -0.44      0.00
   17   13    0      3.31      0.00
   -5   15    0      1.57      0.00
   15   16    0     -3.55      0.00
    1   18    0      0.31      0.00
   12   18    0     -4.15      0.00
    5   19    0      0.13      0.00
    6   19    0      0.58      0.00
    8   19    0      4.54      0.00
    9   19    0      1.96      0.00
  -11  -18    1      1.05      0.00
  -13  -17    1      0.08      0.00
  -16  -14    1     -3.18      0.00
  -17  -12    1      3.91      0.00
   14   -6    1      1.63      0.00
    4   -4    1    -16.32      0.00
  -17   -1    1     -0.28      0.00
   -1   -1    1   -347.94      0.00
    0   -1    1    156.41      0.00
   -1    0    1   -103.41      0.00
    0    0    1    -14.23      0.00
    1    0    1    -73.70      0.00
   17    0    1      0.91      0.00
    0    1    1     52.24      0.00
    1    1    1     19.92      0.00
    2    3    1     22.22      0.00
   18    3    1      2.78      0.00
  -13    7    1      1.58      0.00
   17   14    1      4.37      0.00
   -5   15    1      7.34      0.00
   13   18    1      1.06      0.00
    4   19    1     -1.56      0.00
   10   19    1      6.95      0.00
  -10  -18    2     -3.35      0.00
  -12  -17    2     -2.30      0.00
    3  -16    2     -1.53      0.00
  -16  -13    2      0.54      0.00
   14   -6    2      2.37      0.00
   -2   -1    2     -2.80      0.00
  -16    1    2      0.96      0.00
    1    2    2     82.01      0.00
    4    3    2      2.97      0.00
   -9    6    2     10.10      0.00
    8   12    2    -13.41      0.00
   -5   15    2      1.46      0.00
   16   16    2     -1.20      0.00
   -2   17    2     -6.66      0.00
   15   17    2     -0.63      0.00
    3   19    2      0.58      0.00
   -7  -18    3      1.65      0.00
   -6  -18    3      2.02      0.00
   -5  -18    3     -2.02      0.00
   -4  -18    3      1.19      0.00
  -11  -17    3      1.29      0.00
    0  -17    3     -1.28      0.00
    6  -14    3     -6.18      0.00
  -16  -12    3     -0.46      0.00
  -17   -8    3      1.35      0.00
  -17   -7    3      1.32      0.00
  -17   -6    3     -4.31      0.00
   14   -6    3     -4.58      0.00
  -17   -5    3      3.52      0.00
  -16    0    3      1.53      0.00
    2    1    3     89.15      0.00
   -1    2    3     21.45      0.00
   18    2    3     -2.21      0.00
    2    3    3     -0.31      0.00
    2    5    3    -41.75      0.00
   19    7    3     -1.35      0.00
   19    8    3     -2.19      0.00
    5    9    3      7.82      0.00
   19    9    3      0.77      0.00
    6   14    3      1.06      0.00
   -5   15    3      1.34      0.00
   -2   17    3     -2.10      0.00
    0   18    3      2.99      0.00
    3   19    3     10.31      0.00
   -1  -17    4     -0.49      0.00
    2  -16    4     -1.34      0.00
  -13  -15    4      1.40      0.00
    4  -15    4      5.56      0.00
  -14  -14    4      2.59      0.00
    7  -13    4      4.56      0.00
  -16  -10    4     -0.32      0.00
   14   -6    4     -1.70      0.00
   16   -3    4     -1.45      0.00
  -16   -1    4     -0.16      0.00
   17   -1    4      7.35      0.00
  -15    2    4     -3.32      0.00
    2    2    4     60.90      0.00
    2    3    4    -35.92      0.00
  -14    4    4     -0.94      0.00
  -13    6    4      4.66      0.00
   19    6    4     -1.54      0.00
  -11    9    4     -0.25      0.00
   19   11    4     -1.01      0.00
   18   14    4      3.36      0.00
   16   17    4      5.10      0.00
    0   18    4     -2.98      0.00
   13   19    4      6.53      0.00
    8   20    4      2.60      0.00
   -7  -17    5      3.32      0.00
   -3  -17    5     -7.30      0.00
    1  -16    5      2.37      0.00
  -12  -15    5     -0.43      0.00
  -13  -14    5      2.88      0.00
  -14  -13    5      2.60      0.00
  -15  -11    5      0.14      0.00
  -16   -8    5      1.68      0.00
  -16   -7    5     -1.05      0.00
   14   -6    5      4.28      0.00
  -16   -4    5     -2.19      0.00
   16   -3    5      3.10      0.00
   17   -1    5      0.20      0.00
  -15    1    5     -2.14      0.00
   19    5    5     -3.01      0.00
  -12    7    5     -4.70      0.00
   -9   11    5     -0.05      0.00
   -8   12    5      2.70      0.00
   19   12    5     -2.84      0.00
   -7   13    5      2.80      0.00
   -6   14    5     -0.16      0.00
   17   16    5     -2.81      0.00
    0   18    5      0.97      0.00
   15   18    5     -3.50      0.00
    7   20    5     -0.33      0.00
    8   20    5     -1.96      0.00
    9   20    5     -3.92      0.00
   10   20    5     -3.26      0.00
   -9  -16    6     -1.01      0.00
    0  -16    6     -0.21      0.00
  -11  -15    6      0.49      0.00
  -13  -13    6     -0.75      0.00
    9  -11    6     -1.57      0.00
   13   -7    6     -6.32      0.00
   17   -1    6      5.90      0.00
    0    3    6    -19.71      0.00
  -11    8    6     -2.87      0.00
   10   14    6     -4.83      0.00
   18   15    6     -0.78      0.00
   -3   16    6      1.30      0.00
    7   20    6      4.10      0.00
   10   20    6      3.63      0.00
   -6  -16    7      0.92      0.00
   -3  -16    7     -0.61      0.00
   -2  -16    7      4.75      0.00
  -11  -14    7     -0.69      0.00
    4  -14    7    -11.41      0.00
  -12  -13    7      2.50      0.00
  -13  -12    7      2.21      0.00
  -14  -10    7      1.68      0.00
   10  -10    7      5.31      0.00
   11   -9    7      1.12      0.00
   12   -8    7      2.24      0.00
  -15   -6    7      1.44      0.00
  -15   -5    7     -3.36      0.00
  -15   -4    7     -2.44      0.00
   17   -1    7      1.49      0.00
  -14    1    7      3.22      0.00
  -10    9    7     -1.40      0.00
   19   13    7      1.68      0.00
   18   15    7      1.04      0.00
    3   19    7     -0.70      0.00
   14   19    7     -5.39      0.00
    7   20    7      3.09      0.00
   10   20    7     -6.16      0.00
   11   20    7      5.45      0.00
    0  -15    8      0.39      0.00
    3  -14    8     -1.39      0.00
  -11  -13    8     -1.19      0.00
    5  -13    8      5.13      0.00
  -12  -12    8     -2.45      0.00
  -14   -8    8     -5.13      0.00
   15   -4    8     -5.32      0.00
  -14   -1    8     -5.17      0.00
  -12    5    8      1.79      0.00
   -8   11    8     -1.33      0.00
   -7   12    8      2.13      0.00
   -6   13    8      0.89      0.00
   19   13    8      2.40      0.00
   -5   14    8      1.33      0.00
   -1   17    8     -1.48      0.00
    1   18    8      7.22      0.00
    3   19    8     -1.39      0.00
   14   19    8      5.63      0.00
    7   20    8      3.87      0.00
    8   20    8      6.25      0.00
    9   20    8      1.51      0.00
   10   20    8      0.66      0.00
   11   20    8      3.25      0.00
   -8  -14    9      3.04      0.00
    6  -12    9     -2.62      0.00
    9  -10    9      3.66      0.00
   14   -5    9      3.56      0.00
  -13    1    9      2.29      0.00
   19    5    9      1.16      0.00
  -11    6    9      1.03      0.00
   -9    9    9     -2.55      0.00
   19   13    9     -0.44      0.00
   -2   16    9      2.60      0.00
   14   19    9      3.00      0.00
    8   20    9     -0.28      0.00
    9   20    9      0.44      0.00
   10   20    9     -9.98      0.00
   -5  -14   10     -0.13      0.00
   -1  -14   10     -2.41      0.00
   -8  -13   10      2.49      0.00
    3  -13   10     -1.73      0.00
    7  -11   10     -2.45      0.00
   -2   -8   10      0.41      0.00
   12   -7   10     -2.78      0.00
  -13   -5   10      1.23      0.00
  -13   -4   10     -1.18      0.00
  -13   -3   10     -2.54      0.00
    7   -2   10      3.61      0.00
   17    0   10      3.00      0.00
  -12    2   10      1.20      0.00
   18    2   10     -0.24      0.00
    1    4   10      1.55      0.00
   -7   11   10     -3.56      0.00
   19   13   10      0.75      0.00
   -4   14   10      0.74      0.00
   -3   15   10     -3.56      0.00
    0   17   10     -4.97      0.00
    2   18   10      6.10      0.00
   14   19   10      0.54      0.00
    1  -13   11      2.22      0.00
   -8  -12   11     -3.39      0.00
    4  -12   11      2.82      0.00
   -9  -11   11      2.60      0.00
    6  -11   11      0.06      0.00
  -10  -10   11      2.78      0.00
    9   -9   11     -4.72      0.00
    1   -7   11     -2.74      0.00
  -12   -6   11      2.61      0.00
   -5   -3   11     -0.22      0.00
    7   -2   11     -8.93      0.00
  -12   -1   11     -0.16      0.00
  -12    0   11     -3.36      0.00
   19    6   11      1.59      0.00
   -8    9   11      2.73      0.00
   18   15   11     -5.27      0.00
   -1   16   11      3.80      0.00
    5   19   11      1.88      0.00
    2  -12   12     -5.09      0.00
    5  -11   12      1.15      0.00
  -11   -6   12      2.09      0.00
   12   -6   12      1.17      0.00
  -11    1   12     -6.37      0.00
   17    1   12     -2.36      0.00
  -10    4   12      3.01      0.00
   19    7   12     -1.22      0.00
   -8    8   12     -0.88      0.00
   19   11   12      2.20      0.00
   -5   12   12      1.65      0.00
   19   12   12      1.56      0.00
   -4   13   12      3.87      0.00
   -3   14   12      0.77      0.00
   15   18   12      1.30      0.00
    6   19   12     -1.16      0.00
   13   19   12      1.79      0.00
   -5  -11   13      5.61      0.00
    3  -11   13      3.28      0.00
   -7  -10   13     -1.92      0.00
   -8   -9   13      1.97      0.00
   -9   -8   13     -0.13      0.00
   14   -3   13      0.73      0.00
   16    0   13      3.91      0.00
  -10    2   13      0.03      0.00
   18    4   13      3.43      0.00
   -8    7   13     -1.07      0.00
   19    9   13      1.17      0.00
   -6   10   13     -0.30      0.00
   19   10   13      2.24      0.00
   18   14   13     -0.91      0.00
   -1   15   13      2.31      0.00
   17   16   13      1.29      0.00
    2   17   13     -2.42      0.00
   16   17   13     -0.92      0.00
    4   18   13      1.98      0.00
    8   19   13      5.14      0.00
   11   19   13      1.43      0.00
   12   19   13     -2.06      0.00
    6   -9   14      2.28      0.00
   -8   -7   14      1.25      0.00
   -9   -5   14     -2.93      0.00
   15   -1   14     -0.47      0.00
    8    1   14      9.04      0.00
    9    1   14     -2.40      0.00
    8    7   14      4.19      0.00
   -6    9   14      1.06      0.00
    3   17   14     -1.50      0.00
   14   18   14      2.99      0.00
   -4   -9   15     -0.28      0.00
    4   -9   15      3.26      0.00
    8   -7   15      2.90      0.00
   -8   -4   15     -3.52      0.00
   15    0   15      0.04      0.00
   -8    3   15     -1.39      0.00
   10    5   15      3.08      0.00
   18    7   15      0.09      0.00
   -5    9   15     -0.49      0.00
   18   12   15     -1.56      0.00
   16   16   15     -0.53      0.00
    7   18   15      5.45      0.00
   12   18   15      0.72      0.00
   -3   -8   16      0.13      0.00
    4   -8   16     -3.52      0.00
   11   -4   16      0.19      0.00
   -7   -3   16     -0.79      0.00
   12   -3   16     -0.66      0.00
   15    1   16     -2.21      0.00
   -7    3   16      1.94      0.00
   17    5   16      1.82      0.00
    2   15   16      0.37      0.00
   16   15   16      0.81      0.00
   15   16   16      1.56      0.00
    6   17   16     -3.65      0.00
   -1   -7   17     -3.84      0.00
    4   -7   17     -6.17      0.00
   -5   -4   17      2.56      0.00
   11   -3   17     -2.97      0.00
   12   -2   17     -0.27      0.00
   -6   -1   17      3.69      0.00
   -6    0   17      1.78      0.00
   -6    1   17      2.70      0.00
   -6    2   17      4.02      0.00
   15    2   17     -4.09      0.00
   16    4   17     -4.23      0.00
   17    8   17     -0.25      0.00
   -3    9   17     -3.22      0.00
   17    9   17      2.04      0.00
   17   10   17      0.87      0.00
   17   11   17      1.68      0.00
   16   14   17      1.25      0.00
   15   15   17      1.09      0.00
    5   16   17      2.86      0.00
   14   16   17      2.32      0.00
    9   17   17     -2.96      0.00
   10   17   17     -1.18      0.00
   11   17   17     -5.08      0.00
    1   -6   18     -0.48      0.00
    2   -6   18      2.39      0.00
    6   -5   18      3.62      0.00
   -3   -4   18      1.57      0.00
    8   -4   18      0.85      0.00
   14    2   18      1.61      0.00
   15    4   18      5.04      0.00
   -4    5   18     -0.07      0.00
   -3    7   18     -0.25      0.00
   16    7   18     -1.60      0.00
   -2    9   18     -1.98      0.00
   16   12   18      0.99      0.00
    3   14   18     -3.75      0.00
   15   14   18      0.72      0.00
    5   15   18      1.51      0.00
   14   15   18      0.38      0.00
    8   16   18      2.83      0.00
   11   16   18     -2.14      0.00
   12   16   18      0.42      0.00
    1   -4   19      7.85      0.00
    5   -4   19      1.34      0.00
   -1   -3   19     -2.64      0.00
   -2   -2   19     -1.63      0.00
    9   -2   19      1.77      0.00
   -3    0   19     -0.61      0.00
   -3    1   19     -8.92      0.00
   -3    2   19     -4.72      0.00
   13    2   19     -1.57      0.00
   -3    3   19      3.39      0.00
   14    4   19     -1.66      0.00
   15    6   19      1.40      0.00
    1   11   19      0.74      0.00
   15   12   19     -0.02      0.00
    5   14   19      1.55      0.00
   13   14   19      0.78      0.00
    8   15   19      0.52      0.00
    9   15   19      0.20      0.00
   10   15   19      3.58      0.00
   11   15   19     -0.12      0.00
    2   -2   20      1.94      0.00
    6   -2   20      3.16      0.00
    0   -1   20      5.53      0.00
    8   -1   20     -3.27      0.00
   -1    1   20     -1.87      0.00
   -1    2   20      1.38      0.00
   -1    4   20     -3.59      0.00
   -1    5   20      0.48      0.00
    0    7   20     -0.42      0.00
   14    7   20      1.07      0.00
   14    8   20     -0.06      0.00
    1    9   20      1.96      0.00
   14    9   20      1.88      0.00
    2   10   20      2.24      0.00
   14   10   20     -0.77      0.00
    3   11   20     -0.49      0.00
   13   12   20      0.96      0.00
    6   13   20      1.05      0.00
   12   13   20      0.35      0.00
    4    0   21      0.46      0.00
    5    0   21     -1.20      0.00
    2    1   21      1.17      0.00
    8    1   21     -0.89      0.00
    9    2   21     -2.36      0.00
   10    3   21      0.48      0.00
    1    4   21      6.06      0.00
   11    4   21      2.46      0.00
   12    6   21      0.27      0.00
    2    7   21      2.59      0.00
   12   10   21      0.34      0.00
    6   11   21     -3.04      0.00
   11   11   21      1.99      0.00
    8   12   21     -0.82      0.00
    9   12   21     -0.29      0.00
   10   12   21      2.11      0.00
    0    0    0      0.00      0.00
# SQUEEZE RESULTS (Version = 230916)
# Note: Data are Listed for all Voids in the P1 Unit Cell
# i.e. Centre of Gravity, Solvent Accessible Volume,
# Recovered number of Electrons in the Void and
# Details about the Squeezed Material
loop_
  _platon_squeeze_void_nr
  _platon_squeeze_void_average_x
  _platon_squeeze_void_average_y
  _platon_squeeze_void_average_z
  _platon_squeeze_void_volume
  _platon_squeeze_void_count_electrons
  _platon_squeeze_void_content
   1 -0.118  0.034  0.417      1320       481 ' '
# Missing Reflections Below sin(th)/lambda = 0.25
loop_
  _platon_missing_refln_index_h
  _platon_missing_refln_index_k
  _platon_missing_refln_index_l
  _platon_missing_refln_theta
    1    0    0     1.444
    0    1    0     1.377
    1    1    0     1.573
    3    1    0     4.021
   -2    2    0     4.690
    4   -4    1     9.421
   -1   -1    1     2.334
    0   -1    1     1.986
   -1    0    1     2.112
    0    0    1     1.205
    1    0    1     1.618
    0    1    1     1.659
    1    1    1     1.552
    2    3    1     3.769
   -2   -1    2     4.235
    1    2    2     2.870
    4    3    2     5.224
    2    1    3     3.604
   -1    2    3     4.999
    2    3    3     4.309
    2    5    3     6.278
    2    2    4     4.585
    2    3    4     5.012
    0    3    6     7.676
_platon_squeeze_void_probe_radius                  1.20
_platon_squeeze_details
)
TITL T         P -1         R = 0.13
CELL   16.3670   16.8290   18.4600     71.71     68.56     63.29
SPGR P-1
# Solvent Accessible Volume =      1320
# Electrons Found in S.A.V. =       480
# Note: Atoms in Void as Cxxx and Qxxx all others
C101 0.357 0.597 0.310 !       8.54 eA-3
C102 0.316 0.160 0.029 !       7.27 eA-3
C103 0.467 0.406 0.341 !       6.97 eA-3
C104 0.564 0.408 0.503 !       6.54 eA-3
C105 0.281 0.470 0.323 !       5.97 eA-3
C106 0.596 0.713 0.030 !       4.62 eA-3
C107 0.596 0.161 0.152 !       4.49 eA-3
C108 0.784 0.043 0.188 !       4.09 eA-3
C109 0.691 0.951 0.166 !       3.62 eA-3
C110 0.508 0.089 0.031 !       3.60 eA-3
C111 0.348 0.490 0.362 !       3.47 eA-3
Q112 0.198 0.545 0.358 !       3.44 eA-3
C113 0.927 0.906 0.488 !       3.34 eA-3
Q114 0.150 0.054 0.230 !       3.27 eA-3
C115 0.904 0.877 0.438 !       2.86 eA-3
Q116 0.590 0.533 0.358 !       2.86 eA-3
Q117 0.744 0.531 0.221 !       2.84 eA-3
Q118 0.673 0.615 0.409 !       2.57 eA-3
C119 0.973 0.975 0.434 !       2.57 eA-3
C120 0.789 0.985 0.173 !       2.57 eA-3
C121 1.000 1.000 0.500 !       2.54 eA-3
C122 0.873 0.998 0.275 !       2.48 eA-3
C123 0.076 0.940 0.361 !       2.40 eA-3
Q124 0.895 0.846 0.158 !       2.30 eA-3
Q125 0.920 0.307 0.296 !       2.14 eA-3
C126 0.937 0.955 0.335 !       2.10 eA-3
C127 0.981 1.005 0.373 !       2.08 eA-3
C128 0.825 0.086 0.166 !       2.07 eA-3
Q129 0.173 0.107 0.253 !       2.00 eA-3
Q130 0.892 0.401 0.377 !       1.96 eA-3
C131 0.908 0.915 0.391 !       1.86 eA-3
Q132 0.985 0.219 0.093 !       1.85 eA-3
Q133 0.033 0.209 0.091 !       1.83 eA-3
Q134 0.533 0.765 0.189 !       1.83 eA-3
C135 0.416 0.175 0.125 !       1.81 eA-3
C136 0.407 0.160 0.056 !       1.79 eA-3
C137 0.954 0.953 0.387 !       1.79 eA-3
C138 0.046 0.017 0.427 !       1.77 eA-3
C139 0.468 0.252 0.036 !       1.74 eA-3
Q140 0.969 0.748 0.019 !       1.68 eA-3
Q141 0.826 0.455 0.019 !       1.68 eA-3
Q142 0.409 0.298 0.392 !       1.67 eA-3
Q143 0.857 0.364 0.496 !       1.64 eA-3
Q144 0.906 0.358 0.487 !       1.61 eA-3
Q145 0.936 0.747 0.021 !       1.54 eA-3
C146 0.680 0.072 0.151 !       1.54 eA-3
Q147 0.082 0.228 0.003 !       1.53 eA-3
C148 0.585 0.080 0.044 !       1.52 eA-3
C149 0.492 0.174 0.165 !       1.52 eA-3
Q150 0.904 0.427 0.422 !       1.51 eA-3
Q151 0.204 0.487 0.419 !       1.46 eA-3
C152 0.898 0.892 0.368 !       1.45 eA-3
C153 0.999 0.893 0.453 !       1.44 eA-3
C154 0.527 0.454 0.405 !       1.43 eA-3
Q155 0.908 0.332 0.432 !       1.40 eA-3
Q156 0.106 0.091 0.284 !       1.39 eA-3
Q157 0.173 0.472 0.347 !       1.38 eA-3
C158 0.460 0.191 0.081 !       1.38 eA-3
C159 0.106 0.053 0.410 !       1.37 eA-3
C160 0.474 0.215 0.185 !       1.37 eA-3
C161 0.892 0.076 0.207 !       1.36 eA-3
Q162 0.796 0.364 0.297 !       1.36 eA-3
C163 0.488 0.184 0.215 !       1.32 eA-3
Q164 0.028 0.250 0.407 !       1.32 eA-3
Q165 0.246 0.035 0.045 !       1.31 eA-3
Q166 0.845 0.924 0.092 !       1.30 eA-3
Q167 0.329 0.970 0.208 !       1.28 eA-3
C168 0.639 0.870 0.031 !       1.28 eA-3
C169 0.464 0.437 0.421 !       1.28 eA-3
C170 0.684 0.035 0.126 !       1.28 eA-3
Q171 0.858 0.433 0.438 !       1.26 eA-3
Q172 0.455 0.863 0.371 !       1.26 eA-3
C173 0.797 0.030 0.257 !       1.25 eA-3
Q174 0.047 0.174 0.046 !       1.24 eA-3
Q175 0.980 0.182 0.459 !       1.24 eA-3
Q176 0.765 0.812 0.108 !       1.24 eA-3
C177 0.597 0.982 0.177 !       1.24 eA-3
Q178 0.925 0.373 0.255 !       1.23 eA-3
C179 0.498 0.037 0.004 !       1.22 eA-3
C180 0.613 0.016 0.159 !       1.21 eA-3
Q181 0.455 0.326 0.413 !       1.21 eA-3
Q182 0.893 0.282 0.254 !       1.20 eA-3
Q183 0.847 0.143 0.204 !       1.19 eA-3
Q184 0.390 0.296 0.063 !       1.19 eA-3
Q185 0.191 0.027 0.092 !       1.19 eA-3
C186 0.596 0.175 0.068 !       1.19 eA-3
C187 0.816 0.058 0.247 !       1.18 eA-3
Q188 0.216 0.605 0.291 !       1.18 eA-3
Q189 0.965 0.189 0.392 !       1.16 eA-3
Q190 0.422 0.811 0.363 !       1.16 eA-3
C191 0.541 0.784 0.042 !       1.14 eA-3
Q192 0.998 0.966 0.238 !       1.14 eA-3
Q193 0.247 0.168 0.009 !       1.14 eA-3
Q194 0.722 0.103 0.076 !       1.12 eA-3
Q195 0.924 0.052 0.094 !       1.12 eA-3
C196 0.032 0.959 0.289 !       1.11 eA-3
C197 0.562 0.513 0.452 !       1.11 eA-3
C198 0.533 0.013 0.188 !       1.10 eA-3
Q199 0.015 0.272 0.050 !       1.09 eA-3
)
;
_shelx_fab_checksum              66260
loop_
_space_group_symop_operation_xyz
'x, y, z'
'-x, -y, -z'
loop_
_atom_site_label
_atom_site_type_symbol
_atom_site_fract_x
_atom_site_fract_y
_atom_site_fract_z
_atom_site_U_iso_or_equiv
_atom_site_adp_type
_atom_site_occupancy
_atom_site_site_symmetry_order
_atom_site_calc_flag
_atom_site_refinement_flags_posn
_atom_site_refinement_flags_adp
_atom_site_refinement_flags_occupancy
_atom_site_disorder_assembly
_atom_site_disorder_group
Cd1 Cd 0.87470(7) 0.38366(7) 0.43981(7) 0.0416(3) Uani 0.75 1 d . . P . .
Co1 Co 0.87470(7) 0.38366(7) 0.43981(7) 0.0416(3) Uani 0.25 1 d . . P . .
Cd2 Cd 0.94795(8) 0.30742(8) 0.24465(7) 0.0411(3) Uani 0.75 1 d . . P . .
Co2 Co 0.94795(8) 0.30742(8) 0.24465(7) 0.0411(3) Uani 0.25 1 d . . P . .
Cd3 Cd 1.02476(8) 0.23044(7) 0.04314(7) 0.0449(3) Uani 0.75 1 d . . P . .
Co3 Co 1.02476(8) 0.23044(7) 0.04314(7) 0.0449(3) Uani 0.25 1 d . . P . .
O1 O 0.8169(7) 0.2712(6) 0.4833(7) 0.059(3) Uani 1 1 d . . . . .
O2 O 0.8320(6) 0.3346(6) 0.3590(6) 0.043(2) Uani 1 1 d . . . . .
O3 O 0.7378(6) -0.4888(6) 0.4594(6) 0.053(3) Uani 1 1 d . . . . .
O4 O 0.8684(6) -0.4717(6) 0.3907(8) 0.077(4) Uani 1 1 d . . . . .
O5 O 0.0533(6) 0.2481(6) 0.3089(6) 0.055(3) Uani 1 1 d . . . . .
O6 O 0.0252(7) 0.3442(7) 0.3818(8) 0.073(3) Uani 1 1 d . . . . .
O7 O 1.0615(6) 0.2802(6) 0.1306(6) 0.049(2) Uani 1 1 d . . . . .
O8 O 1.0753(9) 0.3470(8) 0.0084(6) 0.073(3) Uani 1 1 d . . . . .
O11 O 1.8716(7) 0.2781(7) 0.0960(8) 0.070(3) Uani 1 1 d . . . . .
O12 O 1.8425(7) 0.3624(8) 0.1816(7) 0.076(4) Uani 1 1 d . . . . .
O13 O 0.9387(8) 0.4464(6) 0.2305(6) 0.065(3) Uani 1 1 d . . . . .
H13A H 0.901610 0.489834 0.206732 0.078 Uiso 1 1 d R U . . .
H13B H 0.972501 0.455065 0.249122 0.078 Uiso 1 1 d R U . . .
O14 O 0.9583(9) 0.1694(7) 0.2600(8) 0.083(4) Uani 1 1 d . . . . .
H14A H 0.925015 0.160220 0.241176 0.100 Uiso 1 1 d R U . . .
H14B H 0.995836 0.126210 0.283516 0.100 Uiso 1 1 d R U . . .
N1 N 0.9025(9) 0.3605(8) 0.5571(8) 0.059(3) Uani 1 1 d . . . . .
C1 C 0.9420(12) 0.4103(12) 0.5672(12) 0.075(5) Uani 1 1 d . . . . .
H1 H 0.951260 0.458419 0.526782 0.090 Uiso 1 1 calc R U . . .
C2 C 0.9687(12) 0.3930(11) 0.6335(12) 0.070(5) Uani 1 1 d . . . . .
H2 H 0.998668 0.427305 0.637274 0.084 Uiso 1 1 calc R U . . .
C3 C 0.9529(10) 0.3270(10) 0.6945(9) 0.049(4) Uani 1 1 d . . . . .
C4 C 0.9105(15) 0.2781(14) 0.6832(11) 0.087(6) Uani 1 1 d . . . . .
H4 H 0.896964 0.232059 0.724064 0.104 Uiso 1 1 calc R U . . .
C5 C 0.8875(14) 0.2957(11) 0.6126(10) 0.074(5) Uani 1 1 d . . . . .
H5 H 0.861050 0.260166 0.605613 0.089 Uiso 1 1 calc R U . . .
C6 C 0.9838(7) 0.3042(7) 0.7673(5) 0.059(3) Uani 1 1 d G U . . .
C7 C 0.9851(7) 0.3709(5) 0.7956(5) 0.055(3) Uani 1 1 d G U . . .
H7 H 0.971833 0.429983 0.766225 0.066 Uiso 1 1 calc R U . . .
C8 C 1.0062(7) 0.3502(5) 0.8674(6) 0.059(4) Uani 1 1 d G U . . .
H8 H 1.007069 0.395323 0.886571 0.070 Uiso 1 1 calc R U . . .
N2 N 1.0258(7) 0.2629(6) 0.9109(5) 0.061(3) Uani 1 1 d G U . . .
C9 C 1.0245(8) 0.1962(5) 0.8826(6) 0.072(4) Uani 1 1 d G U . . .
H9 H 1.037765 0.137103 0.911995 0.087 Uiso 1 1 calc R U . . .
C10 C 1.0034(8) 0.2169(6) 0.8108(6) 0.073(4) Uani 1 1 d G U . . .
H10 H 1.002530 0.171761 0.791649 0.088 Uiso 1 1 calc R U . . .
C11 C 0.8059(8) 0.2802(9) 0.4167(9) 0.039(3) Uani 1 1 d . . . . .
C12 C 0.7552(8) 0.2278(8) 0.4107(8) 0.037(3) Uani 1 1 d . . . . .
C13 C 0.7488(10) 0.1540(9) 0.4632(10) 0.053(4) Uani 1 1 d . . . . .
H13 H 0.778896 0.133043 0.504046 0.064 Uiso 1 1 calc R U . . .
C14 C 0.7002(11) 0.1082(11) 0.4599(11) 0.065(5) Uani 1 1 d . . . . .
H14 H 0.697363 0.056621 0.498297 0.078 Uiso 1 1 calc R U . . .
C15 C 0.6554(9) 0.1356(10) 0.4017(10) 0.053(4) Uani 1 1 d . . . . .
C16 C 0.6599(9) 0.2162(9) 0.3461(11) 0.056(4) Uani 1 1 d . . . . .
H16 H 0.628599 0.239001 0.305885 0.067 Uiso 1 1 calc R U . . .
C17 C 0.7101(9) 0.2600(9) 0.3519(9) 0.045(3) Uani 1 1 d . . . . .
H17 H 0.713519 0.312470 0.315151 0.054 Uiso 1 1 calc R U . . .
C18 C 0.7816(9) -0.4370(9) 0.4211(10) 0.050(4) Uani 1 1 d . . . . .
C19 C 0.7315(9) -0.3405(9) 0.4137(11) 0.0587(18) Uani 1 1 d . . . . .
C20 C 0.6328(9) -0.2986(9) 0.4445(11) 0.0587(18) Uani 1 1 d . . . . .
H20 H 0.596346 -0.334186 0.472256 0.070 Uiso 1 1 calc R U . . .
C21 C 0.5907(9) -0.2083(9) 0.4346(10) 0.0587(18) Uani 1 1 d . . . . .
H21 H 0.524215 -0.182015 0.451501 0.070 Uiso 1 1 calc R U . . .
C22 C 0.6401(9) -0.1528(9) 0.4009(11) 0.0587(18) Uani 1 1 d . . . . .
C23 C 0.7377(9) -0.1922(9) 0.3670(11) 0.0587(18) Uani 1 1 d . . . . .
H23 H 0.772873 -0.155501 0.338693 0.070 Uiso 1 1 calc R U . . .
C24 C 0.7811(10) -0.2832(9) 0.3750(11) 0.0587(18) Uani 1 1 d . . . . .
H24 H 0.847081 -0.308756 0.353720 0.070 Uiso 1 1 calc R U . . .
C25 C 0.0775(9) 0.2766(9) 0.3484(9) 0.045(3) Uani 1 1 d . . . . .
C26 C 0.1793(9) 0.2294(9) 0.3559(9) 0.048(4) Uani 1 1 d . . . . .
C27 C 0.2108(10) 0.2584(11) 0.3972(11) 0.074(6) Uani 1 1 d . . . . .
H27 H 0.169993 0.310025 0.420156 0.088 Uiso 1 1 calc R U . . .
C28 C 0.3010(10) 0.2139(10) 0.4060(11) 0.069(5) Uani 1 1 d . . . . .
H28 H 0.320744 0.233048 0.437171 0.083 Uiso 1 1 calc R U . . .
C29 C 0.3618(9) 0.1422(10) 0.3699(10) 0.055(4) Uani 1 1 d . . . . .
C30 C 0.3296(10) 0.1098(10) 0.3294(10) 0.059(4) Uani 1 1 d . . . . .
H30 H 0.370682 0.058329 0.306280 0.071 Uiso 1 1 calc R U . . .
C31 C 0.2394(10) 0.1520(10) 0.3233(9) 0.055(4) Uani 1 1 d . . . . .
H31 H 0.217381 0.129163 0.297039 0.066 Uiso 1 1 calc R U . . .
C32 C 0.6021(8) 0.0882(9) 0.3952(10) 0.053(4) Uani 1 1 d . . . . .
C33 C 0.6430(9) -0.0046(9) 0.4022(10) 0.051(4) Uani 1 1 d . . . . .
H33 H 0.704111 -0.035868 0.409974 0.061 Uiso 1 1 calc R U . . .
C34 C 0.5938(9) -0.0536(8) 0.3978(9) 0.047(4) Uani 1 1 d . . . . .
C35 C 0.5029(9) -0.0049(10) 0.3870(11) 0.061(5) Uani 1 1 d . . . . .
H35 H 0.469753 -0.036333 0.383394 0.073 Uiso 1 1 calc R U . . .
C36 C 0.4596(9) 0.0881(9) 0.3813(10) 0.057(4) Uani 1 1 d . . . . .
C37 C 0.5103(9) 0.1339(9) 0.3837(10) 0.051(4) Uani 1 1 d . . . . .
H37 H 0.482762 0.197334 0.377515 0.062 Uiso 1 1 calc R U . . .
C38 C 1.0884(10) 0.3359(9) 0.0732(10) 0.048(4) Uani 1 1 d . . . . .
C39 C 1.1364(10) 0.3834(8) 0.0846(9) 0.046(3) Uani 1 1 d . . . . .
C40 C 1.1419(11) 0.4620(11) 0.0330(10) 0.060(4) Uani 1 1 d . . . . .
H40 H 1.112018 0.485473 -0.008191 0.072 Uiso 1 1 calc R U . . .
C41 C 1.1903(10) 0.5067(10) 0.0409(10) 0.054(4) Uani 1 1 d . . . . .
H41 H 1.192129 0.560433 0.005618 0.065 Uiso 1 1 calc R U . . .
C42 C 1.2367(9) 0.4728(8) 0.1006(9) 0.043(3) Uani 1 1 d . . . . .
C43 C 1.2324(11) 0.3941(10) 0.1510(9) 0.057(4) Uani 1 1 d . . . . .
H43 H 1.264809 0.369196 0.190620 0.068 Uiso 1 1 calc R U . . .
C44 C 1.1825(10) 0.3514(10) 0.1448(9) 0.049(4) Uani 1 1 d . . . . .
H44 H 1.178762 0.299158 0.181749 0.059 Uiso 1 1 calc R U . . .
O9 O 1.0420(15) 1.0913(13) 0.0462(16) 0.068(2) Uani 0.659(16) 1 d . U P A 1
O10 O 1.1495(12) 1.1009(9) 0.0624(12) 0.068(2) Uani 0.659(16) 1 d . U P A 1
C45 C 1.114(3) 1.0549(16) 0.064(3) 0.068(2) Uani 0.659(16) 1 d . U P A 1
C46 C 1.1611(13) 0.9499(8) 0.0672(13) 0.068(2) Uani 0.659(16) 1 d G U P A 1
C47 C 1.2332(13) 0.9061(9) 0.1053(13) 0.068(2) Uani 0.659(16) 1 d G U P A 1
H47 H 1.250897 0.939721 0.124747 0.081 Uiso 0.659(16) 1 calc R U P A 1
C48 C 1.2792(12) 0.8126(9) 0.1146(13) 0.068(2) Uani 0.659(16) 1 d G U P A 1
H48 H 1.327972 0.782988 0.140391 0.081 Uiso 0.659(16) 1 calc R U P A 1
C49 C 1.2530(14) 0.7629(8) 0.0858(15) 0.068(2) Uani 0.659(16) 1 d G U P A 1
C50 C 1.1809(16) 0.8067(11) 0.0477(15) 0.068(2) Uani 0.659(16) 1 d G U P A 1
H50 H 1.163168 0.773148 0.028254 0.081 Uiso 0.659(16) 1 calc R U P A 1
C51 C 1.1349(14) 0.9003(11) 0.0384(14) 0.068(2) Uani 0.659(16) 1 d G U P A 1
H51 H 1.086092 0.929881 0.012608 0.081 Uiso 0.659(16) 1 calc R U P A 1
O9A O 1.018(3) 1.082(3) 0.048(3) 0.072(3) Uani 0.341(16) 1 d . U P A 2
O10A O 1.099(2) 1.0818(18) 0.139(2) 0.072(3) Uani 0.341(16) 1 d . U P A 2
C45A C 1.102(5) 1.044(2) 0.071(6) 0.072(3) Uani 0.341(16) 1 d D U P A 2
C46A C 1.150(3) 0.9469(15) 0.096(3) 0.072(3) Uani 0.341(16) 1 d DG U P A 2
C47A C 1.199(3) 0.893(2) 0.153(2) 0.072(3) Uani 0.341(16) 1 d G U P A 2
H47A H 1.199392 0.918410 0.190920 0.086 Uiso 0.341(16) 1 calc R U P A 2
C48A C 1.248(3) 0.8005(19) 0.152(2) 0.072(3) Uani 0.341(16) 1 d G U P A 2
H48A H 1.281541 0.763886 0.190766 0.086 Uiso 0.341(16) 1 calc R U P A 2
C49A C 1.248(3) 0.7625(16) 0.096(3) 0.072(3) Uani 0.341(16) 1 d G U P A 2
C50A C 1.199(3) 0.817(2) 0.039(3) 0.072(3) Uani 0.341(16) 1 d G U P A 2
H50A H 1.198399 0.790998 0.000773 0.086 Uiso 0.341(16) 1 calc R U P A 2
C51A C 1.150(3) 0.909(2) 0.039(2) 0.072(3) Uani 0.341(16) 1 d G U P A 2
H51A H 1.116249 0.945523 0.000925 0.086 Uiso 0.341(16) 1 calc R U P A 2
C52 C 1.8185(10) 0.3353(9) 0.1408(8) 0.045(3) Uani 1 1 d . . . . .
C53 C 1.7172(10) 0.3819(9) 0.1379(8) 0.043(3) Uani 1 1 d . . . . .
C54 C 1.6783(10) 0.3474(9) 0.1056(10) 0.055(4) Uani 1 1 d . . . . .
H54 H 1.715796 0.292111 0.087610 0.066 Uiso 1 1 calc R U . . .
C55 C 1.5866(10) 0.3915(10) 0.0990(10) 0.058(4) Uani 1 1 d . . . . .
H55 H 1.561367 0.364620 0.079482 0.069 Uiso 1 1 calc R U . . .
C56 C 1.5316(9) 0.4748(8) 0.1210(8) 0.041(3) Uani 1 1 d . . . . .
C57 C 1.5715(10) 0.5047(9) 0.1569(10) 0.060(4) Uani 1 1 d . . . . .
H57 H 1.534392 0.558509 0.177304 0.072 Uiso 1 1 calc R U . . .
C58 C 1.6616(9) 0.4592(9) 0.1636(10) 0.055(4) Uani 1 1 d . . . . .
H58 H 1.685429 0.483375 0.187162 0.066 Uiso 1 1 calc R U . . .
C59 C 1.2905(10) 0.5206(9) 0.1043(9) 0.049(4) Uani 1 1 d . . . . .
C60 C 1.2515(10) 0.6131(10) 0.0963(10) 0.057(4) Uani 1 1 d . . . . .
H60 H 1.189629 0.643923 0.089944 0.069 Uiso 1 1 calc R U . . .
C61 C 1.2984(9) 0.6629(9) 0.0971(9) 0.049(4) Uani 1 1 d . . . . .
C62 C 1.3890(10) 0.6175(8) 0.1062(10) 0.052(4) Uani 1 1 d . . . . .
H62 H 1.422378 0.650270 0.106771 0.062 Uiso 1 1 calc R U . . .
C63 C 1.4320(9) 0.5235(9) 0.1146(8) 0.040(3) Uani 1 1 d . . . . .
C64 C 1.3803(9) 0.4763(8) 0.1129(9) 0.046(4) Uani 1 1 d . . . . .
H64 H 1.408470 0.413070 0.117694 0.056 Uiso 1 1 calc R U . . .
N3 N 0.3090(11) 0.9224(12) 0.2645(14) 0.076(7) Uani 0.5 1 d G U P . .
C65 C 0.3228(12) 0.8445(15) 0.3220(13) 0.111(12) Uani 0.5 1 d G U P . .
H65 H 0.271023 0.836903 0.363549 0.134 Uiso 0.5 1 calc R U P . .
C66 C 0.4132(15) 0.7780(12) 0.3182(13) 0.086(9) Uani 0.5 1 d G U P . .
H66 H 0.422551 0.725343 0.357190 0.103 Uiso 0.5 1 calc R U P . .
C67 C 0.4898(11) 0.7892(10) 0.2569(14) 0.062(6) Uani 0.5 1 d G U P . .
C68 C 0.4760(12) 0.8671(11) 0.1993(13) 0.073(8) Uani 0.5 1 d G U P . .
H68 H 0.527829 0.874702 0.157787 0.088 Uiso 0.5 1 calc R U P . .
C69 C 0.3856(15) 0.9336(10) 0.2031(13) 0.086(9) Uani 0.5 1 d G U P . .
H69 H 0.376301 0.986264 0.164144 0.103 Uiso 0.5 1 calc R U P . .
C70 C 0.5904(10) 0.7137(9) 0.2460(12) 0.050(5) Uani 0.5 1 d G U P . .
C71 C 0.6048(11) 0.6288(11) 0.2937(10) 0.052(6) Uani 0.5 1 d G U P . .
H71 H 0.553301 0.616521 0.332039 0.062 Uiso 0.5 1 calc R U P . .
C72 C 0.6955(13) 0.5619(8) 0.2846(11) 0.054(6) Uani 0.5 1 d G U P . .
H72 H 0.705305 0.504450 0.316825 0.065 Uiso 0.5 1 calc R U P . .
N4 N 0.7718(10) 0.5800(11) 0.2279(12) 0.059(6) Uani 0.5 1 d G U P . .
C73 C 0.7573(12) 0.6649(13) 0.1802(12) 0.082(9) Uani 0.5 1 d G U P . .
H73 H 0.808856 0.677158 0.141867 0.099 Uiso 0.5 1 calc R U P . .
C74 C 0.6666(14) 0.7318(10) 0.1893(13) 0.086(10) Uani 0.5 1 d G U P . .
H74 H 0.656851 0.789230 0.157079 0.103 Uiso 0.5 1 calc R U P . .
loop_
_atom_site_aniso_label
_atom_site_aniso_U_11
_atom_site_aniso_U_22
_atom_site_aniso_U_33
_atom_site_aniso_U_23
_atom_site_aniso_U_13
_atom_site_aniso_U_12
Cd1 0.0337(6) 0.0333(6) 0.0655(8) -0.0158(5) -0.0191(5) -0.0099(5)
Co1 0.0337(6) 0.0333(6) 0.0655(8) -0.0158(5) -0.0191(5) -0.0099(5)
Cd2 0.0334(6) 0.0400(6) 0.0581(7) -0.0134(5) -0.0214(5) -0.0105(5)
Co2 0.0334(6) 0.0400(6) 0.0581(7) -0.0134(5) -0.0214(5) -0.0105(5)
Cd3 0.0457(7) 0.0333(6) 0.0662(8) -0.0171(6) -0.0255(6) -0.0102(5)
Co3 0.0457(7) 0.0333(6) 0.0662(8) -0.0171(6) -0.0255(6) -0.0102(5)
O1 0.068(7) 0.043(6) 0.086(8) -0.012(5) -0.042(6) -0.023(5)
O2 0.039(5) 0.033(5) 0.067(7) -0.005(5) -0.017(5) -0.023(4)
O3 0.044(5) 0.044(6) 0.077(7) -0.012(5) -0.016(5) -0.021(5)
O4 0.028(5) 0.026(5) 0.168(12) -0.032(6) -0.008(6) -0.006(4)
O5 0.039(5) 0.054(6) 0.092(8) -0.022(6) -0.035(5) -0.015(5)
O6 0.027(5) 0.068(7) 0.128(10) -0.047(7) -0.037(6) 0.009(5)
O7 0.047(6) 0.043(5) 0.073(7) -0.015(5) -0.026(5) -0.019(5)
O8 0.121(10) 0.087(8) 0.051(7) 0.007(6) -0.053(7) -0.062(8)
O11 0.045(6) 0.059(7) 0.115(10) -0.044(7) -0.021(6) -0.010(5)
O12 0.051(6) 0.104(9) 0.078(8) -0.045(7) -0.035(6) 0.000(6)
O13 0.069(7) 0.041(6) 0.083(8) -0.015(5) -0.022(6) -0.016(5)
O14 0.085(9) 0.052(7) 0.119(11) -0.008(7) -0.033(8) -0.032(6)
N1 0.054(8) 0.044(7) 0.094(10) -0.011(7) -0.030(7) -0.024(6)
C1 0.075(12) 0.073(12) 0.099(14) 0.011(10) -0.031(11) -0.058(10)
C2 0.067(11) 0.061(10) 0.119(16) -0.015(10) -0.050(11) -0.036(9)
C3 0.039(8) 0.059(9) 0.060(10) -0.012(8) -0.017(7) -0.026(7)
C4 0.130(18) 0.097(15) 0.075(13) -0.010(11) -0.043(12) -0.069(14)
C5 0.129(16) 0.065(11) 0.076(12) 0.010(9) -0.059(12) -0.068(11)
C6 0.043(8) 0.074(8) 0.076(9) -0.029(6) -0.011(7) -0.030(7)
C7 0.041(7) 0.066(8) 0.068(9) -0.016(7) -0.021(7) -0.021(7)
C8 0.054(8) 0.061(7) 0.082(10) -0.022(7) -0.031(8) -0.023(7)
N2 0.070(8) 0.061(7) 0.075(8) -0.023(5) -0.023(7) -0.033(7)
C9 0.082(11) 0.059(8) 0.096(11) -0.024(7) -0.039(10) -0.025(8)
C10 0.085(11) 0.068(8) 0.087(11) -0.030(8) -0.034(9) -0.026(9)
C11 0.017(6) 0.050(8) 0.059(9) -0.023(7) -0.021(6) -0.003(6)
C12 0.025(6) 0.037(7) 0.064(9) -0.010(6) -0.013(6) -0.021(5)
C13 0.048(8) 0.050(9) 0.088(12) -0.005(8) -0.045(8) -0.024(7)
C14 0.058(10) 0.052(9) 0.088(13) 0.011(9) -0.048(9) -0.018(8)
C15 0.030(7) 0.049(9) 0.087(12) -0.021(8) -0.021(8) -0.011(6)
C16 0.033(7) 0.035(8) 0.112(13) -0.020(8) -0.036(8) -0.006(6)
C17 0.034(7) 0.034(7) 0.068(10) -0.018(7) -0.016(7) -0.006(6)
C18 0.034(8) 0.038(8) 0.092(12) -0.014(8) -0.025(8) -0.018(6)
C19 0.031(3) 0.032(3) 0.117(6) -0.017(3) -0.019(3) -0.013(2)
C20 0.031(3) 0.032(3) 0.117(6) -0.017(3) -0.019(3) -0.013(2)
C21 0.031(3) 0.032(3) 0.117(6) -0.017(3) -0.019(3) -0.013(2)
C22 0.031(3) 0.032(3) 0.117(6) -0.017(3) -0.019(3) -0.013(2)
C23 0.031(3) 0.032(3) 0.117(6) -0.017(3) -0.019(3) -0.013(2)
C24 0.031(3) 0.032(3) 0.117(6) -0.017(3) -0.019(3) -0.013(2)
C25 0.030(7) 0.040(8) 0.066(10) -0.004(7) -0.021(7) -0.011(6)
C26 0.023(6) 0.054(9) 0.058(9) -0.021(7) -0.021(6) 0.007(6)
C27 0.039(8) 0.069(11) 0.124(15) -0.056(11) -0.051(10) 0.018(8)
C28 0.040(8) 0.052(9) 0.118(15) -0.046(10) -0.040(9) 0.015(7)
C29 0.021(6) 0.048(8) 0.098(13) -0.020(8) -0.031(7) 0.002(6)
C30 0.035(8) 0.049(9) 0.097(13) -0.029(9) -0.031(8) 0.002(7)
C31 0.047(8) 0.051(9) 0.076(11) -0.014(8) -0.039(8) -0.006(7)
C32 0.017(6) 0.040(8) 0.113(13) -0.023(8) -0.018(7) -0.013(6)
C33 0.021(6) 0.034(7) 0.098(12) -0.021(7) -0.015(7) -0.006(6)
C34 0.027(7) 0.029(7) 0.086(11) -0.009(7) -0.018(7) -0.008(6)
C35 0.028(7) 0.051(9) 0.118(14) -0.022(9) -0.030(8) -0.014(7)
C36 0.022(7) 0.037(8) 0.099(13) -0.026(8) -0.028(8) 0.018(6)
C37 0.029(7) 0.033(7) 0.105(13) -0.025(8) -0.029(8) -0.005(6)
C38 0.047(8) 0.035(8) 0.067(11) -0.016(7) -0.015(8) -0.016(7)
C39 0.060(9) 0.031(7) 0.058(9) -0.010(6) -0.032(8) -0.014(6)
C40 0.058(10) 0.066(11) 0.067(11) -0.007(9) -0.027(8) -0.027(8)
C41 0.045(8) 0.044(8) 0.093(12) -0.007(8) -0.023(8) -0.032(7)
C42 0.035(7) 0.019(6) 0.079(10) -0.005(6) -0.019(7) -0.012(5)
C43 0.067(10) 0.066(10) 0.063(10) -0.004(8) -0.041(8) -0.032(8)
C44 0.049(8) 0.059(9) 0.064(10) -0.003(7) -0.026(7) -0.036(7)
O9 0.068(4) 0.027(3) 0.127(5) -0.012(4) -0.058(4) -0.010(3)
O10 0.068(4) 0.027(3) 0.127(5) -0.012(4) -0.058(4) -0.010(3)
C45 0.068(4) 0.027(3) 0.127(5) -0.012(4) -0.058(4) -0.010(3)
C46 0.068(4) 0.027(3) 0.127(5) -0.012(4) -0.058(4) -0.010(3)
C47 0.068(4) 0.027(3) 0.127(5) -0.012(4) -0.058(4) -0.010(3)
C48 0.068(4) 0.027(3) 0.127(5) -0.012(4) -0.058(4) -0.010(3)
C49 0.068(4) 0.027(3) 0.127(5) -0.012(4) -0.058(4) -0.010(3)
C50 0.068(4) 0.027(3) 0.127(5) -0.012(4) -0.058(4) -0.010(3)
C51 0.068(4) 0.027(3) 0.127(5) -0.012(4) -0.058(4) -0.010(3)
O9A 0.073(6) 0.030(5) 0.130(7) -0.016(5) -0.057(5) -0.009(5)
O10A 0.073(6) 0.030(5) 0.130(7) -0.016(5) -0.057(5) -0.009(5)
C45A 0.073(6) 0.030(5) 0.130(7) -0.016(5) -0.057(5) -0.009(5)
C46A 0.073(6) 0.030(5) 0.130(7) -0.016(5) -0.057(5) -0.009(5)
C47A 0.073(6) 0.030(5) 0.130(7) -0.016(5) -0.057(5) -0.009(5)
C48A 0.073(6) 0.030(5) 0.130(7) -0.016(5) -0.057(5) -0.009(5)
C49A 0.073(6) 0.030(5) 0.130(7) -0.016(5) -0.057(5) -0.009(5)
C50A 0.073(6) 0.030(5) 0.130(7) -0.016(5) -0.057(5) -0.009(5)
C51A 0.073(6) 0.030(5) 0.130(7) -0.016(5) -0.057(5) -0.009(5)
C52 0.044(8) 0.044(8) 0.054(9) -0.012(7) -0.032(7) -0.005(7)
C53 0.048(8) 0.040(8) 0.050(9) -0.009(6) -0.017(7) -0.020(6)
C54 0.050(9) 0.041(8) 0.090(12) -0.033(8) -0.011(8) -0.024(7)
C55 0.044(8) 0.067(10) 0.087(12) -0.026(9) -0.025(8) -0.028(8)
C56 0.040(7) 0.026(6) 0.067(10) -0.016(6) -0.015(7) -0.014(6)
C57 0.036(8) 0.039(8) 0.109(14) -0.044(9) -0.015(8) -0.002(6)
C58 0.042(8) 0.049(8) 0.096(12) -0.043(8) -0.039(8) 0.000(7)
C59 0.058(9) 0.035(7) 0.062(10) 0.001(7) -0.040(8) -0.012(7)
C60 0.045(8) 0.049(9) 0.086(12) -0.018(8) -0.034(8) -0.008(7)
C61 0.037(8) 0.043(8) 0.076(11) -0.016(7) -0.028(7) -0.009(6)
C62 0.049(8) 0.025(7) 0.099(12) -0.008(7) -0.039(8) -0.017(6)
C63 0.030(7) 0.040(7) 0.063(9) -0.004(6) -0.021(6) -0.021(6)
C64 0.031(7) 0.027(7) 0.078(11) -0.005(7) -0.019(7) -0.007(6)
N3 0.046(10) 0.058(12) 0.14(2) -0.063(12) -0.066(11) 0.031(11)
C65 0.064(13) 0.11(2) 0.12(2) -0.042(15) -0.022(15) 0.012(14)
C66 0.069(13) 0.053(15) 0.11(2) -0.022(13) -0.029(12) 0.012(12)
C67 0.049(9) 0.032(10) 0.129(19) -0.019(11) -0.052(10) -0.009(8)
C68 0.061(12) 0.015(10) 0.13(2) -0.031(10) -0.032(13) 0.009(9)
C69 0.076(15) 0.026(12) 0.15(2) -0.030(13) -0.062(14) 0.017(11)
C70 0.053(9) 0.030(9) 0.074(16) -0.009(9) -0.036(10) -0.008(8)
C71 0.062(11) 0.031(10) 0.070(16) -0.011(10) -0.031(11) -0.011(8)
C72 0.072(13) 0.032(10) 0.071(16) -0.014(10) -0.045(12) -0.007(8)
N4 0.054(11) 0.039(10) 0.102(17) -0.031(10) -0.044(10) -0.005(9)
C73 0.056(11) 0.072(15) 0.11(2) -0.001(14) -0.024(14) -0.028(11)
C74 0.065(12) 0.049(14) 0.13(2) 0.006(14) -0.024(14) -0.021(10)
loop_
_atom_type_symbol
_atom_type_description
_atom_type_scat_dispersion_real
_atom_type_scat_dispersion_imag
_atom_type_scat_source
C C 0.0033 0.0016 'International Tables Vol C Tables 4.2.6.8 and 6.1.1.4'
H H 0.0000 0.0000 'International Tables Vol C Tables 4.2.6.8 and 6.1.1.4'
N N 0.0061 0.0033 'International Tables Vol C Tables 4.2.6.8 and 6.1.1.4'
O O 0.0106 0.0060 'International Tables Vol C Tables 4.2.6.8 and 6.1.1.4'
Co Co 0.3494 0.9721 'International Tables Vol C Tables 4.2.6.8 and 6.1.1.4'
Cd Cd -0.8075 1.2024 'International Tables Vol C Tables 4.2.6.8 and 6.1.1.4'
loop_
_geom_angle_atom_site_label_1
_geom_angle_atom_site_label_2
_geom_angle_atom_site_label_3
_geom_angle
_geom_angle_site_symmetry_1
_geom_angle_site_symmetry_3
O6 Cd1 N1 90.6(4) 1_655 .
O6 Cd1 O4 85.1(4) 1_655 1_565
N1 Cd1 O4 100.2(5) . 1_565
O6 Cd1 O1 116.2(4) 1_655 .
N1 Cd1 O1 91.9(4) . .
O4 Cd1 O1 155.5(4) 1_565 .
O6 Cd1 O3 140.8(4) 1_655 1_565
N1 Cd1 O3 95.9(4) . 1_565
O4 Cd1 O3 55.7(3) 1_565 1_565
O1 Cd1 O3 102.2(3) . 1_565
O6 Cd1 O2 98.7(4) 1_655 .
N1 Cd1 O2 147.8(4) . .
O4 Cd1 O2 111.2(4) 1_565 .
O1 Cd1 O2 56.3(3) . .
O3 Cd1 O2 96.0(3) 1_565 .
O6 Cd1 C11 110.6(4) 1_655 .
N1 Cd1 C11 120.2(4) . .
O4 Cd1 C11 135.5(4) 1_565 .
O1 Cd1 C11 28.3(4) . .
O3 Cd1 C11 99.3(3) 1_565 .
O2 Cd1 C11 28.1(4) . .
O6 Cd1 C18 112.8(4) 1_655 1_565
N1 Cd1 C18 98.6(4) . 1_565
O4 Cd1 C18 27.7(4) 1_565 1_565
O1 Cd1 C18 129.6(4) . 1_565
O3 Cd1 C18 28.0(4) 1_565 1_565
O2 Cd1 C18 105.8(4) . 1_565
C11 Cd1 C18 120.1(4) . 1_565
O12 Cd2 O5 178.1(4) 1_455 1_655
O12 Cd2 O14 92.7(5) 1_455 .
O5 Cd2 O14 85.5(4) 1_655 .
O12 Cd2 O13 88.2(5) 1_455 .
O5 Cd2 O13 93.7(4) 1_655 .
O14 Cd2 O13 179.1(5) . .
O12 Cd2 O7 89.5(4) 1_455 .
O5 Cd2 O7 90.7(4) 1_655 .
O14 Cd2 O7 85.8(4) . .
O13 Cd2 O7 94.4(4) . .
O12 Cd2 O2 89.8(4) 1_455 .
O5 Cd2 O2 90.0(4) 1_655 .
O14 Cd2 O2 93.9(4) . .
O13 Cd2 O2 86.0(3) . .
O7 Cd2 O2 179.2(3) . .
O11 Cd3 O9 95.3(6) 1_455 1_545
O11 Cd3 O10 135.3(6) 1_455 1_545
O9 Cd3 O10 52.3(6) 1_545 1_545
O11 Cd3 O8 110.1(4) 1_455 .
O9 Cd3 O8 154.3(7) 1_545 .
O10 Cd3 O8 107.4(5) 1_545 .
O11 Cd3 N2 99(3) 1_455 1_554
O9 Cd3 N2 88(2) 1_545 1_554
O10 Cd3 N2 108(2) 1_545 1_554
O8 Cd3 N2 84(2) . 1_554
O11 Cd3 O7 96.5(4) 1_455 .
O9 Cd3 O7 127.6(6) 1_545 .
O10 Cd3 O7 85.4(5) 1_545 .
O8 Cd3 O7 55.1(3) . .
N2 Cd3 O7 139(2) 1_554 .
O11 Cd3 O9A 87.2(10) 1_455 1_545
O9 Cd3 O9A 8.6(11) 1_545 1_545
O10 Cd3 O9A 60.6(9) 1_545 1_545
O8 Cd3 O9A 161.4(12) . 1_545
N2 Cd3 O9A 86(2) 1_554 1_545
O7 Cd3 O9A 131.8(11) . 1_545
O11 Cd3 C45 115.4(9) 1_455 1_545
O9 Cd3 C45 26.6(8) 1_545 1_545
O10 Cd3 C45 25.9(7) 1_545 1_545
O8 Cd3 C45 132.5(8) . 1_545
N2 Cd3 C45 101(2) 1_554 1_545
O7 Cd3 C45 105.6(10) . 1_545
O11 Cd3 O10A 105.9(9) 1_455 1_545
O9 Cd3 O10A 52.3(9) 1_545 1_545
O10 Cd3 O10A 31.5(9) 1_545 1_545
O8 Cd3 O10A 120.5(7) . 1_545
N2 Cd3 O10A 134(2) 1_554 1_545
O7 Cd3 O10A 75.4(7) . 1_545
O9A Cd3 O10A 57.6(12) 1_545 1_545
C45 Cd3 O10A 33.1(13) 1_545 1_545
O11 Cd3 C38 107.1(4) 1_455 .
O9 Cd3 C38 147.0(6) 1_545 .
O10 Cd3 C38 95.4(5) 1_545 .
O8 Cd3 C38 27.2(4) . .
N2 Cd3 C38 111(2) 1_554 .
O7 Cd3 C38 28.0(4) . .
O9A Cd3 C38 154.4(9) 1_545 .
C45 Cd3 C38 120.6(8) 1_545 .
O10A Cd3 C38 97.4(7) 1_545 .
C11 O1 Cd1 92.5(9) . .
C11 O2 Cd2 129.6(8) . .
C11 O2 Cd1 90.5(7) . .
Cd2 O2 Cd1 111.0(3) . .
C18 O3 Cd1 92.3(8) . 1_545
C18 O4 Cd1 93.8(8) . 1_545
C25 O5 Cd2 134.4(9) . 1_455
C25 O6 Cd1 126.6(9) . 1_455
C38 O7 Cd2 128.8(9) . .
C38 O7 Cd3 89.7(8) . .
Cd2 O7 Cd3 114.6(4) . .
C38 O8 Cd3 95.1(9) . .
C52 O11 Cd3 130.6(9) . 1_655
C52 O12 Cd2 136.7(10) . 1_655
Cd2 O13 H13A 120.4 . .
Cd2 O13 H13B 119.6 . .
H13A O13 H13B 120.0 . .
Cd2 O14 H14A 119.2 . .
Cd2 O14 H14B 120.7 . .
H14A O14 H14B 120.0 . .
C5 N1 C1 119.6(15) . .
C5 N1 Cd1 120.3(10) . .
C1 N1 Cd1 119.9(11) . .
C2 C1 N1 122.1(16) . .
C2 C1 H1 119.0 . .
N1 C1 H1 119.0 . .
C1 C2 C3 120.9(14) . .
C1 C2 H2 119.5 . .
C3 C2 H2 119.5 . .
C2 C3 C4 115.7(15) . .
C2 C3 C6 122.5(12) . .
C4 C3 C6 121.7(14) . .
C3 C4 C5 121.5(17) . .
C3 C4 H4 119.2 . .
C5 C4 H4 119.2 . .
N1 C5 C4 120.0(14) . .
N1 C5 H5 120.0 . .
C4 C5 H5 120.0 . .
C7 C6 C10 120.0 . .
C7 C6 C3 120.6(9) . .
C10 C6 C3 119.2(8) . .
C6 C7 C8 120.0 . .
C6 C7 H7 120.0 . .
C8 C7 H7 120.0 . .
C7 C8 N2 120.0 . .
C7 C8 H8 120.0 . .
N2 C8 H8 120.0 . .
C8 N2 C9 120.0 . .
C8 N2 Cd3 121.9(5) . 1_556
C9 N2 Cd3 116.4(5) . 1_556
C10 C9 N2 120.0 . .
C10 C9 H9 120.0 . .
N2 C9 H9 120.0 . .
C9 C10 C6 120.0 . .
C9 C10 H10 120.0 . .
C6 C10 H10 120.0 . .
O2 C11 O1 120.6(12) . .
O2 C11 C12 121.6(12) . .
O1 C11 C12 117.7(13) . .
O2 C11 Cd1 61.5(6) . .
O1 C11 Cd1 59.2(7) . .
C12 C11 Cd1 172.7(9) . .
C13 C12 C17 119.4(11) . .
C13 C12 C11 122.0(12) . .
C17 C12 C11 118.6(12) . .
C12 C13 C14 122.3(13) . .
C12 C13 H13 118.8 . .
C14 C13 H13 118.8 . .
C13 C14 C15 121.2(15) . .
C13 C14 H14 119.4 . .
C15 C14 H14 119.4 . .
C14 C15 C16 116.8(13) . .
C14 C15 C32 123.4(15) . .
C16 C15 C32 119.8(13) . .
C17 C16 C15 119.8(14) . .
C17 C16 H16 120.1 . .
C15 C16 H16 120.1 . .
C12 C17 C16 120.5(14) . .
C12 C17 H17 119.8 . .
C16 C17 H17 119.8 . .
O4 C18 O3 118.1(12) . .
O4 C18 C19 121.9(12) . .
O3 C18 C19 120.0(12) . .
O4 C18 Cd1 58.5(7) . 1_545
O3 C18 Cd1 59.7(7) . 1_545
C19 C18 Cd1 178.0(12) . 1_545
C24 C19 C20 116.4(12) . .
C24 C19 C18 120.0(12) . .
C20 C19 C18 123.6(12) . .
C21 C20 C19 120.4(13) . .
C21 C20 H20 119.8 . .
C19 C20 H20 119.8 . .
C20 C21 C22 122.9(13) . .
C20 C21 H21 118.6 . .
C22 C21 H21 118.6 . .
C21 C22 C23 117.8(12) . .
C21 C22 C34 122.4(12) . .
C23 C22 C34 119.9(12) . .
C24 C23 C22 119.8(13) . .
C24 C23 H23 120.1 . .
C22 C23 H23 120.1 . .
C23 C24 C19 122.3(13) . .
C23 C24 H24 118.8 . .
C19 C24 H24 118.8 . .
O5 C25 O6 124.9(12) . .
O5 C25 C26 118.6(12) . .
O6 C25 C26 116.5(12) . .
C27 C26 C31 119.1(12) . .
C27 C26 C25 121.4(12) . .
C31 C26 C25 119.4(12) . .
C26 C27 C28 121.2(14) . .
C26 C27 H27 119.4 . .
C28 C27 H27 119.4 . .
C29 C28 C27 119.8(14) . .
C29 C28 H28 120.1 . .
C27 C28 H28 120.1 . .
C28 C29 C30 119.6(12) . .
C28 C29 C36 121.8(13) . .
C30 C29 C36 118.1(13) . .
C31 C30 C29 120.2(14) . .
C31 C30 H30 119.9 . .
C29 C30 H30 119.9 . .
C30 C31 C26 119.9(13) . .
C30 C31 H31 120.0 . .
C26 C31 H31 120.0 . .
C33 C32 C37 118.8(11) . .
C33 C32 C15 118.7(11) . .
C37 C32 C15 122.5(12) . .
C32 C33 C34 120.9(11) . .
C32 C33 H33 119.6 . .
C34 C33 H33 119.6 . .
C35 C34 C33 117.9(12) . .
C35 C34 C22 121.5(12) . .
C33 C34 C22 120.6(11) . .
C36 C35 C34 122.4(13) . .
C36 C35 H35 118.8 . .
C34 C35 H35 118.8 . .
C37 C36 C35 118.3(11) . .
C37 C36 C29 118.2(12) . .
C35 C36 C29 123.5(13) . .
C36 C37 C32 121.8(12) . .
C36 C37 H37 119.1 . .
C32 C37 H37 119.1 . .
O8 C38 O7 119.5(13) . .
O8 C38 C39 121.4(14) . .
O7 C38 C39 119.1(14) . .
O8 C38 Cd3 57.7(7) . .
O7 C38 Cd3 62.3(7) . .
C39 C38 Cd3 171.6(10) . .
C40 C39 C44 116.8(12) . .
C40 C39 C38 120.4(13) . .
C44 C39 C38 122.8(13) . .
C41 C40 C39 121.4(14) . .
C41 C40 H40 119.3 . .
C39 C40 H40 119.3 . .
C40 C41 C42 120.7(14) . .
C40 C41 H41 119.7 . .
C42 C41 H41 119.7 . .
C43 C42 C41 117.9(12) . .
C43 C42 C59 123.5(13) . .
C41 C42 C59 118.5(11) . .
C44 C43 C42 121.5(13) . .
C44 C43 H43 119.2 . .
C42 C43 H43 119.2 . .
C43 C44 C39 121.6(14) . .
C43 C44 H44 119.2 . .
C39 C44 H44 119.2 . .
C45 O9 Cd3 96.0(15) . 1_565
C45 O10 Cd3 94.7(17) . 1_565
O10 C45 O9 116(2) . .
O10 C45 C46 127(3) . .
O9 C45 C46 115(2) . .
O10 C45 Cd3 59.4(13) . 1_565
O9 C45 Cd3 57.4(13) . 1_565
C46 C45 Cd3 172(3) . 1_565
C47 C46 C51 120.0 . .
C47 C46 C45 113.8(17) . .
C51 C46 C45 126.2(17) . .
C48 C47 C46 120.0 . .
C48 C47 H47 120.0 . .
C46 C47 H47 120.0 . .
C47 C48 C49 120.0 . .
C47 C48 H48 120.0 . .
C49 C48 H48 120.0 . .
C50 C49 C48 120.0 . .
C50 C49 C61 118.6(13) . .
C48 C49 C61 121.4(13) . .
C51 C50 C49 120.0 . .
C51 C50 H50 120.0 . .
C49 C50 H50 120.0 . .
C50 C51 C46 120.0 . .
C50 C51 H51 120.0 . .
C46 C51 H51 120.0 . .
O9A C45A C46A 124(4) . .
O9A C45A O10A 114(5) . .
C46A C45A O10A 101(5) . .
C47A C46A C51A 120.0 . .
C47A C46A C45A 136(4) . .
C51A C46A C45A 104(4) . .
C46A C47A C48A 120.0 . .
C46A C47A H47A 120.0 . .
C48A C47A H47A 120.0 . .
C49A C48A C47A 120.0 . .
C49A C48A H48A 120.0 . .
C47A C48A H48A 120.0 . .
C48A C49A C50A 120.0 . .
C48A C49A C61 120(3) . .
C50A C49A C61 120(3) . .
C51A C50A C49A 120.0 . .
C51A C50A H50A 120.0 . .
C49A C50A H50A 120.0 . .
C50A C51A C46A 120.0 . .
C50A C51A H51A 120.0 . .
C46A C51A H51A 120.0 . .
O12 C52 O11 127.0(13) . .
O12 C52 C53 116.5(12) . .
O11 C52 C53 116.1(11) . .
C58 C53 C54 117.0(13) . .
C58 C53 C52 121.6(12) . .
C54 C53 C52 121.3(12) . .
C55 C54 C53 122.1(13) . .
C55 C54 H54 118.9 . .
C53 C54 H54 118.9 . .
C54 C55 C56 120.2(12) . .
C54 C55 H55 119.9 . .
C56 C55 H55 119.9 . .
C55 C56 C57 115.6(12) . .
C55 C56 C63 121.0(11) . .
C57 C56 C63 123.0(11) . .
C58 C57 C56 122.6(12) . .
C58 C57 H57 118.7 . .
C56 C57 H57 118.7 . .
C53 C58 C57 122.1(12) . .
C53 C58 H58 119.0 . .
C57 C58 H58 119.0 . .
C64 C59 C60 118.2(13) . .
C64 C59 C42 122.0(12) . .
C60 C59 C42 119.8(12) . .
C59 C60 C61 123.2(13) . .
C59 C60 H60 118.4 . .
C61 C60 H60 118.4 . .
C62 C61 C60 118.1(12) . .
C62 C61 C49 121.5(13) . .
C60 C61 C49 120.3(13) . .
C62 C61 C49A 121.7(19) . .
C60 C61 C49A 120.0(19) . .
C61 C62 C63 121.1(11) . .
C61 C62 H62 119.5 . .
C63 C62 H62 119.5 . .
C62 C63 C64 118.1(11) . .
C62 C63 C56 120.9(10) . .
C64 C63 C56 120.9(11) . .
C59 C64 C63 121.3(12) . .
C59 C64 H64 119.4 . .
C63 C64 H64 119.4 . .
C65 N3 C69 120.0 . .
N3 C65 C66 120.0 . .
N3 C65 H65 120.0 . .
C66 C65 H65 120.0 . .
C67 C66 C65 120.0 . .
C67 C66 H66 120.0 . .
C65 C66 H66 120.0 . .
C68 C67 C66 120.0 . .
C68 C67 C70 117.9(15) . .
C66 C67 C70 121.9(15) . .
C69 C68 C67 120.0 . .
C69 C68 H68 120.0 . .
C67 C68 H68 120.0 . .
C68 C69 N3 120.0 . .
C68 C69 H69 120.0 . .
N3 C69 H69 120.0 . .
C71 C70 C74 120.0 . .
C71 C70 C67 120.3(14) . .
C74 C70 C67 119.6(14) . .
C72 C71 C70 120.0 . .
C72 C71 H71 120.0 . .
C70 C71 H71 120.0 . .
C71 C72 N4 120.0 . .
C71 C72 H72 120.0 . .
N4 C72 H72 120.0 . .
C72 N4 C73 120.0 . .
C74 C73 N4 120.0 . .
C74 C73 H73 120.0 . .
N4 C73 H73 120.0 . .
C73 C74 C70 120.0 . .
C73 C74 H74 120.0 . .
C70 C74 H74 120.0 . .
loop_
_geom_bond_atom_site_label_1
_geom_bond_atom_site_label_2
_geom_bond_distance
_geom_bond_site_symmetry_2
Cd1 O6 2.169(10) 1_655
Cd1 N1 2.253(14) .
Cd1 O4 2.283(9) 1_565
Cd1 O1 2.286(9) .
Cd1 O3 2.309(9) 1_565
Cd1 O2 2.335(9) .
Cd1 C11 2.658(12) .
Cd1 C18 2.673(13) 1_565
Cd2 O12 2.132(10) 1_455
Cd2 O5 2.140(9) 1_655
Cd2 O14 2.185(11) .
Cd2 O13 2.211(10) .
Cd2 O7 2.253(10) .
Cd2 O2 2.272(10) .
Cd3 O11 2.185(10) 1_455
Cd3 O9 2.214(17) 1_545
Cd3 O10 2.256(14) 1_545
Cd3 O8 2.285(11) .
Cd3 N2 2.32(2) 1_554
Cd3 O7 2.384(9) .
Cd3 O9A 2.51(3) 1_545
Cd3 C45 2.61(3) 1_545
Cd3 O10A 2.63(3) 1_545
Cd3 C38 2.693(13) .
O1 C11 1.260(15) .
O2 C11 1.251(16) .
O3 C18 1.256(15) .
O4 C18 1.246(16) .
O5 C25 1.234(16) .
O6 C25 1.259(16) .
O7 C38 1.266(17) .
O8 C38 1.236(17) .
O11 C52 1.262(16) .
O12 C52 1.233(16) .
O13 H13A 0.8300 .
O13 H13B 0.8300 .
O14 H14A 0.8301 .
O14 H14B 0.8300 .
N1 C5 1.287(19) .
N1 C1 1.352(18) .
C1 C2 1.35(2) .
C1 H1 0.9400 .
C2 C3 1.35(2) .
C2 H2 0.9400 .
C3 C4 1.39(2) .
C3 C6 1.486(16) .
C4 C5 1.39(2) .
C4 H4 0.9400 .
C5 H5 0.9400 .
C6 C7 1.3900 .
C6 C10 1.3900 .
C7 C8 1.3900 .
C7 H7 0.9400 .
C8 N2 1.3900 .
C8 H8 0.9400 .
N2 C9 1.3900 .
C9 C10 1.3900 .
C9 H9 0.9400 .
C10 H10 0.9400 .
C11 C12 1.505(16) .
C12 C13 1.333(18) .
C12 C17 1.369(18) .
C13 C14 1.361(19) .
C13 H13 0.9400 .
C14 C15 1.36(2) .
C14 H14 0.9400 .
C15 C16 1.44(2) .
C15 C32 1.474(17) .
C16 C17 1.373(17) .
C16 H16 0.9400 .
C17 H17 0.9400 .
C18 C19 1.441(18) .
C19 C24 1.395(18) .
C19 C20 1.409(19) .
C20 C21 1.339(18) .
C20 H20 0.9400 .
C21 C22 1.363(18) .
C21 H21 0.9400 .
C22 C23 1.400(19) .
C22 C34 1.483(18) .
C23 C24 1.352(18) .
C23 H23 0.9400 .
C24 H24 0.9400 .
C25 C26 1.528(16) .
C26 C27 1.353(19) .
C26 C31 1.391(19) .
C27 C28 1.369(19) .
C27 H27 0.9400 .
C28 C29 1.35(2) .
C28 H28 0.9400 .
C29 C30 1.391(19) .
C29 C36 1.501(16) .
C30 C31 1.350(18) .
C30 H30 0.9400 .
C31 H31 0.9400 .
C32 C33 1.378(18) .
C32 C37 1.410(17) .
C33 C34 1.423(17) .
C33 H33 0.9400 .
C34 C35 1.394(18) .
C35 C36 1.385(19) .
C35 H35 0.9400 .
C36 C37 1.381(18) .
C37 H37 0.9400 .
C38 C39 1.444(18) .
C39 C40 1.39(2) .
C39 C44 1.403(18) .
C40 C41 1.379(19) .
C40 H40 0.9400 .
C41 C42 1.40(2) .
C41 H41 0.9400 .
C42 C43 1.374(19) .
C42 C59 1.463(18) .
C43 C44 1.358(17) .
C43 H43 0.9400 .
C44 H44 0.9400 .
O9 C45 1.17(3) .
O10 C45 1.14(3) .
C45 C46 1.57(3) .
C46 C47 1.3900 .
C46 C51 1.3900 .
C47 C48 1.3900 .
C47 H47 0.9400 .
C48 C49 1.3900 .
C48 H48 0.9400 .
C49 C50 1.3900 .
C49 C61 1.482(18) .
C50 C51 1.3900 .
C50 H50 0.9400 .
C51 H51 0.9400 .
O9A C45A 1.39(7) .
O10A C45A 1.56(10) .
C45A C46A 1.46(2) .
C46A C47A 1.3900 .
C46A C51A 1.3900 .
C47A C48A 1.3900 .
C47A H47A 0.9400 .
C48A C49A 1.3900 .
C48A H48A 0.9400 .
C49A C50A 1.3900 .
C49A C61 1.50(3) .
C50A C51A 1.3900 .
C50A H50A 0.9400 .
C51A H51A 0.9400 .
C52 C53 1.495(18) .
C53 C58 1.324(18) .
C53 C54 1.388(17) .
C54 C55 1.376(19) .
C54 H54 0.9400 .
C55 C56 1.378(19) .
C55 H55 0.9400 .
C56 C57 1.392(18) .
C56 C63 1.491(17) .
C57 C58 1.355(18) .
C57 H57 0.9400 .
C58 H58 0.9400 .
C59 C64 1.362(18) .
C59 C60 1.373(19) .
C60 C61 1.374(19) .
C60 H60 0.9400 .
C61 C62 1.376(18) .
C62 C63 1.394(17) .
C62 H62 0.9400 .
C63 C64 1.409(17) .
C64 H64 0.9400 .
N3 C65 1.3900 .
N3 C69 1.3900 .
C65 C66 1.3900 .
C65 H65 0.9400 .
C66 C67 1.3900 .
C66 H66 0.9400 .
C67 C68 1.3900 .
C67 C70 1.550(17) .
C68 C69 1.3900 .
C68 H68 0.9400 .
C69 H69 0.9400 .
C70 C71 1.3900 .
C70 C74 1.3900 .
C71 C72 1.3900 .
C71 H71 0.9400 .
C72 N4 1.3900 .
C72 H72 0.9400 .
N4 C73 1.3900 .
C73 C74 1.3900 .
C73 H73 0.9400 .
C74 H74 0.9400 .
