#------------------------------------------------------------------------------
#$Date: 2019-11-17 10:45:22 +0200 (Sun, 17 Nov 2019) $
#$Revision: 229414 $
#$URL: file:///home/coder/svn-repositories/cod/cif/7/04/72/7047216.cif $
#------------------------------------------------------------------------------
#
# This file is available in the Crystallography Open Database (COD),
# http://www.crystallography.net/
#
# All data on this site have been placed in the public domain by the
# contributors.
#
data_7047216
loop_
_publ_author_name
'Fernandes, Tamires S.'
'Melo, Wanessa D. C.'
'Kalinke, Lucas H. G.'
'Rabelo, Renato'
'Valdo, Ana K.'
'da Silva, Cameron C.'
'Martins, Felipe T.'
'Amor\'os, Pedro'
'Lloret, Francesc'
'Julve, Miguel'
'Cangussu, Danielle'
_publ_section_title
;
 2D and 3D mixed M<sup>II</sup>/Cu<sup>II</sup> metal-organic frameworks
 (M = Ca and Sr) with N,N'-2,6-pyridinebis(oxamate) and oxalate:
 preparation and magneto-structural study.
;
_journal_issue                   33
_journal_name_full
'Dalton transactions (Cambridge, England : 2003)'
_journal_page_first              11539
_journal_page_last               11553
_journal_paper_doi               10.1039/c8dt01686k
_journal_volume                  47
_journal_year                    2018
_chemical_formula_sum            'C25 H29.6 Ca2 Cu3 N9 O24.3'
_chemical_formula_weight         1115.79
_space_group_crystal_system      monoclinic
_space_group_IT_number           15
_space_group_name_Hall           '-C 2yc'
_space_group_name_H-M_alt        'C 1 2/c 1'
_symmetry_space_group_name_Hall  '-C 2yc'
_symmetry_space_group_name_H-M   'C 1 2/c 1'
_atom_sites_solution_hydrogens   mixed
_audit_creation_method           SHELXL-2014/7
_audit_update_record
;
2018-07-05 deposited with the CCDC.
2018-07-23 downloaded from the CCDC.
;
_cell_angle_alpha                90
_cell_angle_beta                 107.050(5)
_cell_angle_gamma                90
_cell_formula_units_Z            8
_cell_length_a                   25.7295(18)
_cell_length_b                   20.4448(18)
_cell_length_c                   20.9078(15)
_cell_measurement_reflns_used    9272
_cell_measurement_temperature    296(2)
_cell_measurement_theta_max      24.90
_cell_measurement_theta_min      2.24
_cell_volume                     10514.8(14)
_computing_cell_refinement       'SAINT (Bruker, 2002)'
_computing_data_collection       'Collect (Bruker AXS BV, 1997-2004)'
_computing_molecular_graphics
;
ORTEPIII (Farrugia, 2012), Mercury (Macrae, 2008)
;
_computing_publication_material
;
SHELXL-2014/7 (Sheldrick, 2015), WinGX (Farrugia, 2012)
;
_computing_structure_refinement  'SHELXL-2014 (Sheldrick, 2014)'
_computing_structure_solution    'SHELXL-2014 (Sheldrick, 2014)'
_diffrn_ambient_temperature      296(2)
_diffrn_measured_fraction_theta_full 0.999
_diffrn_measured_fraction_theta_max 0.970
_diffrn_measurement_device_type  'Bruker APEX-II CCD'
_diffrn_radiation_type           MoK\a
_diffrn_radiation_wavelength     0.71073
_diffrn_reflns_av_R_equivalents  0.0796
_diffrn_reflns_av_unetI/netI     0.0693
_diffrn_reflns_Laue_measured_fraction_full 0.999
_diffrn_reflns_Laue_measured_fraction_max 0.970
_diffrn_reflns_limit_h_max       31
_diffrn_reflns_limit_h_min       -27
_diffrn_reflns_limit_k_max       25
_diffrn_reflns_limit_k_min       -23
_diffrn_reflns_limit_l_max       18
_diffrn_reflns_limit_l_min       -25
_diffrn_reflns_number            52509
_diffrn_reflns_point_group_measured_fraction_full 0.999
_diffrn_reflns_point_group_measured_fraction_max 0.970
_diffrn_reflns_theta_full        25.000
_diffrn_reflns_theta_max         26.078
_diffrn_reflns_theta_min         1.656
_exptl_absorpt_coefficient_mu    1.475
_exptl_absorpt_correction_T_max  0.863
_exptl_absorpt_correction_T_min  0.708
_exptl_absorpt_correction_type   multi-scan
_exptl_absorpt_process_details
'Blessing, R. H. (1995) Acta Cryst., A51, 33-38'
_exptl_crystal_colour            green
_exptl_crystal_density_diffrn    1.410
_exptl_crystal_description       prism
_exptl_crystal_F_000             4512
_exptl_crystal_size_max          0.20
_exptl_crystal_size_mid          0.15
_exptl_crystal_size_min          0.10
_refine_diff_density_max         1.103
_refine_diff_density_min         -0.684
_refine_diff_density_rms         0.120
_refine_ls_extinction_method     none
_refine_ls_goodness_of_fit_ref   1.005
_refine_ls_hydrogen_treatment    constr
_refine_ls_matrix_type           full
_refine_ls_number_parameters     604
_refine_ls_number_reflns         10116
_refine_ls_number_restraints     0
_refine_ls_restrained_S_all      1.005
_refine_ls_R_factor_all          0.0914
_refine_ls_R_factor_gt           0.0577
_refine_ls_shift/su_max          0.001
_refine_ls_shift/su_mean         0.000
_refine_ls_structure_factor_coef Fsqd
_refine_ls_weighting_details
'w=1/[\s^2^(Fo^2^)+(0.1259P)^2^] where P=(Fo^2^+2Fc^2^)/3'
_refine_ls_weighting_scheme      calc
_refine_ls_wR_factor_gt          0.1730
_refine_ls_wR_factor_ref         0.1963
_reflns_Friedel_coverage         0.000
_reflns_number_gt                6724
_reflns_number_total             10116
_reflns_threshold_expression     'I > 2\s(I)'
_cod_data_source_file            c8dt01686k2.cif
_cod_data_source_block           Ca_Cu3L2L1
_cod_depositor_comments
'Adding full bibliography for 7047216--7047218.cif.'
_cod_original_formula_sum        'C25 H29.60 Ca2 Cu3 N9 O24.30'
_cod_database_code               7047216
_shelx_shelxl_version_number     2014/7
_shelx_space_group_comment
;
The symmetry employed for this shelxl refinement is uniquely defined
by the following loop, which should always be used as a source of
symmetry information in preference to the above space-group names.
They are only intended as comments.
;
_shelx_res_file
;

    shelx.res created by SHELXL-2014/7

TITL teste4 in C2/c
CELL  0.71073  25.7295  20.4448  20.9078   90.000  107.050   90.000
ZERR     8.00   0.0018   0.0018   0.0015    0.000    0.005    0.000
LATT   7
SYMM  - X,   Y, 1/2 - Z
SFAC  C    H    N    O    CA   CU
UNIT  200 237 72 194 16 24
MERG   2
OMIT     1   1   1
OMIT    -7   1   2
OMIT    -5   1   2
OMIT     2   2   1
OMIT    -4   2   2
OMIT     3   1   1
OMIT    -6   2   2
OMIT     1   1   5
OMIT    -1   1   4
FREE   Ca2 C15
FREE   Ca1 C7
FREE   Ca1 C6
EQIV $1 x, 1-y, 1/2+z
FREE   Ca1 C22_$1
FREE   Ca1 C23_$1
FMAP   2
PLAN   15
ACTA    50.00
HTAB    2.00000
BOND   $H
CONF
ABIN
L.S.    15
TEMP    23.00
WGHT    0.125900
FVAR       0.03605
CU3   6    0.266057    0.308844    0.759518    11.00000    0.05896    0.03141 =
         0.02247    0.00069    0.01619   -0.00553
CU2   6    0.318678    0.432751    0.826969    11.00000    0.03619    0.03494 =
         0.01820    0.00058    0.01094   -0.00001
CU1   6    0.369631    0.559603    0.848528    11.00000    0.04211    0.03618 =
         0.02080   -0.00491    0.01271    0.00173
O5    4    0.304667    0.637548    0.980451    11.00000    0.05462    0.04092 =
         0.02548   -0.01494    0.01438    0.00207
CA2   5    0.208752    0.334079    0.466415    11.00000    0.04780    0.03054 =
         0.02137    0.00154    0.01598   -0.00056
CA1   5    0.345951    0.323885    1.087876    11.00000    0.05292    0.04374 =
         0.02349    0.00072    0.01484   -0.01543
O14   4    0.353556    0.187700    0.895234    11.00000    0.11198    0.08579 =
         0.09516    0.06249    0.00438   -0.01118
O15   4    0.284260    0.240988    0.828078    11.00000    0.08667    0.04593 =
         0.03779    0.01146    0.01989   -0.01708
O6    4    0.364198    0.599366    0.931478    11.00000    0.03869    0.04909 =
         0.02385   -0.00893    0.00900    0.00076
N6    3    0.244578    0.377319    0.687846    11.00000    0.04934    0.02415 =
         0.02435   -0.00485    0.01402   -0.00264
O7    4    0.223435    0.387729    0.572885    11.00000    0.08957    0.03403 =
         0.01864    0.00023    0.01529    0.00629
O4    4    0.222641    0.591095    0.880566    11.00000    0.04077    0.05757 =
         0.03473   -0.02083    0.01390    0.00095
O8    4    0.256570    0.266153    0.564363    11.00000    0.05989    0.03688 =
         0.01827   -0.00358    0.01594    0.00315
O9    4    0.265403    0.249149    0.672298    11.00000    0.10429    0.03158 =
         0.02377   -0.00009    0.02453    0.00567
O5W   4    0.142313    0.309705    0.351037    11.00000    0.07967    0.08381 =
         0.06326   -0.01416    0.01320   -0.00849
AFIX   3
H5A   2    0.104859    0.318205    0.352378    11.00000   -1.50000
H5B   2    0.151759    0.295605    0.310078    11.00000   -1.50000
AFIX   0
N3    3    0.375830    0.426883    0.910673    11.00000    0.03328    0.03348 =
         0.01976    0.00257    0.01135   -0.00272
N8    3    0.377276    0.536553    0.759474    11.00000    0.05444    0.02232 =
         0.02130    0.00236    0.01916   -0.00047
O12   4    0.374447    0.655879    0.807540    11.00000    0.09168    0.03490 =
         0.02245   -0.00564    0.02196   -0.00545
O10   4    0.376397    0.582366    0.658095    11.00000    0.10659    0.03500 =
         0.03178    0.00148    0.03573    0.01623
N2    3    0.492812    0.588789    0.879889    11.00000    0.05075    0.05602 =
         0.06130    0.01471    0.01366   -0.01922
AFIX  93
H1N   2    0.464439    0.612156    0.862203    11.00000   -1.20000
H2N   2    0.524629    0.604188    0.883371    11.00000   -1.20000
AFIX   0
O11   4    0.357292    0.699440    0.705170    11.00000    0.07764    0.03238 =
         0.02691    0.00228    0.01947    0.01022
O1    4    0.388945    0.380208    1.016148    11.00000    0.04398    0.05902 =
         0.02684    0.01580    0.00645   -0.00883
O2    4    0.284203    0.346743    0.977365    11.00000    0.04809    0.08988 =
         0.03164    0.01337    0.01138   -0.02618
O3    4    0.272927    0.396517    0.878936    11.00000    0.03891    0.06106 =
         0.02511    0.00512    0.00941   -0.00861
N9    3    0.346928    0.318918    0.786418    11.00000    0.05831    0.02597 =
         0.03210    0.00228    0.01817   -0.00192
N7    3    0.366446    0.424999    0.768594    11.00000    0.04298    0.02710 =
         0.02204    0.00111    0.01503    0.00022
N5    3    0.285906    0.553475    0.829296    11.00000    0.03992    0.03204 =
         0.02495   -0.00843    0.01114    0.00293
N4    3    0.257141    0.468642    0.755609    11.00000    0.04006    0.02620 =
         0.01599   -0.00337    0.01029    0.00004
C15   1    0.238770    0.355710    0.625942    11.00000    0.05108    0.02953 =
         0.02215   -0.00073    0.01422   -0.00050
N1    3    0.436307    0.505432    0.895719    11.00000    0.03655    0.03955 =
         0.02632   -0.00318    0.01567   -0.00519
C6    1    0.361407    0.396647    0.958293    11.00000    0.03915    0.03728 =
         0.02171   -0.00015    0.00830   -0.00434
O3W   4    0.261884    0.355058    1.104372    11.00000    0.08702    0.21605 =
         0.08821    0.06157    0.05575    0.04039
AFIX   3
H3A   2    0.242834    0.385954    1.079618    11.00000   -1.50000
H3B   2    0.241864    0.335649    1.122748    11.00000   -1.50000
AFIX   0
O7W   4    0.188667    0.304868    0.757512    11.00000    0.06423    0.05331 =
         0.06368    0.02092    0.02370   -0.00279
AFIX   3
H7B   2    0.163707    0.318832    0.713736    11.00000   -1.50000
H7A   2    0.175250    0.283393    0.792233    11.00000   -1.50000
AFIX   0
C24   1    0.373646    0.271277    0.825675    11.00000    0.07134    0.04300 =
         0.04923    0.01111    0.01473    0.00945
O13   4    0.421842    0.258877    0.842684    11.00000    0.06907    0.09186 =
         0.13288    0.06604    0.02656    0.02202
C25   1    0.335019    0.229181    0.852478    11.00000    0.07712    0.04422 =
         0.04825    0.01729    0.00672   -0.00985
C21   1    0.376430    0.361704    0.757865    11.00000    0.05274    0.02616 =
         0.03540   -0.00062    0.02050   -0.00288
C13   1    0.270064    0.582779    0.877847    11.00000    0.03771    0.02803 =
         0.02784   -0.00169    0.01404    0.00258
C8    1    0.248242    0.530121    0.771348    11.00000    0.04022    0.03291 =
         0.02204   -0.00896    0.01421    0.00266
C12   1    0.228149    0.441289    0.697973    11.00000    0.03924    0.02727 =
         0.02617   -0.00120    0.01191    0.00052
C14   1    0.316287    0.608455    0.934352    11.00000    0.04015    0.02847 =
         0.02463    0.00090    0.01205    0.00432
C16   1    0.255139    0.284283    0.621249    11.00000    0.05150    0.03199 =
         0.02185   -0.00279    0.01305   -0.00800
O6W   4    0.133910    0.410111    0.451639    11.00000    0.09094    0.10745 =
         0.07494    0.01205    0.03068    0.04213
AFIX   3
H6A   2    0.112487    0.399774    0.483113    11.00000   -1.50000
H6B   2    0.108988    0.407672    0.404713    11.00000   -1.50000
AFIX   0
C5    1    0.430339    0.444101    0.918599    11.00000    0.03632    0.03387 =
         0.02003    0.00139    0.01093   -0.00220
C4    1    0.473612    0.403251    0.945011    11.00000    0.04469    0.04242 =
         0.03011    0.00246    0.01371    0.00472
AFIX  43
H3    2    0.468219    0.360951    0.958144    11.00000   -1.20000
AFIX   0
C3    1    0.524940    0.426161    0.951604    11.00000    0.03758    0.05503 =
         0.02963   -0.00425    0.00741    0.00489
AFIX  43
H2    2    0.554888    0.399763    0.970818    11.00000   -1.20000
AFIX   0
C2    1    0.532344    0.487306    0.930203    11.00000    0.03938    0.05953 =
         0.02734   -0.00863    0.01044   -0.00950
AFIX  43
H1    2    0.567156    0.502599    0.933965    11.00000   -1.20000
AFIX   0
C1    1    0.487296    0.526694    0.902642    11.00000    0.03952    0.04829 =
         0.02601   -0.00372    0.01569   -0.01194
C11   1    0.186213    0.475029    0.655290    11.00000    0.05991    0.04751 =
         0.02610   -0.01346   -0.00112    0.00562
AFIX  43
H9    2    0.165760    0.456036    0.615436    11.00000   -1.20000
AFIX   0
C10   1    0.174596    0.537281    0.671876    11.00000    0.06188    0.05656 =
         0.03595   -0.01106   -0.00769    0.01659
AFIX  43
H8    2    0.145338    0.559772    0.643715    11.00000   -1.20000
AFIX   0
C9    1    0.205924    0.566954    0.730023    11.00000    0.06035    0.04349 =
         0.03875   -0.01536   -0.00130    0.01844
AFIX  43
H7    2    0.199049    0.609512    0.741008    11.00000   -1.20000
AFIX   0
C22   1    0.374295    0.584763    0.716963    11.00000    0.05404    0.03697 =
         0.02051   -0.00325    0.01544    0.00330
C23   1    0.367747    0.652697    0.745660    11.00000    0.05896    0.03030 =
         0.03299   -0.00307    0.02381   -0.00240
C17   1    0.389603    0.473246    0.742165    11.00000    0.05280    0.02806 =
         0.02498    0.00095    0.01749   -0.00197
C18   1    0.425417    0.458186    0.705964    11.00000    0.06402    0.03690 =
         0.05471    0.00297    0.04144    0.00167
AFIX  43
H4    2    0.442529    0.491078    0.688928    11.00000   -1.20000
AFIX   0
C19   1    0.434867    0.393858    0.696021    11.00000    0.09203    0.04630 =
         0.06321   -0.00073    0.05742    0.01510
AFIX  43
H5    2    0.458551    0.382812    0.671622    11.00000   -1.20000
AFIX   0
C20   1    0.409716    0.344736    0.721720    11.00000    0.08789    0.02968 =
         0.06679   -0.00099    0.05138    0.00816
AFIX  43
H6    2    0.415750    0.300960    0.714108    11.00000   -1.50000
AFIX   0
C7    1    0.301131    0.378196    0.936445    11.00000    0.04751    0.05297 =
         0.01869    0.00415    0.01297   -0.01106
O1W   4    0.434936    0.279573    1.119267    11.00000    0.10640    0.11781 =
         0.12742    0.05392    0.05534    0.03564
AFIX   3
H1A   2    0.427885    0.232259    1.109931    11.00000   -1.50000
H1B   2    0.451791    0.280631    1.168543    11.00000   -1.50000
AFIX   0
O4W   4    0.140000    0.257076    0.485918    11.00000    0.05830    0.06002 =
         0.08959    0.02468    0.03105    0.00400
AFIX   3
H4A   2    0.155996    0.212309    0.488039    11.00000   -1.50000
H4B   2    0.132796    0.268308    0.527439    11.00000   -1.50000
AFIX   0
O8W   4    0.121537    0.271743    0.618615    10.60000    0.10686    0.05289 =
         0.06651    0.03369    0.04024    0.01660
AFIX   3
H8A   2    0.130367    0.223226    0.619359    10.60000   -1.50000
H8B   2    0.087467    0.296726    0.605159    10.60000   -1.50000
AFIX   0
O2W   4    0.313784    0.217834    1.068360    11.00000    0.16793    0.07460 =
         0.24345    0.03005   -0.08634   -0.07573
AFIX   3
H2A   2    0.292668    0.216396    1.020351    11.00000   -1.50000
H2B   2    0.292368    0.192096    1.092251    11.00000   -1.50000
AFIX   0
O10W  4    0.037611    0.255614    0.388946    10.40000    0.01351    0.09705 =
         0.11985   -0.00662   -0.00622    0.00705
AFIX   3
H10A  2    0.059730    0.237629    0.432563    10.40000   -1.50000
H10B  2   -0.001136    0.254743    0.387029    10.40000   -1.50000
AFIX   0
O12W  4    0.200464    0.463862    0.006779    10.40000    0.14941    0.04713 =
         0.20242    0.02740    0.11788    0.05318
AFIX   3
H12A  2    0.215539    0.443678   -0.017218    10.40000   -1.50000
H12B  2    0.180499    0.493658   -0.014978    10.40000   -1.50000
AFIX   0
O11W  4    0.159908    0.564752    0.345894    10.30000    0.05107    0.22267 =
         0.12739   -0.06190    0.05895   -0.05560
AFIX   3
H11A  2    0.197138    0.574598    0.346725    10.30000   -1.50000
H11B  2    0.131838    0.539299    0.328326    10.30000   -1.50000
AFIX   0
O9W   4    0.058624    0.392652    0.519550    10.30000    0.07781    0.22563 =
         0.24193   -0.05937    0.11215   -0.01665
AFIX   3
H9A   2    0.040898    0.426954    0.539265    10.30000   -1.50000
H9B   2    0.040221    0.352892    0.496220    10.30000   -1.50000
AFIX   0
O13W  4    0.100593    0.448335    0.310115    10.30000    0.26918    0.28464 =
         0.07668    0.11296    0.09025    0.22283
AFIX   3
H13A  2    0.085259    0.463411    0.263119    10.30000   -1.50000
H13B  2    0.134868    0.424883    0.314713    10.30000   -1.50000
AFIX   0
HKLF    4  1.0  1.00  0.00  0.00  0.00  1.00  0.00  0.00  0.00  1.00

REM  teste4 in C2/c
REM R1 =  0.0577 for    6724 Fo > 4sig(Fo)  and  0.0914 for all   10116 data
REM    604 parameters refined using      0 restraints

END

WGHT      0.1118      1.5085

REM Instructions for potential hydrogen bonds
HTAB O5W O10W
EQIV $2 -x+1/2, -y+1/2, -z+1
HTAB O5W O9_$2
HTAB N2 O12
EQIV $3 -x+1, -y+1, -z+2
HTAB N2 O1_$3
HTAB N2 O1W_$3
EQIV $4 x, y, z+1
HTAB O3W O12W_$4
EQIV $5 -x+1/2, -y+1/2, -z+2
HTAB O3W O14_$5
HTAB O3W O15_$5
HTAB O7W O8W
EQIV $6 -x+1/2, y-1/2, -z+3/2
HTAB O7W O11_$6
HTAB O6W O9W
HTAB O6W O13W
HTAB O4W O5_$6
HTAB O4W O8W
HTAB O8W O12_$6
HTAB O8W O9W
HTAB O2W O2_$5
HTAB O2W O3_$5
HTAB O10W O4W
EQIV $7 x-1/2, -y+1/2, z-1/2
HTAB O10W O13_$7
EQIV $8 x, -y+1, z-1/2
HTAB O12W O6W_$8
HTAB O11W O3_$8
HTAB O11W O13W
HTAB O13W O4_$8
HTAB O13W O5W

REM Highest difference peak  1.103,  deepest hole -0.684,  1-sigma level  0.120
Q1    1   0.5000  0.2823  1.2500  10.50000  0.05    1.10
Q2    1   0.0288  0.2612  0.4323  11.00000  0.05    0.96
Q3    1   0.0888  0.2510  0.5855  11.00000  0.05    0.95
Q4    1   0.3738  0.2268  1.0249  11.00000  0.05    0.89
Q5    1   0.3273  0.5579  0.8302  11.00000  0.05    0.88
Q6    1   0.0235  0.2560  0.3636  11.00000  0.05    0.74
Q7    1   0.1588  0.5944  0.3715  11.00000  0.05    0.73
Q8    1   0.0514  0.2585  0.3802  11.00000  0.05    0.73
Q9    1   0.1747  0.5422  0.3703  11.00000  0.05    0.72
Q10   1   0.4093  0.5593  0.8619  11.00000  0.05    0.70
Q11   1   0.4579  0.2444  1.1803  11.00000  0.05    0.70
Q12   1   0.1509  0.5424  0.3497  11.00000  0.05    0.69
Q13   1   0.4660  0.2561  1.1950  11.00000  0.05    0.68
Q14   1   0.2414  0.4840  0.0288  11.00000  0.05    0.67
Q15   1   0.0353  0.2951  0.4066  11.00000  0.05    0.67
;
_shelx_res_checksum              12728
_shelx_fab_file
;
    2    2    0    -96.81      0.00
    3    3    0     -5.56      0.00
    4    4    0     51.66      0.00
    5    5    0      4.34      0.00
    6    6    0     -5.43      0.00
    7    7    0      4.83      0.00
    8    8    0    -19.09      0.00
    9    9    0      1.89      0.00
   10   10    0      2.64      0.00
   11   11    0      4.52      0.00
   12   12    0      0.85      0.00
   13   13    0     -3.97      0.00
   14   14    0      0.07      0.00
   15   15    0      0.60      0.00
   16   16    0      2.23      0.00
   17   17    0     -0.29      0.00
   18   18    0     -5.71      0.00
   19   19    0      0.96      0.00
   18   20    0      1.32      0.00
   17   19    0     -2.33      0.00
   16   18    0     -1.79      0.00
   15   17    0      4.21      0.00
   14   16    0      1.65      0.00
   13   15    0     -5.72      0.00
   12   14    0     -0.06      0.00
   11   13    0     -1.90      0.00
   10   12    0     11.69      0.00
    9   11    0      1.47      0.00
    8   10    0    -14.94      0.00
    7    9    0    -13.35      0.00
    6    8    0      8.57      0.00
    5    7    0     42.36      0.00
    4    6    0     -5.77      0.00
    3    5    0    -59.09      0.00
    2    4    0    -34.77      0.00
    1    3    0    102.07      0.00
    0    2    0      9.96      0.00
    2    0    0    316.43      0.00
    3    1    0   -159.97      0.00
    4    2    0    -49.15      0.00
    5    3    0     37.24      0.00
    6    4    0     62.40      0.00
    7    5    0    -31.10      0.00
    8    6    0    -41.82      0.00
    9    7    0     21.32      0.00
   10    8    0      3.24      0.00
   11    9    0      7.59      0.00
   12   10    0     -6.76      0.00
   13   11    0     -0.74      0.00
   14   12    0     -1.62      0.00
   15   13    0      3.63      0.00
   16   14    0     -1.59      0.00
   17   15    0     -0.83      0.00
   18   16    0      0.26      0.00
   19   17    0      1.65      0.00
   20   18    0     -5.01      0.00
   16   20    0      1.21      0.00
   15   19    0     -0.08      0.00
   14   18    0     -1.09      0.00
   13   17    0      0.46      0.00
   12   16    0     -0.12      0.00
   11   15    0     -2.01      0.00
   10   14    0      5.90      0.00
    9   13    0     -1.69      0.00
    8   12    0     -2.60      0.00
    7   11    0     -6.67      0.00
    6   10    0     -0.80      0.00
    5    9    0     19.13      0.00
    4    8    0     16.13      0.00
    3    7    0    -24.94      0.00
    2    6    0    -48.32      0.00
    1    5    0     17.24      0.00
    0    4    0     24.77      0.00
    4    0    0    174.55      0.00
    5    1    0     38.40      0.00
    6    2    0    -21.74      0.00
    7    3    0    -42.12      0.00
    8    4    0      4.29      0.00
    9    5    0      1.23      0.00
   10    6    0     -2.89      0.00
   11    7    0     18.13      0.00
   12    8    0     -7.40      0.00
   13    9    0     -3.66      0.00
   14   10    0     -0.42      0.00
   15   11    0      2.35      0.00
   16   12    0     -1.94      0.00
   17   13    0      2.22      0.00
   18   14    0     -3.60      0.00
   19   15    0     -0.05      0.00
   20   16    0      1.91      0.00
   21   17    0      2.28      0.00
   15   21    0      2.79      0.00
   14   20    0      1.82      0.00
   13   19    0     -6.49      0.00
   12   18    0     -4.11      0.00
   11   17    0      4.35      0.00
   10   16    0      8.46      0.00
    9   15    0     -1.84      0.00
    8   14    0     -8.26      0.00
    7   13    0     -5.58      0.00
    6   12    0      9.18      0.00
    5   11    0     19.26      0.00
    4   10    0     -8.44      0.00
    3    9    0    -28.46      0.00
    2    8    0      9.26      0.00
    1    7    0      0.37      0.00
    0    6    0     17.27      0.00
    6    0    0     61.56      0.00
    7    1    0      1.37      0.00
    8    2    0    -43.80      0.00
    9    3    0    -25.67      0.00
   10    4    0     37.64      0.00
   11    5    0      6.53      0.00
   12    6    0    -11.15      0.00
   13    7    0     -3.06      0.00
   14    8    0      0.78      0.00
   15    9    0     -2.20      0.00
   16   10    0      4.17      0.00
   17   11    0      1.50      0.00
   18   12    0     -2.65      0.00
   19   13    0     -0.50      0.00
   20   14    0     -0.17      0.00
   21   15    0     -0.09      0.00
   22   16    0     -0.04      0.00
   14   22    0     -0.33      0.00
   13   21    0     -0.42      0.00
   12   20    0      0.75      0.00
   11   19    0     -3.37      0.00
   10   18    0      1.26      0.00
    9   17    0      2.82      0.00
    8   16    0      0.56      0.00
    7   15    0     -5.09      0.00
    6   14    0     -2.42      0.00
    5   13    0     10.92      0.00
    4   12    0      7.93      0.00
    3   11    0     -5.01      0.00
    2   10    0    -32.10      0.00
    1    9    0    -11.74      0.00
    0    8    0     76.22      0.00
    8    0    0    -27.92      0.00
    9    1    0     19.83      0.00
   10    2    0     19.33      0.00
   11    3    0    -17.71      0.00
   12    4    0      9.75      0.00
   13    5    0     -6.85      0.00
   14    6    0     -2.05      0.00
   15    7    0      0.67      0.00
   16    8    0      3.61      0.00
   17    9    0     -2.66      0.00
   18   10    0      1.31      0.00
   19   11    0      2.44      0.00
   20   12    0      0.02      0.00
   21   13    0     -2.94      0.00
   22   14    0      1.16      0.00
   23   15    0     -1.02      0.00
   12   22    0     -4.57      0.00
   11   21    0      2.04      0.00
   10   20    0      5.35      0.00
    9   19    0     -1.69      0.00
    8   18    0     -5.60      0.00
    7   17    0     -3.12      0.00
    6   16    0      4.67      0.00
    5   15    0      9.60      0.00
    4   14    0     -2.08      0.00
    3   13    0    -10.88      0.00
    2   12    0     -9.47      0.00
    1   11    0     20.72      0.00
    0   10    0      7.12      0.00
   10    0    0      6.92      0.00
   11    1    0     28.57      0.00
   12    2    0     -1.68      0.00
   13    3    0    -27.55      0.00
   14    4    0      3.90      0.00
   15    5    0      6.14      0.00
   16    6    0      3.55      0.00
   17    7    0      0.60      0.00
   18    8    0      0.24      0.00
   19    9    0     -3.02      0.00
   20   10    0     -0.39      0.00
   21   11    0      3.58      0.00
   22   12    0      2.03      0.00
   23   13    0     -5.10      0.00
   24   14    0      1.39      0.00
   11   23    0      7.44      0.00
   10   22    0     -1.24      0.00
    9   21    0      0.62      0.00
    8   20    0     -2.40      0.00
    7   19    0     -2.61      0.00
    6   18    0      1.10      0.00
    5   17    0      4.70      0.00
    4   16    0      3.35      0.00
    3   15    0     -4.39      0.00
    2   14    0     -9.54      0.00
    1   13    0      2.41      0.00
    0   12    0     15.70      0.00
   12    0    0    -26.72      0.00
   13    1    0      5.52      0.00
   14    2    0      1.32      0.00
   15    3    0     -4.33      0.00
   16    4    0      3.97      0.00
   17    5    0      1.25      0.00
   18    6    0      1.23      0.00
   19    7    0     -1.17      0.00
   20    8    0      1.78      0.00
   21    9    0     -0.79      0.00
   22   10    0     -0.47      0.00
   23   11    0      0.61      0.00
   24   12    0      1.55      0.00
   25   13    0     -3.05      0.00
    9   23    0      4.51      0.00
    8   22    0     -3.24      0.00
    7   21    0     -1.97      0.00
    6   20    0      0.12      0.00
    5   19    0      5.69      0.00
    4   18    0      2.82      0.00
    3   17    0     -6.60      0.00
    2   16    0     -2.17      0.00
    1   15    0      1.49      0.00
    0   14    0     10.03      0.00
   14    0    0    -18.36      0.00
   15    1    0     12.98      0.00
   16    2    0      3.46      0.00
   17    3    0     -0.96      0.00
   18    4    0     -1.32      0.00
   19    5    0     -3.05      0.00
   20    6    0      1.99      0.00
   21    7    0      1.07      0.00
   22    8    0      2.00      0.00
   23    9    0     -0.96      0.00
   24   10    0     -0.83      0.00
   25   11    0      1.17      0.00
   26   12    0      1.08      0.00
    8   24    0     -3.02      0.00
    7   23    0     -1.74      0.00
    6   22    0      3.49      0.00
    5   21    0      3.70      0.00
    4   20    0     -3.26      0.00
    3   19    0      0.09      0.00
    2   18    0     -1.55      0.00
    1   17    0     -2.56      0.00
    0   16    0     11.17      0.00
   16    0    0     -6.03      0.00
   17    1    0      5.34      0.00
   18    2    0     -7.20      0.00
   19    3    0      1.47      0.00
   20    4    0     -0.35      0.00
   21    5    0      0.81      0.00
   22    6    0      0.96      0.00
   23    7    0      0.65      0.00
   24    8    0      0.10      0.00
   25    9    0      0.81      0.00
   26   10    0      0.25      0.00
   27   11    0      1.53      0.00
    6   24    0      3.51      0.00
    5   23    0      0.16      0.00
    4   22    0      1.28      0.00
    3   21    0     -1.85      0.00
    2   20    0     -9.49      0.00
    1   19    0      7.84      0.00
    0   18    0      6.98      0.00
   18    0    0     -8.84      0.00
   19    1    0      0.69      0.00
   20    2    0     -5.42      0.00
   21    3    0      6.05      0.00
   22    4    0      1.73      0.00
   23    5    0     -3.00      0.00
   24    6    0     -0.09      0.00
   25    7    0      3.09      0.00
   26    8    0      1.43      0.00
   27    9    0     -0.82      0.00
    4   24    0      3.96      0.00
    3   23    0     -3.45      0.00
    2   22    0     -4.78      0.00
    1   21    0      4.60      0.00
    0   20    0     -3.24      0.00
   20    0    0     -1.27      0.00
   21    1    0      2.88      0.00
   22    2    0     -2.90      0.00
   23    3    0     -2.18      0.00
   24    4    0      5.89      0.00
   25    5    0     -2.99      0.00
   26    6    0      0.42      0.00
   27    7    0      1.10      0.00
   28    8    0      0.32      0.00
    3   25    0     -6.79      0.00
    2   24    0     -0.41      0.00
    1   23    0      3.89      0.00
    0   22    0      0.11      0.00
   22    0    0     -1.41      0.00
   23    1    0     -0.40      0.00
   24    2    0     -1.71      0.00
   25    3    0     -2.18      0.00
   26    4    0      7.66      0.00
   27    5    0     -5.93      0.00
   28    6    0     -1.73      0.00
    1   25    0     -4.04      0.00
    0   24    0      2.88      0.00
   24    0    0     -6.64      0.00
   25    1    0      4.81      0.00
   26    2    0     -1.47      0.00
   27    3    0     -2.31      0.00
   28    4    0      3.11      0.00
   29    5    0     -3.23      0.00
   26    0    0     -5.87      0.00
   27    1    0      1.33      0.00
   28    2    0     -5.52      0.00
   29    3    0      4.31      0.00
   28    0    0     -4.53      0.00
   29    1    0      2.92      0.00
   30    2    0     -2.47      0.00
   30    0    0      1.01      0.00
   26   12    1      7.32      0.00
   25   13    1     -2.16      0.00
   24   14    1     -0.72      0.00
   23   15    1     -3.49      0.00
   22   16    1      3.95      0.00
   21   17    1      3.76      0.00
   20   18    1     -6.05      0.00
   19   19    1      0.29      0.00
   18   20    1      0.96      0.00
   28    8    1      3.00      0.00
   27    9    1     -0.97      0.00
   26   10    1     -1.48      0.00
   25   11    1     -5.06      0.00
   24   12    1      9.76      0.00
   23   13    1      0.00      0.00
   22   14    1     -1.18      0.00
   21   15    1     -3.02      0.00
   20   16    1      0.50      0.00
   19   17    1      4.26      0.00
   18   18    1     -1.69      0.00
   17   19    1     -0.75      0.00
   16   20    1     -0.08      0.00
   15   21    1     -2.80      0.00
   14   22    1      1.35      0.00
   29    5    1      0.24      0.00
   28    6    1      0.52      0.00
   27    7    1     -3.35      0.00
   26    8    1      1.73      0.00
   25    9    1      2.50      0.00
   24   10    1      0.05      0.00
   23   11    1     -7.91      0.00
   22   12    1      8.94      0.00
   21   13    1      1.98      0.00
   20   14    1     -1.41      0.00
   19   15    1     -2.23      0.00
   18   16    1     -0.84      0.00
   17   17    1      2.30      0.00
   16   18    1      2.05      0.00
   15   19    1     -2.31      0.00
   14   20    1     -0.88      0.00
   13   21    1     -1.25      0.00
   12   22    1     -0.86      0.00
   11   23    1     -0.50      0.00
   29    3    1      0.13      0.00
   28    4    1     -0.01      0.00
   27    5    1     -1.43      0.00
   26    6    1      1.16      0.00
   25    7    1     -1.87      0.00
   24    8    1     -0.15      0.00
   23    9    1      3.93      0.00
   22   10    1      1.15      0.00
   21   11    1     -7.46      0.00
   20   12    1      4.48      0.00
   19   13    1      2.26      0.00
   18   14    1     -0.50      0.00
   17   15    1      1.16      0.00
   16   16    1     -1.62      0.00
   15   17    1     -1.39      0.00
   14   18    1      2.91      0.00
   13   19    1     -0.55      0.00
   12   20    1     -1.75      0.00
   11   21    1      0.67      0.00
   10   22    1     -1.80      0.00
    9   23    1      2.18      0.00
    8   24    1      2.48      0.00
   29    1    1      4.33      0.00
   28    2    1     -4.66      0.00
   27    3    1     -0.43      0.00
   26    4    1     -1.24      0.00
   25    5    1     -0.40      0.00
   24    6    1      1.60      0.00
   23    7    1     -0.01      0.00
   22    8    1     -2.55      0.00
   21    9    1      3.85      0.00
   20   10    1      0.35      0.00
   19   11    1     -5.14      0.00
   18   12    1      1.10      0.00
   17   13    1      5.71      0.00
   16   14    1     -1.89      0.00
   15   15    1      0.83      0.00
   14   16    1     -2.09      0.00
   13   17    1      0.24      0.00
   12   18    1      2.59      0.00
   11   19    1      0.19      0.00
   10   20    1     -2.64      0.00
    9   21    1      3.68      0.00
    8   22    1     -2.23      0.00
    7   23    1      0.53      0.00
    6   24    1     -0.49      0.00
   27    1    1      3.91      0.00
   26    2    1     -3.54      0.00
   25    3    1     -1.50      0.00
   24    4    1     -0.03      0.00
   23    5    1      0.14      0.00
   22    6    1      0.97      0.00
   21    7    1     -0.04      0.00
   20    8    1     -4.58      0.00
   19    9    1      2.27      0.00
   18   10    1      4.22      0.00
   17   11    1     -1.22      0.00
   16   12    1     -3.41      0.00
   15   13    1      4.10      0.00
   14   14    1     -1.90      0.00
   13   15    1      1.72      0.00
   12   16    1     -0.49      0.00
   11   17    1      0.30      0.00
   10   18    1      0.80      0.00
    9   19    1      2.14      0.00
    8   20    1     -3.03      0.00
    7   21    1      1.16      0.00
    6   22    1     -4.49      0.00
    5   23    1      3.35      0.00
    4   24    1      1.11      0.00
   25    1    1      1.00      0.00
   24    2    1      0.78      0.00
   23    3    1     -2.27      0.00
   22    4    1     -0.57      0.00
   21    5    1     -2.23      0.00
   20    6    1     -0.11      0.00
   19    7    1      3.16      0.00
   18    8    1     -2.20      0.00
   17    9    1     -0.65      0.00
   16   10    1      4.62      0.00
   15   11    1     -2.50      0.00
   14   12    1     -3.57      0.00
   13   13    1      3.85      0.00
   12   14    1      2.10      0.00
   11   15    1     -3.15      0.00
   10   16    1     -0.46      0.00
    9   17    1      1.46      0.00
    8   18    1      0.42      0.00
    7   19    1      1.02      0.00
    6   20    1     -2.54      0.00
    5   21    1      2.31      0.00
    4   22    1     -4.41      0.00
    3   23    1      7.40      0.00
    2   24    1      0.20      0.00
    1   25    1     -1.56      0.00
   23    1    1     -0.02      0.00
   22    2    1     -0.92      0.00
   21    3    1     -2.28      0.00
   20    4    1     -0.54      0.00
   19    5    1     -1.43      0.00
   18    6    1     -1.59      0.00
   17    7    1      7.81      0.00
   16    8    1     -2.17      0.00
   15    9    1     -5.98      0.00
   14   10    1      1.38      0.00
   13   11    1      1.99      0.00
   12   12    1      0.77      0.00
   11   13    1     -1.38      0.00
   10   14    1      3.76      0.00
    9   15    1     -6.07      0.00
    8   16    1      0.95      0.00
    7   17    1      1.37      0.00
    6   18    1      0.98      0.00
    5   19    1      0.24      0.00
    4   20    1      2.08      0.00
    3   21    1      4.20      0.00
    2   22    1     -9.56      0.00
    1   23    1      6.40      0.00
    0   24    1      1.26      0.00
   -1   25    1     -2.12      0.00
   21    1    1      3.06      0.00
   20    2    1     -4.65      0.00
   19    3    1     -2.76      0.00
   18    4    1      2.57      0.00
   17    5    1      0.71      0.00
   16    6    1     -4.63      0.00
   15    7    1      2.06      0.00
   14    8    1      0.72      0.00
   13    9    1      1.37      0.00
   12   10    1     -1.31      0.00
   11   11    1     -0.73      0.00
   10   12    1     -2.49      0.00
    9   13    1     -0.81      0.00
    8   14    1     10.23      0.00
    7   15    1     -6.53      0.00
    6   16    1     -3.52      0.00
    5   17    1      0.68      0.00
    4   18    1      6.54      0.00
    3   19    1     -2.89      0.00
    2   20    1      0.26      0.00
    1   21    1      4.46      0.00
    0   22    1     -8.90      0.00
   -1   23    1      4.87      0.00
   -2   24    1      2.41      0.00
   -3   25    1     -2.18      0.00
   19    1    1      5.58      0.00
   18    2    1     -2.06      0.00
   17    3    1     -3.84      0.00
   16    4    1      1.68      0.00
   15    5    1     -6.51      0.00
   14    6    1      4.00      0.00
   13    7    1     -0.80      0.00
   12    8    1      5.00      0.00
   11    9    1      0.53      0.00
   10   10    1     -6.27      0.00
    9   11    1      0.72      0.00
    8   12    1     -2.79      0.00
    7   13    1      1.11      0.00
    6   14    1      8.03      0.00
    5   15    1     -3.35      0.00
    4   16    1     -5.52      0.00
    3   17    1     -0.40      0.00
    2   18    1      5.23      0.00
    1   19    1     -4.32      0.00
    0   20    1      1.10      0.00
   -1   21    1      6.57      0.00
   -2   22    1     -5.29      0.00
   -3   23    1      0.81      0.00
   -4   24    1      1.76      0.00
   17    1    1      5.76      0.00
   16    2    1     -3.92      0.00
   15    3    1     -0.39      0.00
   14    4    1      2.93      0.00
   13    5    1    -10.95      0.00
   12    6    1     12.86      0.00
   11    7    1     -8.85      0.00
   10    8    1      3.53      0.00
    9    9    1     -0.70      0.00
    8   10    1     -1.01      0.00
    7   11    1      4.14      0.00
    6   12    1     -8.58      0.00
    5   13    1     -0.26      0.00
    4   14    1      3.99      0.00
    3   15    1      5.04      0.00
    2   16    1     -8.37      0.00
    1   17    1     -0.30      0.00
    0   18    1      2.44      0.00
   -1   19    1      1.67      0.00
   -2   20    1      0.57      0.00
   -3   21    1      0.81      0.00
   -4   22    1     -1.62      0.00
   -5   23    1      2.33      0.00
   -6   24    1      1.50      0.00
   15    1    1     10.30      0.00
   14    2    1    -12.35      0.00
   13    3    1     10.15      0.00
   12    4    1      1.04      0.00
   11    5    1    -11.79      0.00
   10    6    1      7.63      0.00
    9    7    1    -12.52      0.00
    8    8    1     11.63      0.00
    7    9    1      1.87      0.00
    6   10    1     -2.89      0.00
    5   11    1     -2.21      0.00
    4   12    1     -5.29      0.00
    3   13    1      3.62      0.00
    2   14    1     -1.90      0.00
    1   15    1      6.91      0.00
    0   16    1     -7.46      0.00
   -1   17    1      5.13      0.00
   -2   18    1     -2.17      0.00
   -3   19    1      0.52      0.00
   -4   20    1      0.39      0.00
   -5   21    1     -2.10      0.00
   -6   22    1      3.28      0.00
   -7   23    1      0.80      0.00
   -8   24    1      0.35      0.00
   13    1    1     17.96      0.00
   12    2    1    -14.80      0.00
   11    3    1     11.30      0.00
   10    4    1    -13.75      0.00
    9    5    1      3.17      0.00
    8    6    1     11.64      0.00
    7    7    1    -14.79      0.00
    6    8    1      5.85      0.00
    5    9    1      1.60      0.00
    4   10    1      0.63      0.00
    3   11    1     -7.42      0.00
    2   12    1      2.31      0.00
    1   13    1      2.53      0.00
    0   14    1     -5.38      0.00
   -1   15    1      5.40      0.00
   -2   16    1     -3.91      0.00
   -3   17    1      3.12      0.00
   -4   18    1     -3.98      0.00
   -5   19    1      1.25      0.00
   -6   20    1      4.88      0.00
   -7   21    1     -5.60      0.00
   -8   22    1      1.63      0.00
   -9   23    1     -2.43      0.00
   11    1    1     13.78      0.00
   10    2    1     -3.42      0.00
    9    3    1     12.86      0.00
    8    4    1    -23.03      0.00
    7    5    1     16.81      0.00
    6    6    1      4.80      0.00
    5    7    1    -15.15      0.00
    4    8    1     -2.96      0.00
    3    9    1      8.22      0.00
    2   10    1      3.97      0.00
    1   11    1    -12.37      0.00
    0   12    1      6.02      0.00
   -1   13    1      1.09      0.00
   -2   14    1     -6.14      0.00
   -3   15    1      0.75      0.00
   -4   16    1      1.29      0.00
   -5   17    1      1.37      0.00
   -6   18    1     -0.45      0.00
   -7   19    1      1.56      0.00
   -8   20    1      0.83      0.00
   -9   21    1     -5.68      0.00
  -10   22    1      4.02      0.00
  -11   23    1     -2.85      0.00
    9    1    1      1.12      0.00
    8    2    1     24.32      0.00
    7    3    1      1.80      0.00
    6    4    1    -26.62      0.00
    5    5    1     17.74      0.00
    4    6    1     -8.69      0.00
    3    7    1     -0.29      0.00
    2    8    1     -3.98      0.00
    1    9    1     11.24      0.00
    0   10    1     -2.97      0.00
   -1   11    1    -11.78      0.00
   -2   12    1      6.94      0.00
   -3   13    1      2.79      0.00
   -4   14    1     -5.88      0.00
   -5   15    1     -2.23      0.00
   -6   16    1      6.48      0.00
   -7   17    1     -0.04      0.00
   -8   18    1     -2.76      0.00
   -9   19    1      2.48      0.00
  -10   20    1     -2.43      0.00
  -11   21    1      0.14      0.00
  -12   22    1      3.27      0.00
    7    1    1    -17.43      0.00
    6    2    1     59.08      0.00
    5    3    1    -37.21      0.00
    4    4    1    -10.66      0.00
    3    5    1     28.22      0.00
    2    6    1    -15.24      0.00
    1    7    1     -0.21      0.00
    0    8    1     -1.82      0.00
   -1    9    1     11.31      0.00
   -2   10    1     -8.98      0.00
   -3   11    1     -8.30      0.00
   -4   12    1      6.69      0.00
   -5   13    1      6.13      0.00
   -6   14    1     -4.90      0.00
   -7   15    1     -7.26      0.00
   -8   16    1      5.94      0.00
   -9   17    1      0.58      0.00
  -10   18    1     -1.17      0.00
  -11   19    1      4.35      0.00
  -12   20    1     -5.74      0.00
  -13   21    1     -0.01      0.00
  -14   22    1      2.66      0.00
    5    1    1    -38.10      0.00
    4    2    1     90.77      0.00
    3    3    1    -56.34      0.00
    2    4    1      3.94      0.00
    1    5    1     29.36      0.00
    0    6    1    -18.26      0.00
   -1    7    1    -10.60      0.00
   -2    8    1      2.67      0.00
   -3    9    1     11.12      0.00
   -4   10    1     -7.24      0.00
   -5   11    1     -3.70      0.00
   -6   12    1      1.77      0.00
   -7   13    1      3.53      0.00
   -8   14    1     -2.27      0.00
   -9   15    1     -6.94      0.00
  -10   16    1      5.10      0.00
  -11   17    1      0.66      0.00
  -12   18    1      1.75      0.00
  -13   19    1      1.00      0.00
  -14   20    1     -4.94      0.00
  -15   21    1     -0.90      0.00
    1    3    1    -30.24      0.00
    0    4    1    -10.45      0.00
   -1    5    1     22.08      0.00
   -2    6    1    -19.19      0.00
   -3    7    1     -4.03      0.00
   -4    8    1      6.22      0.00
   -5    9    1      9.78      0.00
   -6   10    1    -10.64      0.00
   -7   11    1     -1.75      0.00
   -8   12    1     -0.46      0.00
   -9   13    1      4.51      0.00
  -10   14    1      0.13      0.00
  -11   15    1     -4.18      0.00
  -12   16    1      1.00      0.00
  -13   17    1     -0.75      0.00
  -14   18    1      4.02      0.00
  -15   19    1     -0.10      0.00
  -16   20    1     -2.38      0.00
    0    2    1     -7.51      0.00
   -1    3    1      9.30      0.00
   -2    4    1    -16.85      0.00
   -3    5    1     24.61      0.00
   -4    6    1    -19.23      0.00
   -5    7    1      2.28      0.00
   -6    8    1      2.88      0.00
   -7    9    1      6.27      0.00
   -8   10    1    -11.33      0.00
   -9   11    1      1.63      0.00
  -10   12    1      2.21      0.00
  -11   13    1      3.08      0.00
  -12   14    1     -3.58      0.00
  -13   15    1     -0.61      0.00
  -14   16    1     -0.22      0.00
  -15   17    1      0.71      0.00
  -16   18    1      1.65      0.00
  -17   19    1     -0.42      0.00
  -18   20    1     -1.82      0.00
   -2    2    1    -47.38      0.00
   -3    3    1     15.56      0.00
   -4    4    1      4.20      0.00
   -5    5    1     12.71      0.00
   -6    6    1    -13.82      0.00
   -7    7    1     -9.35      0.00
   -8    8    1      6.32      0.00
   -9    9    1      7.72      0.00
  -10   10    1     -3.92      0.00
  -11   11    1     -4.78      0.00
  -12   12    1      1.36      0.00
  -13   13    1      2.59      0.00
  -14   14    1     -2.11      0.00
  -15   15    1      0.88      0.00
  -16   16    1     -0.73      0.00
  -17   17    1      0.44      0.00
  -18   18    1     -0.27      0.00
  -19   19    1      0.50      0.00
   -3    1    1     69.59      0.00
   -4    2    1    -13.42      0.00
   -5    3    1    -14.18      0.00
   -6    4    1     19.89      0.00
   -7    5    1    -15.37      0.00
   -8    6    1      8.76      0.00
   -9    7    1    -12.74      0.00
  -10    8    1      9.18      0.00
  -11    9    1      0.20      0.00
  -12   10    1     -0.83      0.00
  -13   11    1     -5.29      0.00
  -14   12    1      4.47      0.00
  -15   13    1      2.26      0.00
  -16   14    1     -2.26      0.00
  -17   15    1     -2.59      0.00
  -18   16    1      2.62      0.00
  -19   17    1     -0.24      0.00
  -20   18    1      1.07      0.00
   -5    1    1     31.02      0.00
   -6    2    1     11.91      0.00
   -7    3    1    -24.52      0.00
   -8    4    1     24.79      0.00
   -9    5    1    -21.07      0.00
  -10    6    1     16.94      0.00
  -11    7    1    -10.29      0.00
  -12    8    1      2.11      0.00
  -13    9    1     -0.55      0.00
  -14   10    1      1.91      0.00
  -15   11    1     -0.91      0.00
  -16   12    1      1.57      0.00
  -17   13    1      0.66      0.00
  -18   14    1     -0.25      0.00
  -19   15    1     -3.33      0.00
  -20   16    1      4.28      0.00
  -21   17    1     -2.64      0.00
   -7    1    1     17.07      0.00
   -8    2    1     -3.30      0.00
   -9    3    1     -0.83      0.00
  -10    4    1     16.66      0.00
  -11    5    1    -13.69      0.00
  -12    6    1      2.05      0.00
  -13    7    1     -1.10      0.00
  -14    8    1      3.26      0.00
  -15    9    1      1.85      0.00
  -16   10    1     -3.12      0.00
  -17   11    1     -2.09      0.00
  -18   12    1      2.39      0.00
  -19   13    1      3.53      0.00
  -20   14    1      0.41      0.00
  -21   15    1     -3.75      0.00
  -22   16    1      1.77      0.00
   -9    1    1     29.20      0.00
  -10    2    1    -17.91      0.00
  -11    3    1      5.70      0.00
  -12    4    1      0.72      0.00
  -13    5    1     -2.10      0.00
  -14    6    1      0.28      0.00
  -15    7    1      2.95      0.00
  -16    8    1      0.07      0.00
  -17    9    1     -2.16      0.00
  -18   10    1     -0.09      0.00
  -19   11    1     -1.08      0.00
  -20   12    1      2.92      0.00
  -21   13    1      1.33      0.00
  -22   14    1      0.26      0.00
  -23   15    1     -0.92      0.00
  -11    1    1     23.19      0.00
  -12    2    1     -9.52      0.00
  -13    3    1      1.32      0.00
  -14    4    1     -3.09      0.00
  -15    5    1      1.63      0.00
  -16    6    1     -2.12      0.00
  -17    7    1      1.64      0.00
  -18    8    1      0.43      0.00
  -19    9    1     -0.09      0.00
  -20   10    1      3.10      0.00
  -21   11    1     -3.75      0.00
  -22   12    1      1.04      0.00
  -23   13    1      0.24      0.00
  -24   14    1      2.68      0.00
  -13    1    1      4.10      0.00
  -14    2    1      3.66      0.00
  -15    3    1      4.03      0.00
  -16    4    1     -6.52      0.00
  -17    5    1     -1.39      0.00
  -18    6    1     -5.04      0.00
  -19    7    1      7.77      0.00
  -20    8    1      0.38      0.00
  -21    9    1     -0.70      0.00
  -22   10    1      1.21      0.00
  -23   11    1     -2.22      0.00
  -24   12    1      1.12      0.00
  -25   13    1     -0.81      0.00
  -15    1    1     -4.56      0.00
  -16    2    1      1.52      0.00
  -17    3    1      4.04      0.00
  -18    4    1     -4.16      0.00
  -19    5    1      2.18      0.00
  -20    6    1     -4.97      0.00
  -21    7    1      5.19      0.00
  -22    8    1     -3.01      0.00
  -23    9    1     -0.01      0.00
  -24   10    1      2.77      0.00
  -25   11    1      0.57      0.00
  -26   12    1     -0.37      0.00
  -17    1    1     -5.55      0.00
  -18    2    1      0.54      0.00
  -19    3    1      1.71      0.00
  -20    4    1      0.27      0.00
  -21    5    1     -0.37      0.00
  -22    6    1     -3.80      0.00
  -23    7    1      2.02      0.00
  -24    8    1     -1.42      0.00
  -25    9    1     -0.10      0.00
  -26   10    1      2.73      0.00
  -27   11    1      1.10      0.00
  -19    1    1     -5.37      0.00
  -20    2    1      2.83      0.00
  -21    3    1     -1.57      0.00
  -22    4    1     -1.55      0.00
  -23    5    1     -2.01      0.00
  -24    6    1     -0.42      0.00
  -25    7    1      2.76      0.00
  -26    8    1      0.34      0.00
  -27    9    1     -2.61      0.00
  -28   10    1      1.23      0.00
  -21    1    1     -5.15      0.00
  -22    2    1      0.20      0.00
  -23    3    1      0.15      0.00
  -24    4    1     -2.35      0.00
  -25    5    1      1.32      0.00
  -26    6    1     -1.06      0.00
  -27    7    1      0.51      0.00
  -28    8    1      1.62      0.00
  -23    1    1     -4.05      0.00
  -24    2    1      0.04      0.00
  -25    3    1      2.81      0.00
  -26    4    1     -2.99      0.00
  -27    5    1      1.65      0.00
  -28    6    1     -3.06      0.00
  -29    7    1     -1.21      0.00
  -25    1    1     -4.25      0.00
  -26    2    1      2.02      0.00
  -27    3    1      0.81      0.00
  -28    4    1     -3.94      0.00
  -29    5    1      1.98      0.00
  -27    1    1     -5.55      0.00
  -28    2    1      1.75      0.00
  -29    3    1     -0.20      0.00
  -30    4    1     -1.36      0.00
  -29    1    1     -4.47      0.00
  -30    2    1      1.62      0.00
  -17   21    1     -2.75      0.00
   24   14    2      2.09      0.00
   23   15    2     -2.08      0.00
   22   16    2     -0.12      0.00
   21   17    2      2.93      0.00
   20   18    2      2.45      0.00
   19   19    2     -5.91      0.00
   27    9    2      0.33      0.00
   26   10    2     -0.61      0.00
   25   11    2     -4.99      0.00
   24   12    2      1.96      0.00
   23   13    2     -1.13      0.00
   22   14    2      3.56      0.00
   21   15    2      0.56      0.00
   20   16    2     -2.41      0.00
   19   17    2      2.59      0.00
   18   18    2      0.39      0.00
   17   19    2     -4.48      0.00
   16   20    2      6.68      0.00
   15   21    2     -2.69      0.00
   14   22    2      1.44      0.00
   28    6    2     -2.09      0.00
   27    7    2     -5.85      0.00
   26    8    2      6.24      0.00
   25    9    2     -0.33      0.00
   24   10    2      1.64      0.00
   23   11    2     -6.91      0.00
   22   12    2      2.20      0.00
   21   13    2     -1.03      0.00
   20   14    2      3.60      0.00
   19   15    2      1.29      0.00
   18   16    2     -4.40      0.00
   17   17    2      2.01      0.00
   16   18    2      2.80      0.00
   15   19    2     -0.31      0.00
   14   20    2      2.91      0.00
   13   21    2     -4.91      0.00
   12   22    2      0.41      0.00
   11   23    2      2.54      0.00
   29    3    2      2.84      0.00
   28    4    2     -5.45      0.00
   27    5    2     -0.62      0.00
   26    6    2      3.33      0.00
   25    7    2     -5.90      0.00
   24    8    2      2.60      0.00
   23    9    2     -0.97      0.00
   22   10    2      3.85      0.00
   21   11    2     -5.10      0.00
   20   12    2      2.49      0.00
   19   13    2     -3.26      0.00
   18   14    2      1.28      0.00
   17   15    2      0.98      0.00
   16   16    2      1.83      0.00
   15   17    2      2.16      0.00
   14   18    2     -0.95      0.00
   13   19    2     -4.83      0.00
   12   20    2      3.50      0.00
   11   21    2      1.80      0.00
   10   22    2     -0.52      0.00
    9   23    2     -1.05      0.00
    8   24    2     -3.02      0.00
   29    1    2     -0.19      0.00
   28    2    2     -0.70      0.00
   27    3    2      1.82      0.00
   26    4    2     -1.30      0.00
   25    5    2     -0.04      0.00
   24    6    2      1.49      0.00
   23    7    2     -4.50      0.00
   22    8    2      0.05      0.00
   21    9    2      2.30      0.00
   20   10    2      1.51      0.00
   19   11    2     -5.24      0.00
   18   12    2      2.33      0.00
   17   13    2     -2.46      0.00
   16   14    2      3.51      0.00
   15   15    2     -0.45      0.00
   14   16    2      0.98      0.00
   13   17    2     -3.69      0.00
   12   18    2      1.19      0.00
   11   19    2     -0.07      0.00
   10   20    2      4.56      0.00
    9   21    2     -1.70      0.00
    8   22    2     -2.44      0.00
    7   23    2     -0.36      0.00
    6   24    2      1.59      0.00
   28    0    2     -2.24      0.00
   27    1    2     -1.74      0.00
   26    2    2      3.23      0.00
   25    3    2      3.21      0.00
   24    4    2     -4.00      0.00
   23    5    2     -1.07      0.00
   22    6    2      1.70      0.00
   21    7    2      0.07      0.00
   20    8    2     -4.44      0.00
   19    9    2      3.19      0.00
   18   10    2      0.23      0.00
   17   11    2     -3.88      0.00
   16   12    2      2.24      0.00
   15   13    2      1.27      0.00
   14   14    2     -0.49      0.00
   13   15    2     -5.96      0.00
   12   16    2      3.09      0.00
   11   17    2      2.14      0.00
   10   18    2      3.62      0.00
    9   19    2     -3.84      0.00
    8   20    2      0.21      0.00
    7   21    2     -2.27      0.00
    6   22    2      5.86      0.00
    5   23    2     -1.30      0.00
    4   24    2     -0.54      0.00
   26    0    2      3.38      0.00
   25    1    2     -1.95      0.00
   24    2    2      2.31      0.00
   23    3    2      1.74      0.00
   22    4    2     -2.53      0.00
   21    5    2     -0.94      0.00
   20    6    2      0.62      0.00
   19    7    2     -0.38      0.00
   18    8    2     -3.34      0.00
   17    9    2      2.11      0.00
   16   10    2      3.10      0.00
   15   11    2     -2.72      0.00
   14   12    2     -3.16      0.00
   13   13    2      1.58      0.00
   12   14    2     -2.19      0.00
   11   15    2      1.05      0.00
   10   16    2      7.01      0.00
    9   17    2     -2.28      0.00
    8   18    2     -5.41      0.00
    7   19    2     -1.91      0.00
    6   20    2      7.91      0.00
    5   21    2     -2.45      0.00
    4   22    2      1.80      0.00
    3   23    2     -6.65      0.00
    2   24    2      1.85      0.00
    1   25    2      3.92      0.00
   24    0    2      4.87      0.00
   23    1    2     -6.47      0.00
   22    2    2      5.30      0.00
   21    3    2      3.87      0.00
   20    4    2     -1.59      0.00
   19    5    2     -6.74      0.00
   18    6    2      1.51      0.00
   17    7    2     -0.26      0.00
   16    8    2      3.61      0.00
   15    9    2     -2.78      0.00
   14   10    2      3.72      0.00
   13   11    2     -5.92      0.00
   12   12    2     -4.14      0.00
   11   13    2      9.98      0.00
   10   14    2     -0.03      0.00
    9   15    2     -4.12      0.00
    8   16    2     -2.14      0.00
    7   17    2     -0.47      0.00
    6   18    2      1.24      0.00
    5   19    2      1.38      0.00
    4   20    2      1.30      0.00
    3   21    2     -5.58      0.00
    2   22    2      1.62      0.00
    1   23    2      0.00      0.00
    0   24    2      4.27      0.00
   -1   25    2      1.76      0.00
   22    0    2      9.10      0.00
   21    1    2     -2.31      0.00
   20    2    2      0.72      0.00
   19    3    2     -0.08      0.00
   18    4    2     -0.12      0.00
   17    5    2     -0.50      0.00
   16    6    2      0.74      0.00
   15    7    2     -3.16      0.00
   14    8    2      3.36      0.00
   13    9    2     -6.49      0.00
   12   10    2      5.38      0.00
   11   11    2      1.54      0.00
   10   12    2     -1.07      0.00
    9   13    2      2.23      0.00
    8   14    2     -8.27      0.00
    7   15    2     -3.02      0.00
    6   16    2      5.30      0.00
    5   17    2      4.91      0.00
    4   18    2     -2.47      0.00
    3   19    2     -4.53      0.00
    2   20    2     -1.75      0.00
    1   21    2      4.31      0.00
    0   22    2      3.86      0.00
   -1   23    2     -2.80      0.00
   -2   24    2     -1.00      0.00
   20    0    2      1.60      0.00
   19    1    2     -2.39      0.00
   18    2    2     -1.33      0.00
   17    3    2      6.67      0.00
   16    4    2     -1.80      0.00
   15    5    2      6.08      0.00
   14    6    2     -9.09      0.00
   13    7    2     -5.24      0.00
   12    8    2      2.50      0.00
   11    9    2      4.98      0.00
   10   10    2      6.48      0.00
    9   11    2     -1.57      0.00
    8   12    2    -11.75      0.00
    7   13    2     -2.43      0.00
    6   14    2      6.62      0.00
    5   15    2      5.67      0.00
    4   16    2     -1.26      0.00
    3   17    2     -7.10      0.00
    2   18    2     -1.17      0.00
    1   19    2      5.01      0.00
    0   20    2      1.30      0.00
   -1   21    2     -2.42      0.00
   -2   22    2     -0.94      0.00
   -3   23    2     -2.80      0.00
   -4   24    2      3.33      0.00
   18    0    2     -1.43      0.00
   17    1    2      2.18      0.00
   16    2    2      4.07      0.00
   15    3    2      5.59      0.00
   14    4    2     -9.91      0.00
   13    5    2      4.07      0.00
   12    6    2     -9.71      0.00
   11    7    2      9.74      0.00
   10    8    2      8.25      0.00
    9    9    2     -4.85      0.00
    8   10    2    -14.79      0.00
    7   11    2      5.40      0.00
    6   12    2      9.49      0.00
    5   13    2      0.06      0.00
    4   14    2     -0.78      0.00
    3   15    2     -7.69      0.00
    2   16    2     -0.51      0.00
    1   17    2      0.63      0.00
    0   18    2      4.45      0.00
   -1   19    2     -0.23      0.00
   -2   20    2     -2.63      0.00
   -3   21    2     -6.94      0.00
   -4   22    2      5.75      0.00
   -5   23    2      1.47      0.00
   -6   24    2      1.67      0.00
   16    0    2      5.15      0.00
   15    1    2     -0.99      0.00
   14    2    2      0.46      0.00
   13    3    2    -10.03      0.00
   12    4    2     -0.57      0.00
   11    5    2     24.10      0.00
   10    6    2     -4.62      0.00
    9    7    2     -8.96      0.00
    8    8    2     -8.70      0.00
    7    9    2      1.99      0.00
    6   10    2      2.25      0.00
    5   11    2     15.68      0.00
    4   12    2      1.64      0.00
    3   13    2    -20.13      0.00
    2   14    2     -1.07      0.00
    1   15    2      5.12      0.00
    0   16    2      6.22      0.00
   -1   17    2     -3.43      0.00
   -2   18    2     -4.44      0.00
   -3   19    2     -2.31      0.00
   -4   20    2      6.63      0.00
   -5   21    2     -1.48      0.00
   -6   22    2      0.33      0.00
   -7   23    2     -2.27      0.00
   -8   24    2      1.77      0.00
   14    0    2    -10.42      0.00
   13    1    2     -5.84      0.00
   12    2    2     12.32      0.00
   11    3    2      5.43      0.00
   10    4    2      3.07      0.00
    9    5    2      9.53      0.00
    8    6    2    -29.48      0.00
    7    7    2     -4.87      0.00
    6    8    2     17.89      0.00
    5    9    2     24.46      0.00
    4   10    2    -18.05      0.00
    3   11    2    -15.72      0.00
    2   12    2      4.53      0.00
    1   13    2      3.64      0.00
    0   14    2      8.05      0.00
   -1   15    2     -1.18      0.00
   -2   16    2     -8.85      0.00
   -3   17    2     -2.87      0.00
   -4   18    2      4.26      0.00
   -5   19    2      3.55      0.00
   -6   20    2      1.33      0.00
   -7   21    2     -3.54      0.00
   -8   22    2     -3.13      0.00
   -9   23    2      0.43      0.00
   12    0    2    -18.12      0.00
   11    1    2     18.11      0.00
   10    2    2     20.03      0.00
    9    3    2     -8.91      0.00
    8    4    2    -33.61      0.00
    7    5    2     13.39      0.00
    6    6    2     13.26      0.00
    5    7    2     24.99      0.00
    4    8    2    -18.50      0.00
    3    9    2    -12.14      0.00
    2   10    2     -9.84      0.00
    1   11    2     11.55      0.00
    0   12    2     18.95      0.00
   -1   13    2     -7.50      0.00
   -2   14    2    -11.88      0.00
   -3   15    2      0.67      0.00
   -4   16    2      3.10      0.00
   -5   17    2      0.66      0.00
   -6   18    2      0.43      0.00
   -7   19    2     -2.16      0.00
   -8   20    2     -1.34      0.00
   -9   21    2      1.52      0.00
  -10   22    2      2.50      0.00
  -11   23    2     -4.42      0.00
   10    0    2    -14.43      0.00
    9    1    2     -9.43      0.00
    8    2    2    -26.26      0.00
    7    3    2      9.49      0.00
    6    4    2     35.85      0.00
    5    5    2     24.16      0.00
    4    6    2    -31.61      0.00
    3    7    2    -14.76      0.00
    2    8    2    -10.19      0.00
    1    9    2     22.92      0.00
    0   10    2     16.19      0.00
   -1   11    2    -10.12      0.00
   -2   12    2     -7.94      0.00
   -3   13    2     -6.40      0.00
   -4   14    2      4.06      0.00
   -5   15    2      6.85      0.00
   -6   16    2      2.26      0.00
   -7   17    2    -11.02      0.00
   -8   18    2     -0.59      0.00
   -9   19    2      3.75      0.00
  -10   20    2      4.24      0.00
  -11   21    2     -4.74      0.00
  -12   22    2      4.04      0.00
    8    0    2    -53.19      0.00
    7    1    2     15.27      0.00
    6    2    2     18.15      0.00
    5    3    2     21.88      0.00
    4    4    2     19.25      0.00
    3    5    2    -40.14      0.00
    2    6    2    -37.94      0.00
    1    7    2     40.61      0.00
    0    8    2     31.89      0.00
   -1    9    2    -10.78      0.00
   -2   10    2    -23.78      0.00
   -3   11    2     -7.83      0.00
   -4   12    2     15.45      0.00
   -5   13    2      8.71      0.00
   -6   14    2     -4.55      0.00
   -7   15    2     -9.82      0.00
   -8   16    2      4.82      0.00
   -9   17    2     -1.48      0.00
  -10   18    2      1.79      0.00
  -11   19    2      0.53      0.00
  -12   20    2      1.98      0.00
  -13   21    2     -7.13      0.00
  -14   22    2      7.57      0.00
    6    0    2     -9.77      0.00
    5    1    2     58.54      0.00
    4    2    2    -39.92      0.00
    3    3    2    -71.05      0.00
    2    4    2     45.69      0.00
    1    5    2     42.31      0.00
    0    6    2     -3.18      0.00
   -1    7    2     -9.54      0.00
   -2    8    2    -12.55      0.00
   -3    9    2     -8.23      0.00
   -4   10    2      7.52      0.00
   -5   11    2     14.93      0.00
   -6   12    2     -1.56      0.00
   -7   13    2     -6.54      0.00
   -8   14    2     -4.45      0.00
   -9   15    2     -1.31      0.00
  -10   16    2      8.05      0.00
  -11   17    2     -0.68      0.00
  -12   18    2     -5.43      0.00
  -13   19    2      1.00      0.00
  -14   20    2      5.17      0.00
  -15   21    2     -4.25      0.00
    4    0    2    -75.94      0.00
    3    1    2    -24.87      0.00
    2    2    2    -19.78      0.00
    1    3    2     12.00      0.00
    0    4    2     95.07      0.00
   -1    5    2    -11.01      0.00
   -2    6    2    -59.56      0.00
   -3    7    2    -20.79      0.00
   -4    8    2     40.30      0.00
   -5    9    2     17.95      0.00
   -6   10    2    -12.96      0.00
   -7   11    2     -8.06      0.00
   -8   12    2     -4.78      0.00
   -9   13    2      7.59      0.00
  -10   14    2      3.80      0.00
  -11   15    2     -4.90      0.00
  -12   16    2     -1.48      0.00
  -13   17    2      1.23      0.00
  -14   18    2     -0.25      0.00
  -15   19    2      1.77      0.00
  -16   20    2      1.35      0.00
    2    0    2    -35.02      0.00
    1    1    2     57.60      0.00
    0    2    2     23.13      0.00
   -1    3    2    -38.63      0.00
   -2    4    2      9.08      0.00
   -3    5    2    -17.90      0.00
   -4    6    2     17.36      0.00
   -5    7    2      3.07      0.00
   -6    8    2     18.05      0.00
   -7    9    2    -15.72      0.00
   -8   10    2    -13.71      0.00
   -9   11    2      7.97      0.00
  -10   12    2      5.31      0.00
  -11   13    2      3.33      0.00
  -12   14    2     -3.63      0.00
  -13   15    2     -4.71      0.00
  -14   16    2      1.74      0.00
  -15   17    2      3.18      0.00
  -16   18    2     -0.31      0.00
  -17   19    2     -2.66      0.00
  -18   20    2      1.75      0.00
    0    0    2     38.87      0.00
   -1    1    2     -3.75      0.00
   -2    2    2   -103.08      0.00
   -3    3    2    -10.60      0.00
   -4    4    2     67.50      0.00
   -5    5    2     31.69      0.00
   -6    6    2    -10.13      0.00
   -7    7    2    -43.63      0.00
   -8    8    2     11.54      0.00
   -9    9    2     11.37      0.00
  -10   10    2      1.95      0.00
  -11   11    2     -0.35      0.00
  -12   12    2     -4.95      0.00
  -13   13    2      2.21      0.00
  -14   14    2      0.48      0.00
  -15   15    2      0.53      0.00
  -16   16    2     -1.48      0.00
  -17   17    2      0.09      0.00
  -18   18    2      0.67      0.00
  -19   19    2      1.23      0.00
   -2    0    2    -70.71      0.00
   -3    1    2     15.55      0.00
   -5    3    2     71.95      0.00
   -6    4    2     -1.80      0.00
   -7    5    2    -15.89      0.00
   -8    6    2    -12.43      0.00
   -9    7    2     -6.08      0.00
  -10    8    2     21.83      0.00
  -11    9    2      3.59      0.00
  -12   10    2     -7.85      0.00
  -13   11    2     -4.61      0.00
  -14   12    2      0.85      0.00
  -15   13    2      4.86      0.00
  -16   14    2     -1.03      0.00
  -17   15    2     -0.25      0.00
  -18   16    2     -2.41      0.00
  -19   17    2      3.03      0.00
  -20   18    2     -0.70      0.00
   -4    0    2     28.42      0.00
   -7    3    2      7.11      0.00
   -8    4    2    -15.08      0.00
   -9    5    2     20.16      0.00
  -10    6    2     13.70      0.00
  -11    7    2    -13.93      0.00
  -12    8    2      2.05      0.00
  -13    9    2     -0.33      0.00
  -14   10    2      0.63      0.00
  -15   11    2     -3.92      0.00
  -16   12    2      3.01      0.00
  -17   13    2      1.45      0.00
  -18   14    2     -0.97      0.00
  -19   15    2      0.61      0.00
  -20   16    2      0.29      0.00
  -21   17    2      0.80      0.00
   -6    0    2     12.57      0.00
   -8    2    2    -48.61      0.00
   -9    3    2     30.37      0.00
  -10    4    2     27.35      0.00
  -11    5    2     -2.25      0.00
  -12    6    2     -8.28      0.00
  -13    7    2    -13.68      0.00
  -14    8    2      6.54      0.00
  -15    9    2      6.14      0.00
  -16   10    2      1.68      0.00
  -17   11    2     -6.69      0.00
  -18   12    2      0.71      0.00
  -19   13    2      1.88      0.00
  -20   14    2      1.65      0.00
  -21   15    2     -0.90      0.00
  -22   16    2      2.02      0.00
   -8    0    2     13.93      0.00
   -9    1    2      4.97      0.00
  -10    2    2     12.48      0.00
  -11    3    2     -6.62      0.00
  -12    4    2      2.80      0.00
  -13    5    2     -4.93      0.00
  -14    6    2     -2.61      0.00
  -15    7    2      1.60      0.00
  -16    8    2     -0.52      0.00
  -17    9    2      5.20      0.00
  -18   10    2     -0.51      0.00
  -19   11    2     -3.47      0.00
  -20   12    2     -1.56      0.00
  -21   13    2      3.07      0.00
  -22   14    2     -0.04      0.00
  -23   15    2     -0.69      0.00
  -10    0    2     31.78      0.00
  -11    1    2     -3.51      0.00
  -12    2    2     -8.40      0.00
  -13    3    2    -14.80      0.00
  -14    4    2      9.61      0.00
  -15    5    2      7.93      0.00
  -16    6    2     -8.25      0.00
  -17    7    2      4.11      0.00
  -18    8    2     -4.72      0.00
  -19    9    2      1.87      0.00
  -20   10    2      0.89      0.00
  -21   11    2      0.26      0.00
  -22   12    2     -3.49      0.00
  -23   13    2      3.00      0.00
  -24   14    2     -2.37      0.00
  -12    0    2    -13.63      0.00
  -13    1    2    -10.00      0.00
  -14    2    2      7.69      0.00
  -15    3    2     -0.60      0.00
  -16    4    2      8.55      0.00
  -17    5    2      0.88      0.00
  -18    6    2    -12.01      0.00
  -19    7    2      2.25      0.00
  -20    8    2      0.63      0.00
  -21    9    2      0.07      0.00
  -22   10    2      1.24      0.00
  -23   11    2     -1.23      0.00
  -24   12    2     -3.09      0.00
  -25   13    2      4.74      0.00
  -14    0    2      5.00      0.00
  -15    1    2      3.28      0.00
  -16    2    2      4.64      0.00
  -17    3    2     -8.40      0.00
  -18    4    2      4.61      0.00
  -19    5    2      0.94      0.00
  -20    6    2     -7.34      0.00
  -21    7    2      1.87      0.00
  -22    8    2      0.94      0.00
  -23    9    2     -1.64      0.00
  -24   10    2      0.66      0.00
  -25   11    2      1.02      0.00
  -26   12    2     -2.44      0.00
  -16    0    2      1.29      0.00
  -17    1    2      2.20      0.00
  -18    2    2     -3.09      0.00
  -19    3    2     -4.28      0.00
  -20    4    2      1.99      0.00
  -21    5    2      5.04      0.00
  -22    6    2     -6.32      0.00
  -23    7    2      0.92      0.00
  -24    8    2     -0.13      0.00
  -25    9    2      0.70      0.00
  -26   10    2     -1.53      0.00
  -27   11    2      2.25      0.00
  -18    0    2    -10.18      0.00
  -19    1    2      6.16      0.00
  -20    2    2      0.18      0.00
  -21    3    2      3.40      0.00
  -22    4    2     -2.67      0.00
  -23    5    2      1.35      0.00
  -24    6    2     -4.67      0.00
  -25    7    2      1.81      0.00
  -26    8    2      1.41      0.00
  -27    9    2     -0.41      0.00
  -28   10    2     -4.56      0.00
  -20    0    2     -1.83      0.00
  -21    1    2      3.73      0.00
  -22    2    2     -0.47      0.00
  -23    3    2     -0.07      0.00
  -24    4    2      0.82      0.00
  -25    5    2      1.08      0.00
  -26    6    2     -3.88      0.00
  -27    7    2     -3.14      0.00
  -28    8    2      2.95      0.00
  -22    0    2      2.45      0.00
  -23    1    2     -3.53      0.00
  -24    2    2      2.32      0.00
  -25    3    2     -0.15      0.00
  -26    4    2      1.42      0.00
  -27    5    2     -1.35      0.00
  -28    6    2     -2.22      0.00
  -29    7    2     -1.56      0.00
  -24    0    2      4.00      0.00
  -25    1    2      0.03      0.00
  -26    2    2      1.94      0.00
  -27    3    2     -2.50      0.00
  -28    4    2      0.04      0.00
  -29    5    2      1.99      0.00
  -26    0    2      1.68      0.00
  -27    1    2     -2.15      0.00
  -28    2    2      0.56      0.00
  -29    3    2      2.93      0.00
  -30    4    2      0.68      0.00
   -3   25    2      1.45      0.00
  -28    0    2      0.76      0.00
  -29    1    2      1.26      0.00
  -30    2    2      1.19      0.00
  -30    0    2      2.44      0.00
  -13   23    2     -5.67      0.00
   23   15    3     -0.20      0.00
   22   16    3     -1.67      0.00
   21   17    3      1.74      0.00
   20   18    3     -0.63      0.00
   26   10    3      1.28      0.00
   25   11    3      3.28      0.00
   24   12    3     -3.46      0.00
   23   13    3     -2.14      0.00
   22   14    3     -0.38      0.00
   21   15    3      3.41      0.00
   20   16    3     -2.74      0.00
   19   17    3     -2.01      0.00
   18   18    3      3.55      0.00
   17   19    3      1.97      0.00
   16   20    3     -2.27      0.00
   15   21    3     -1.22      0.00
   27    7    3      2.80      0.00
   26    8    3      0.33      0.00
   25    9    3     -0.07      0.00
   24   10    3     -1.80      0.00
   23   11    3      3.79      0.00
   22   12    3     -2.27      0.00
   21   13    3     -2.52      0.00
   20   14    3     -2.60      0.00
   19   15    3      4.37      0.00
   18   16    3      0.30      0.00
   17   17    3     -4.13      0.00
   16   18    3      1.31      0.00
   15   19    3      0.80      0.00
   14   20    3      1.15      0.00
   13   21    3     -1.62      0.00
   12   22    3      1.44      0.00
   28    4    3     -0.55      0.00
   27    5    3      4.72      0.00
   26    6    3     -5.57      0.00
   25    7    3      4.03      0.00
   24    8    3      0.16      0.00
   23    9    3     -1.49      0.00
   22   10    3     -2.98      0.00
   21   11    3      4.37      0.00
   20   12    3     -1.10      0.00
   19   13    3     -2.85      0.00
   18   14    3     -2.20      0.00
   17   15    3      3.65      0.00
   16   16    3      0.82      0.00
   15   17    3     -4.43      0.00
   14   18    3     -1.08      0.00
   13   19    3      3.22      0.00
   12   20    3      1.80      0.00
   11   21    3      0.04      0.00
   10   22    3     -0.16      0.00
    9   23    3      0.96      0.00
   28    2    3      0.48      0.00
   27    3    3     -4.01      0.00
   26    4    3      3.69      0.00
   25    5    3      5.25      0.00
   24    6    3     -6.08      0.00
   23    7    3      1.09      0.00
   22    8    3      0.58      0.00
   21    9    3      1.54      0.00
   20   10    3     -4.01      0.00
   19   11    3      2.33      0.00
   18   12    3      0.48      0.00
   17   13    3     -0.58      0.00
   16   14    3     -2.88      0.00
   15   15    3      0.17      0.00
   14   16    3      1.24      0.00
   13   17    3      0.72      0.00
   12   18    3     -2.93      0.00
   11   19    3      2.03      0.00
   10   20    3      0.02      0.00
    9   21    3      3.17      0.00
    8   22    3     -3.23      0.00
    7   23    3     -0.41      0.00
    6   24    3     -1.31      0.00
   27    1    3      2.24      0.00
   26    2    3      2.86      0.00
   25    3    3     -5.47      0.00
   24    4    3      4.68      0.00
   23    5    3      3.25      0.00
   22    6    3     -4.71      0.00
   21    7    3      0.28      0.00
   20    8    3     -1.66      0.00
   19    9    3      5.57      0.00
   18   10    3     -2.53      0.00
   17   11    3      1.58      0.00
   16   12    3     -3.03      0.00
   15   13    3     -0.79      0.00
   14   14    3     -0.17      0.00
   13   15    3      1.73      0.00
   12   16    3     -0.67      0.00
   11   17    3      1.40      0.00
   10   18    3     -4.39      0.00
    9   19    3      1.01      0.00
    8   20    3     -0.55      0.00
    7   21    3      3.11      0.00
    6   22    3     -4.16      0.00
    5   23    3      1.87      0.00
    4   24    3     -0.11      0.00
   25    1    3      2.13      0.00
   24    2    3      3.94      0.00
   23    3    3     -4.86      0.00
   22    4    3      1.75      0.00
   21    5    3      3.41      0.00
   20    6    3     -1.94      0.00
   19    7    3      1.56      0.00
   18    8    3     -4.95      0.00
   17    9    3      6.41      0.00
   16   10    3     -3.25      0.00
   15   11    3      2.06      0.00
   14   12    3     -3.35      0.00
   13   13    3      1.08      0.00
   12   14    3      0.46      0.00
   11   15    3     -0.18      0.00
   10   16    3     -3.65      0.00
    9   17    3      4.00      0.00
    8   18    3     -2.22      0.00
    7   19    3     -1.94      0.00
    6   20    3     -0.09      0.00
    5   21    3      4.51      0.00
    4   22    3     -1.08      0.00
    3   23    3      0.23      0.00
    2   24    3     -2.82      0.00
   23    1    3      1.68      0.00
   22    2    3      0.24      0.00
   21    3    3      0.02      0.00
   20    4    3      0.99      0.00
   19    5    3      3.83      0.00
   18    6    3     -1.36      0.00
   17    7    3      1.68      0.00
   16    8    3     -7.62      0.00
   15    9    3      2.87      0.00
   14   10    3      0.36      0.00
   13   11    3      6.61      0.00
   12   12    3     -4.17      0.00
   11   13    3     -2.66      0.00
   10   14    3     -0.10      0.00
    9   15    3      2.98      0.00
    8   16    3     -4.09      0.00
    7   17    3      2.47      0.00
    6   18    3      1.43      0.00
    5   19    3     -1.79      0.00
    4   20    3     -0.21      0.00
    3   21    3      1.33      0.00
    2   22    3     -0.56      0.00
    1   23    3     -2.98      0.00
    0   24    3     -1.44      0.00
   21    1    3      3.74      0.00
   20    2    3     -2.62      0.00
   19    3    3      0.57      0.00
   18    4    3      3.70      0.00
   17    5    3      1.44      0.00
   16    6    3     -1.99      0.00
   15    7    3     -0.90      0.00
   14    8    3     -1.77      0.00
   13    9    3      2.11      0.00
   12   10    3      1.71      0.00
   11   11    3      1.00      0.00
   10   12    3     -3.98      0.00
    9   13    3      1.84      0.00
    8   14    3      2.04      0.00
    7   15    3      2.18      0.00
    6   16    3     -6.80      0.00
    5   17    3     -0.10      0.00
    4   18    3      6.19      0.00
    3   19    3     -1.95      0.00
    2   20    3     -4.27      0.00
    1   21    3     -0.83      0.00
    0   22    3      3.03      0.00
   -1   23    3     -3.43      0.00
   -2   24    3      0.97      0.00
   19    1    3      5.02      0.00
   18    2    3     -1.45      0.00
   17    3    3     -3.89      0.00
   16    4    3      5.22      0.00
   15    5    3     -2.90      0.00
   14    6    3      4.56      0.00
   13    7    3      2.79      0.00
   12    8    3     -3.24      0.00
   11    9    3     -6.35      0.00
   10   10    3      3.80      0.00
    9   11    3      3.96      0.00
    8   12    3     -1.75      0.00
    7   13    3      0.79      0.00
    6   14    3     -0.94      0.00
    5   15    3      3.80      0.00
    4   16    3     -4.52      0.00
    3   17    3     -3.51      0.00
    2   18    3      3.29      0.00
    1   19    3      0.87      0.00
    0   20    3     -1.23      0.00
   -1   21    3      0.16      0.00
   -2   22    3      1.47      0.00
   -3   23    3     -5.37      0.00
   -4   24    3      3.16      0.00
   17    1    3      4.74      0.00
   16    2    3     -3.48      0.00
   15    3    3     -2.84      0.00
   14    4    3      8.40      0.00
   13    5    3     -3.25      0.00
   12    6    3      0.27      0.00
   11    7    3      4.73      0.00
   10    8    3     -7.20      0.00
    9    9    3     -2.51      0.00
    8   10    3      7.20      0.00
    7   11    3      3.55      0.00
    6   12    3     -7.66      0.00
    5   13    3      0.31      0.00
    4   14    3      3.33      0.00
    3   15    3      5.42      0.00
    2   16    3     -6.38      0.00
    1   17    3     -2.40      0.00
    0   18    3      2.28      0.00
   -1   19    3      2.52      0.00
   -2   20    3     -0.72      0.00
   -3   21    3     -1.89      0.00
   -4   22    3      0.89      0.00
   -5   23    3     -3.21      0.00
   -6   24    3      2.40      0.00
   15    1    3      5.97      0.00
   14    2    3     -6.53      0.00
   13    3    3      1.63      0.00
   12    4    3      4.44      0.00
   11    5    3     -4.43      0.00
   10    6    3     -4.77      0.00
    9    7    3     11.96      0.00
    8    8    3     -4.05      0.00
    7    9    3     -1.59      0.00
    6   10    3      1.19      0.00
    5   11    3      2.63      0.00
    4   12    3     -4.17      0.00
    3   13    3      0.32      0.00
    2   14    3      4.60      0.00
    1   15    3      2.90      0.00
    0   16    3     -5.20      0.00
   -1   17    3      2.30      0.00
   -2   18    3     -1.25      0.00
   -3   19    3     -3.41      0.00
   -4   20    3      2.10      0.00
   -5   21    3      0.43      0.00
   -6   22    3      1.26      0.00
   -7   23    3     -3.60      0.00
   -8   24    3     -0.31      0.00
   13    1    3      3.29      0.00
   12    2    3     -6.26      0.00
   11    3    3      0.36      0.00
   10    4    3     -0.81      0.00
    9    5    3      1.29      0.00
    8    6    3      6.53      0.00
    7    7    3      3.57      0.00
    6    8    3     -9.29      0.00
    5    9    3     -2.46      0.00
    4   10    3      6.84      0.00
    3   11    3      3.83      0.00
    2   12    3     -3.38      0.00
    1   13    3     -5.29      0.00
    0   14    3      6.34      0.00
   -1   15    3      3.38      0.00
   -2   16    3     -4.65      0.00
   -3   17    3      0.19      0.00
   -4   18    3     -0.97      0.00
   -5   19    3     -1.56      0.00
   -6   20    3      4.04      0.00
   -7   21    3     -2.74      0.00
   -8   22    3     -1.35      0.00
   -9   23    3      1.36      0.00
   11    1    3     -5.72      0.00
   10    2    3     -5.48      0.00
    9    3    3     10.53      0.00
    8    4    3     -3.25      0.00
    7    5    3     -6.53      0.00
    6    6    3     12.02      0.00
    5    7    3     -1.97      0.00
    4    8    3     -7.38      0.00
    3    9    3     -0.47      0.00
    2   10    3      6.55      0.00
    1   11    3      4.29      0.00
    0   12    3     -2.81      0.00
   -1   13    3     -5.56      0.00
   -2   14    3      2.80      0.00
   -3   15    3      3.51      0.00
   -4   16    3     -1.37      0.00
   -5   17    3      1.35      0.00
   -6   18    3     -1.49      0.00
   -7   19    3     -0.46      0.00
   -8   20    3     -0.22      0.00
   -9   21    3     -1.19      0.00
  -10   22    3      0.02      0.00
  -11   23    3      5.01      0.00
    9    1    3     -4.78      0.00
    8    2    3    -13.91      0.00
    7    3    3     12.97      0.00
    6    4    3     -8.31      0.00
    5    5    3     -8.53      0.00
    4    6    3     14.31      0.00
    3    7    3      3.02      0.00
    2    8    3     -4.63      0.00
    1    9    3     -0.24      0.00
    0   10    3     -2.82      0.00
   -1   11    3      7.21      0.00
   -2   12    3     -0.35      0.00
   -3   13    3     -1.03      0.00
   -4   14    3     -3.53      0.00
   -5   15    3      4.50      0.00
   -6   16    3      1.63      0.00
   -7   17    3      1.08      0.00
   -8   18    3     -7.55      0.00
   -9   19    3      3.42      0.00
  -10   20    3      1.25      0.00
  -11   21    3      1.04      0.00
  -12   22    3     -4.55      0.00
    7    1    3     -1.39      0.00
    6    2    3    -15.11      0.00
    5    3    3     -4.56      0.00
    4    4    3     -0.82      0.00
    3    5    3      7.97      0.00
    2    6    3     10.42      0.00
    1    7    3     -7.88      0.00
    0    8    3      1.02      0.00
   -1    9    3      1.63      0.00
   -2   10    3     -6.51      0.00
   -3   11    3      4.29      0.00
   -4   12    3      3.90      0.00
   -5   13    3      3.17      0.00
   -6   14    3     -6.41      0.00
   -7   15    3      0.18      0.00
   -8   16    3      0.96      0.00
   -9   17    3      3.92      0.00
  -10   18    3     -6.66      0.00
  -11   19    3      4.01      0.00
  -12   20    3      0.16      0.00
  -13   21    3     -0.35      0.00
  -14   22    3     -4.69      0.00
    5    1    3    -12.55      0.00
    4    2    3     14.80      0.00
    3    3    3    -22.86      0.00
    2    4    3     -4.23      0.00
    1    5    3     16.61      0.00
    0    6    3      7.06      0.00
   -1    7    3    -19.68      0.00
   -2    8    3      9.87      0.00
   -3    9    3      0.39      0.00
   -4   10    3      1.50      0.00
   -5   11    3     -3.67      0.00
   -6   12    3      3.85      0.00
   -7   13    3      1.69      0.00
   -8   14    3     -1.98      0.00
   -9   15    3     -2.51      0.00
  -10   16    3      1.76      0.00
  -11   17    3      4.97      0.00
  -12   18    3     -5.98      0.00
  -13   19    3     -0.18      0.00
  -14   20    3      2.15      0.00
  -15   21    3      1.98      0.00
    3    1    3    -25.34      0.00
    2    2    3     25.45      0.00
    1    3    3    -23.73      0.00
    0    4    3    -19.32      0.00
   -1    5    3     25.87      0.00
   -2    6    3     -1.26      0.00
   -3    7    3     -9.54      0.00
   -4    8    3     12.08      0.00
   -5    9    3     -5.64      0.00
   -6   10    3      5.07      0.00
   -7   11    3     -6.98      0.00
   -8   12    3      3.27      0.00
   -9   13    3      1.70      0.00
  -10   14    3      3.80      0.00
  -11   15    3     -5.80      0.00
  -12   16    3      0.67      0.00
  -13   17    3      3.31      0.00
  -14   18    3     -2.93      0.00
  -15   19    3     -0.56      0.00
  -16   20    3      1.98      0.00
    1    1    3    -11.68      0.00
    0    2    3     -8.50      0.00
   -1    3    3    -11.79      0.00
   -2    4    3    -13.35      0.00
   -3    5    3     43.58      0.00
   -4    6    3    -25.77      0.00
   -5    7    3      4.00      0.00
   -6    8    3      4.04      0.00
   -7    9    3     -5.46      0.00
   -8   10    3      5.73      0.00
   -9   11    3     -2.34      0.00
  -10   12    3      0.25      0.00
  -11   13    3      0.13      0.00
  -12   14    3      5.31      0.00
  -13   15    3     -7.84      0.00
  -14   16    3      2.53      0.00
  -15   17    3      1.85      0.00
  -16   18    3     -0.49      0.00
  -17   19    3     -1.79      0.00
  -18   20    3      0.43      0.00
   -1    1    3     23.08      0.00
   -2    2    3    -28.31      0.00
   -3    3    3    -23.48      0.00
   -4    4    3      7.09      0.00
   -5    5    3     44.96      0.00
   -6    6    3    -42.25      0.00
   -7    7    3      7.44      0.00
   -8    8    3      1.59      0.00
   -9    9    3      2.23      0.00
  -10   10    3      3.12      0.00
  -11   11    3     -2.56      0.00
  -12   12    3     -3.22      0.00
  -13   13    3      1.80      0.00
  -14   14    3      6.38      0.00
  -15   15    3     -8.21      0.00
  -16   16    3      3.04      0.00
  -17   17    3     -1.54      0.00
  -18   18    3      3.07      0.00
  -19   19    3     -2.20      0.00
   -3    1    3     38.54      0.00
   -4    2    3    -11.81      0.00
   -5    3    3    -56.99      0.00
   -6    4    3     19.07      0.00
   -7    5    3     33.80      0.00
   -8    6    3    -25.16      0.00
   -9    7    3      4.81      0.00
  -10    8    3     -4.42      0.00
  -11    9    3      3.27      0.00
  -12   10    3      2.08      0.00
  -13   11    3     -0.02      0.00
  -14   12    3     -3.65      0.00
  -15   13    3      2.31      0.00
  -16   14    3      3.02      0.00
  -17   15    3     -5.23      0.00
  -18   16    3      2.32      0.00
  -19   17    3     -2.23      0.00
  -20   18    3      5.04      0.00
   -5    1    3     28.60      0.00
   -6    2    3     -0.47      0.00
   -7    3    3    -56.66      0.00
   -8    4    3     23.72      0.00
   -9    5    3     21.86      0.00
  -10    6    3     -9.97      0.00
  -11    7    3     -2.46      0.00
  -12    8    3     -8.10      0.00
  -13    9    3      6.58      0.00
  -14   10    3      3.49      0.00
  -15   11    3     -0.84      0.00
  -16   12    3     -5.49      0.00
  -17   13    3      2.22      0.00
  -18   14    3      1.76      0.00
  -19   15    3      0.97      0.00
  -20   16    3     -2.79      0.00
  -21   17    3     -0.96      0.00
   -7    1    3     27.18      0.00
   -8    2    3     -9.24      0.00
   -9    3    3    -28.88      0.00
  -10    4    3     14.69      0.00
  -11    5    3      7.84      0.00
  -12    6    3     -2.07      0.00
  -13    7    3     -2.61      0.00
  -14    8    3     -3.88      0.00
  -15    9    3      2.47      0.00
  -16   10    3      1.49      0.00
  -17   11    3     -1.58      0.00
  -18   12    3     -0.78      0.00
  -19   13    3      0.12      0.00
  -20   14    3     -0.15      0.00
  -21   15    3      3.74      0.00
  -22   16    3     -6.63      0.00
   -9    1    3     33.02      0.00
  -10    2    3    -20.51      0.00
  -11    3    3    -16.45      0.00
  -12    4    3      9.15      0.00
  -13    5    3      3.48      0.00
  -14    6    3      6.80      0.00
  -15    7    3     -7.90      0.00
  -16    8    3     -2.04      0.00
  -17    9    3     -1.64      0.00
  -18   10    3      3.76      0.00
  -19   11    3      0.31      0.00
  -20   12    3      0.44      0.00
  -21   13    3     -5.09      0.00
  -22   14    3      0.49      0.00
  -23   15    3      4.96      0.00
  -11    1    3     26.76      0.00
  -12    2    3    -16.98      0.00
  -13    3    3     -9.45      0.00
  -14    4    3      9.33      0.00
  -15    5    3     -0.80      0.00
  -16    6    3      5.34      0.00
  -17    7    3     -8.78      0.00
  -18    8    3      3.02      0.00
  -19    9    3      0.52      0.00
  -20   10    3     -0.85      0.00
  -21   11    3      0.28      0.00
  -22   12    3     -1.22      0.00
  -23   13    3     -2.53      0.00
  -24   14    3      2.73      0.00
  -13    1    3     18.69      0.00
  -14    2    3    -10.93      0.00
  -15    3    3     -3.03      0.00
  -16    4    3      2.65      0.00
  -17    5    3      0.44      0.00
  -18    6    3      3.76      0.00
  -19    7    3     -3.85      0.00
  -20    8    3      1.86      0.00
  -21    9    3     -0.47      0.00
  -22   10    3     -3.79      0.00
  -23   11    3      4.55      0.00
  -24   12    3     -3.78      0.00
  -25   13    3     -0.14      0.00
  -15    1    3     13.29      0.00
  -16    2    3     -8.98      0.00
  -17    3    3      0.34      0.00
  -18    4    3      1.54      0.00
  -19    5    3      4.09      0.00
  -20    6    3      0.96      0.00
  -21    7    3     -5.49      0.00
  -22    8    3      0.94      0.00
  -23    9    3     -0.43      0.00
  -24   10    3      0.13      0.00
  -25   11    3      5.15      0.00
  -26   12    3     -7.26      0.00
  -17    1    3      5.35      0.00
  -18    2    3      0.04      0.00
  -19    3    3     -0.21      0.00
  -20    4    3      2.13      0.00
  -21    5    3      0.48      0.00
  -22    6    3     -0.94      0.00
  -23    7    3     -3.06      0.00
  -24    8    3      3.79      0.00
  -25    9    3     -2.23      0.00
  -26   10    3      0.16      0.00
  -27   11    3      2.58      0.00
  -19    1    3     -2.25      0.00
  -20    2    3      4.70      0.00
  -21    3    3     -2.67      0.00
  -22    4    3      1.32      0.00
  -23    5    3      3.34      0.00
  -24    6    3     -0.90      0.00
  -25    7    3     -1.10      0.00
  -26    8    3      0.79      0.00
  -27    9    3     -1.60      0.00
  -28   10    3      0.07      0.00
  -21    1    3     -3.42      0.00
  -22    2    3      1.49      0.00
  -23    3    3      0.70      0.00
  -24    4    3      0.37      0.00
  -25    5    3      6.64      0.00
  -26    6    3     -1.75      0.00
  -27    7    3     -3.38      0.00
  -28    8    3     -1.97      0.00
  -29    9    3      2.93      0.00
  -23    1    3      0.19      0.00
  -24    2    3      0.35      0.00
  -25    3    3      3.36      0.00
  -26    4    3     -3.89      0.00
  -27    5    3      2.07      0.00
  -28    6    3      3.25      0.00
  -29    7    3     -2.47      0.00
  -25    1    3      0.57      0.00
  -26    2    3     -0.69      0.00
  -27    3    3      3.30      0.00
  -28    4    3     -3.64      0.00
  -29    5    3     -1.03      0.00
  -30    6    3      6.57      0.00
  -27    1    3     -1.19      0.00
  -28    2    3     -1.73      0.00
  -29    3    3      5.16      0.00
  -30    4    3     -0.03      0.00
  -29    1    3     -0.69      0.00
  -30    2    3     -0.85      0.00
  -31    1    3     -0.97      0.00
   25   11    4      2.20      0.00
   24   12    4     -1.69      0.00
   23   13    4      1.43      0.00
   22   14    4     -2.25      0.00
   21   15    4      1.95      0.00
   20   16    4     -0.98      0.00
   19   17    4      0.52      0.00
   18   18    4     -5.26      0.00
   17   19    4      5.84      0.00
   16   20    4     -7.48      0.00
   27    7    4      1.40      0.00
   26    8    4      6.13      0.00
   25    9    4     -3.09      0.00
   24   10    4     -2.23      0.00
   23   11    4      3.64      0.00
   22   12    4     -1.61      0.00
   21   13    4      3.94      0.00
   20   14    4     -5.85      0.00
   19   15    4      2.93      0.00
   18   16    4     -0.83      0.00
   17   17    4     -0.20      0.00
   16   18    4     -1.30      0.00
   15   19    4      4.08      0.00
   14   20    4     -8.97      0.00
   13   21    4      4.11      0.00
   12   22    4      2.36      0.00
   27    5    4     -2.53      0.00
   26    6    4     -0.35      0.00
   25    7    4     -1.07      0.00
   24    8    4      4.95      0.00
   23    9    4     -1.20      0.00
   22   10    4     -2.09      0.00
   21   11    4      4.30      0.00
   20   12    4     -1.65      0.00
   19   13    4      3.85      0.00
   18   14    4     -9.01      0.00
   17   15    4      3.95      0.00
   16   16    4      4.76      0.00
   15   17    4     -2.57      0.00
   14   18    4     -4.54      0.00
   13   19    4     -0.88      0.00
   12   20    4      1.05      0.00
   11   21    4     -0.18      0.00
   10   22    4      3.17      0.00
    9   23    4      0.27      0.00
   28    2    4     -5.30      0.00
   27    3    4      0.85      0.00
   26    4    4      5.90      0.00
   25    5    4     -0.83      0.00
   24    6    4     -2.62      0.00
   23    7    4     -1.62      0.00
   22    8    4      4.04      0.00
   21    9    4      1.18      0.00
   20   10    4     -1.70      0.00
   19   11    4      0.53      0.00
   18   12    4     -1.34      0.00
   17   13    4      6.04      0.00
   16   14    4     -5.27      0.00
   15   15    4     -0.47      0.00
   14   16    4      1.82      0.00
   13   17    4     -1.55      0.00
   12   18    4     -0.57      0.00
   11   19    4     -1.79      0.00
   10   20    4      4.68      0.00
    9   21    4     -6.52      0.00
    8   22    4      2.42      0.00
    7   23    4      5.89      0.00
    6   24    4     -1.53      0.00
   28    0    4     -8.70      0.00
   27    1    4      4.62      0.00
   26    2    4     -1.78      0.00
   25    3    4     -0.22      0.00
   24    4    4      1.83      0.00
   23    5    4      1.53      0.00
   22    6    4     -0.69      0.00
   21    7    4      0.22      0.00
   20    8    4     -1.35      0.00
   19    9    4      0.41      0.00
   18   10    4      1.58      0.00
   17   11    4      0.09      0.00
   16   12    4      0.15      0.00
   15   13    4      4.30      0.00
   14   14    4     -5.49      0.00
   13   15    4     -3.70      0.00
   12   16    4      4.05      0.00
   11   17    4      7.37      0.00
   10   18    4     -2.63      0.00
    9   19    4    -10.89      0.00
    8   20    4      6.29      0.00
    7   21    4     -0.37      0.00
    6   22    4      1.52      0.00
    5   23    4      3.41      0.00
    4   24    4     -3.84      0.00
   26    0    4     -6.58      0.00
   25    1    4      3.77      0.00
   24    2    4     -3.12      0.00
   23    3    4      0.21      0.00
   22    4    4      1.52      0.00
   21    5    4      1.63      0.00
   20    6    4     -0.66      0.00
   19    7    4      1.00      0.00
   18    8    4     -2.50      0.00
   17    9    4      0.15      0.00
   16   10    4      2.98      0.00
   15   11    4      1.45      0.00
   14   12    4     -2.48      0.00
   13   13    4      0.04      0.00
   12   14    4     -0.28      0.00
   11   15    4      3.45      0.00
   10   16    4     -0.81      0.00
    9   17    4      2.82      0.00
    8   18    4     -3.71      0.00
    7   19    4     -7.80      0.00
    6   20    4      9.38      0.00
    5   21    4     -0.91      0.00
    4   22    4     -4.42      0.00
    3   23    4      2.14      0.00
    2   24    4      0.01      0.00
   24    0    4     -5.62      0.00
   23    1    4      0.45      0.00
   22    2    4     -0.44      0.00
   21    3    4      1.39      0.00
   20    4    4     -1.34      0.00
   19    5    4     -1.59      0.00
   18    6    4      3.57      0.00
   17    7    4      1.15      0.00
   16    8    4     -0.07      0.00
   15    9    4     -0.53      0.00
   14   10    4     -2.89      0.00
   13   11    4      0.65      0.00
   12   12    4      3.01      0.00
   11   13    4      3.92      0.00
   10   14    4     -2.08      0.00
    9   15    4     -2.21      0.00
    8   16    4     -6.52      0.00
    7   17    4      7.68      0.00
    6   18    4      4.31      0.00
    5   19    4     -6.92      0.00
    4   20    4      0.15      0.00
    3   21    4     -1.22      0.00
    2   22    4      0.59      0.00
    1   23    4      5.41      0.00
    0   24    4     -1.29      0.00
   22    0    4      0.31      0.00
   21    1    4      0.07      0.00
   20    2    4     -4.88      0.00
   19    3    4      0.64      0.00
   18    4    4     -0.57      0.00
   17    5    4      2.35      0.00
   16    6    4      5.05      0.00
   15    7    4     -4.00      0.00
   14    8    4     -1.21      0.00
   13    9    4     -0.35      0.00
   12   10    4     -0.80      0.00
   11   11    4      3.68      0.00
   10   12    4      4.02      0.00
    9   13    4     -4.07      0.00
    8   14    4     -7.04      0.00
    7   15    4      4.10      0.00
    6   16    4      3.05      0.00
    5   17    4      5.61      0.00
    4   18    4     -4.31      0.00
    3   19    4     -3.67      0.00
    2   20    4      0.79      0.00
    1   21    4      4.51      0.00
    0   22    4     -0.56      0.00
   -1   23    4     -1.48      0.00
   -2   24    4     -3.39      0.00
   20    0    4     -4.59      0.00
   19    1    4     -0.28      0.00
   18    2    4     -1.62      0.00
   17    3    4      6.19      0.00
   16    4    4     -5.63      0.00
   15    5    4      3.00      0.00
   14    6    4      0.01      0.00
   13    7    4     -4.44      0.00
   12    8    4      3.04      0.00
   11    9    4      3.20      0.00
   10   10    4      2.60      0.00
    9   11    4     -6.73      0.00
    8   12    4     -3.32      0.00
    7   13    4      2.57      0.00
    6   14    4      5.60      0.00
    5   15    4      4.08      0.00
    4   16    4     -4.81      0.00
    3   17    4     -1.97      0.00
    2   18    4     -2.53      0.00
    1   19    4      8.76      0.00
    0   20    4     -2.25      0.00
   -1   21    4     -2.05      0.00
   -2   22    4     -2.09      0.00
   -3   23    4     -1.24      0.00
   -4   24    4      0.11      0.00
   18    0    4      0.02      0.00
   17    1    4      0.21      0.00
   16    2    4      1.87      0.00
   15    3    4      2.01      0.00
   14    4    4    -11.67      0.00
   13    5    4      3.16      0.00
   12    6    4      1.33      0.00
   11    7    4      8.88      0.00
   10    8    4      4.29      0.00
    9    9    4    -18.03      0.00
    8   10    4     -0.71      0.00
    7   11    4      6.71      0.00
    6   12    4      7.75      0.00
    5   13    4      0.17      0.00
    4   14    4     -6.39      0.00
    3   15    4     -3.81      0.00
    2   16    4      2.07      0.00
    1   17    4      6.47      0.00
    0   18    4     -2.06      0.00
   -1   19    4      1.45      0.00
   -2   20    4     -5.66      0.00
   -3   21    4      0.39      0.00
   -4   22    4      5.77      0.00
   -5   23    4     -1.47      0.00
   -6   24    4     -4.81      0.00
   16    0    4      9.45      0.00
   15    1    4    -10.60      0.00
   14    2    4     -0.49      0.00
   13    3    4     -6.29      0.00
   12    4    4      3.21      0.00
   11    5    4     16.06      0.00
   10    6    4    -11.03      0.00
    9    7    4     -4.61      0.00
    8    8    4      1.34      0.00
    7    9    4    -10.41      0.00
    6   10    4     15.10      0.00
    5   11    4      9.75      0.00
    4   12    4    -10.93      0.00
    3   13    4    -10.99      0.00
    2   14    4      2.09      0.00
    1   15    4      9.81      0.00
    0   16    4      2.53      0.00
   -1   17    4     -2.99      0.00
   -2   18    4     -3.93      0.00
   -3   19    4      1.85      0.00
   -4   20    4      3.19      0.00
   -5   21    4      0.22      0.00
   -6   22    4     -0.39      0.00
   -7   23    4     -1.50      0.00
   14    0    4      7.91      0.00
   13    1    4    -12.25      0.00
   12    2    4     14.36      0.00
   11    3    4     -2.04      0.00
   10    4    4      0.08      0.00
    9    5    4     -2.85      0.00
    8    6    4    -27.06      0.00
    7    7    4     18.29      0.00
    6    8    4     26.22      0.00
    5    9    4    -14.89      0.00
    4   10    4    -13.31      0.00
    3   11    4     -1.40      0.00
    2   12    4      5.55      0.00
    1   13    4      6.01      0.00
    0   14    4      2.39      0.00
   -1   15    4     -2.38      0.00
   -2   16    4     -6.27      0.00
   -3   17    4      0.53      0.00
   -4   18    4      7.82      0.00
   -5   19    4      0.88      0.00
   -6   20    4     -2.20      0.00
   -7   21    4     -2.82      0.00
   -8   22    4     -2.65      0.00
   -9   23    4      4.13      0.00
   12    0    4     16.49      0.00
   11    1    4      5.82      0.00
   10    2    4      7.98      0.00
    9    3    4    -30.11      0.00
    8    4    4     -9.08      0.00
    7    5    4     16.80      0.00
    6    6    4      2.92      0.00
    5    7    4     18.95      0.00
    4    8    4    -10.21      0.00
    3    9    4    -32.92      0.00
    2   10    4      7.83      0.00
    1   11    4     20.70      0.00
    0   12    4     10.29      0.00
   -1   13    4    -16.57      0.00
   -2   14    4     -7.15      0.00
   -3   15    4      4.55      0.00
   -4   16    4      6.11      0.00
   -5   17    4     -0.71      0.00
   -6   18    4      0.18      0.00
   -7   19    4     -2.83      0.00
   -8   20    4     -0.09      0.00
   -9   21    4      3.66      0.00
  -10   22    4     -3.86      0.00
  -11   23    4     -0.15      0.00
   10    0    4      2.96      0.00
    9    1    4    -11.97      0.00
    8    2    4    -12.30      0.00
    7    3    4      0.65      0.00
    6    4    4     39.26      0.00
    5    5    4     -4.15      0.00
    4    6    4    -45.04      0.00
    3    7    4      1.57      0.00
    2    8    4     19.05      0.00
    1    9    4      6.11      0.00
    0   10    4      4.07      0.00
   -1   11    4    -15.65      0.00
   -2   12    4      1.31      0.00
   -3   13    4     -4.00      0.00
   -4   14    4      9.10      0.00
   -5   15    4      2.68      0.00
   -6   16    4     -0.65      0.00
   -7   17    4     -7.28      0.00
   -8   18    4      0.79      0.00
   -9   19    4      5.00      0.00
  -10   20    4     -0.01      0.00
  -11   21    4      0.83      0.00
  -12   22    4     -3.21      0.00
    8    0    4    -22.57      0.00
    7    1    4     40.64      0.00
    6    2    4     12.55      0.00
    5    3    4     -8.51      0.00
    4    4    4     -8.24      0.00
    3    5    4    -37.84      0.00
    2    6    4     -6.69      0.00
    1    7    4     50.67      0.00
    0    8    4      7.35      0.00
   -1    9    4    -21.51      0.00
   -2   10    4    -20.08      0.00
   -3   11    4      0.38      0.00
   -4   12    4     22.45      0.00
   -5   13    4      1.27      0.00
   -6   14    4     -7.30      0.00
   -7   15    4     -5.99      0.00
   -8   16    4      5.74      0.00
   -9   17    4      1.50      0.00
  -10   18    4     -1.23      0.00
  -11   19    4      1.49      0.00
  -12   20    4     -3.36      0.00
  -13   21    4      2.52      0.00
  -14   22    4      0.78      0.00
    6    0    4      7.19      0.00
    5    1    4     36.54      0.00
    4    2    4    -67.28      0.00
    3    3    4    -25.55      0.00
    2    4    4     42.96      0.00
    1    5    4     12.56      0.00
    0    6    4     -4.07      0.00
   -1    7    4     -4.80      0.00
   -2    8    4    -31.21      0.00
   -3    9    4     16.27      0.00
   -4   10    4      9.89      0.00
   -5   11    4      3.97      0.00
   -6   12    4     -6.01      0.00
   -7   13    4     -4.83      0.00
   -8   14    4     -2.70      0.00
   -9   15    4      6.11      0.00
  -10   16    4      4.95      0.00
  -11   17    4     -2.79      0.00
  -12   18    4     -5.10      0.00
  -13   19    4      3.45      0.00
  -14   20    4     -1.45      0.00
  -15   21    4      1.27      0.00
    4    0    4    -37.06      0.00
    3    1    4    -10.08      0.00
    2    2    4    -22.56      0.00
    1    3    4     54.35      0.00
    0    4    4     46.27      0.00
   -1    5    4    -76.13      0.00
   -2    6    4    -22.15      0.00
   -3    7    4     20.91      0.00
   -4    8    4     15.32      0.00
   -5    9    4     12.08      0.00
   -6   10    4    -17.23      0.00
   -7   11    4     -7.87      0.00
   -8   12    4      1.10      0.00
   -9   13    4      9.74      0.00
  -10   14    4     -2.71      0.00
  -11   15    4      0.13      0.00
  -12   16    4     -1.46      0.00
  -13   17    4      1.15      0.00
  -14   18    4     -0.90      0.00
  -15   19    4      1.15      0.00
  -16   20    4     -2.51      0.00
    2    0    4     75.08      0.00
    1    1    4     46.77      0.00
    0    2    4    -47.76      0.00
   -1    3    4    -31.87      0.00
   -2    4    4     20.22      0.00
   -3    5    4    -38.49      0.00
   -4    6    4     44.18      0.00
   -5    7    4      3.26      0.00
   -6    8    4     -7.70      0.00
   -7    9    4    -18.02      0.00
   -8   10    4      0.56      0.00
   -9   11    4      9.16      0.00
  -10   12    4      3.99      0.00
  -11   13    4     -0.45      0.00
  -12   14    4     -6.70      0.00
  -13   15    4      1.77      0.00
  -14   16    4      0.82      0.00
  -15   17    4      3.12      0.00
  -16   18    4     -3.55      0.00
  -17   19    4     -1.08      0.00
  -18   20    4      2.66      0.00
    0    0    4     81.03      0.00
   -2    2    4   -104.29      0.00
   -3    3    4     18.99      0.00
   -4    4    4     72.26      0.00
   -5    5    4    -14.65      0.00
   -6    6    4     -6.87      0.00
   -7    7    4    -32.88      0.00
   -8    8    4     17.24      0.00
   -9    9    4      3.35      0.00
  -10   10    4      5.06      0.00
  -11   11    4     -4.58      0.00
  -12   12    4     -3.90      0.00
  -13   13    4      1.54      0.00
  -14   14    4      2.29      0.00
  -15   15    4      0.92      0.00
  -16   16    4     -4.20      0.00
  -17   17    4      3.58      0.00
  -18   18    4     -2.37      0.00
  -19   19    4      0.12      0.00
   -2    0    4      5.19      0.00
   -3    1    4     50.42      0.00
   -4    2    4    -22.33      0.00
   -5    3    4     31.32      0.00
   -6    4    4    -29.24      0.00
   -7    5    4    -18.94      0.00
   -8    6    4     12.20      0.00
   -9    7    4      2.24      0.00
  -10    8    4     13.07      0.00
  -11    9    4    -10.51      0.00
  -12   10    4     -2.76      0.00
  -13   11    4     -0.49      0.00
  -14   12    4     -0.04      0.00
  -15   13    4      0.93      0.00
  -16   14    4      3.39      0.00
  -17   15    4     -1.66      0.00
  -18   16    4     -3.46      0.00
  -19   17    4      4.26      0.00
  -20   18    4     -2.94      0.00
   -4    0    4     71.30      0.00
   -5    1    4     38.82      0.00
   -6    2    4    -73.90      0.00
   -7    3    4     -0.47      0.00
   -8    4    4    -17.61      0.00
   -9    5    4     26.25      0.00
  -10    6    4     12.34      0.00
  -11    7    4    -12.01      0.00
  -12    8    4     -2.87      0.00
  -13    9    4     -4.38      0.00
  -14   10    4      4.10      0.00
  -15   11    4      2.31      0.00
  -16   12    4     -2.21      0.00
  -17   13    4     -3.44      0.00
  -18   14    4      4.29      0.00
  -19   15    4      0.36      0.00
  -20   16    4     -1.40      0.00
  -21   17    4     -1.04      0.00
   -6    0    4     13.55      0.00
   -7    1    4    -31.92      0.00
   -8    2    4    -18.14      0.00
   -9    3    4     33.81      0.00
  -10    4    4     -2.59      0.00
  -11    5    4     -3.85      0.00
  -12    6    4     -4.91      0.00
  -13    7    4     -3.55      0.00
  -14    8    4      5.65      0.00
  -15    9    4     -0.10      0.00
  -16   10    4      0.21      0.00
  -17   11    4      0.54      0.00
  -18   12    4     -1.44      0.00
  -19   13    4     -2.43      0.00
  -20   14    4      1.99      0.00
  -21   15    4      1.70      0.00
  -22   16    4     -0.48      0.00
   -8    0    4     51.41      0.00
   -9    1    4     14.32      0.00
  -10    2    4      6.23      0.00
  -11    3    4    -14.13      0.00
  -12    4    4    -15.27      0.00
  -13    5    4      8.11      0.00
  -14    6    4      4.72      0.00
  -15    7    4      0.10      0.00
  -16    8    4      0.33      0.00
  -17    9    4     -0.52      0.00
  -18   10    4     -1.36      0.00
  -19   11    4      1.27      0.00
  -20   12    4      0.40      0.00
  -21   13    4     -1.11      0.00
  -22   14    4     -3.38      0.00
  -23   15    4      4.86      0.00
  -24   16    4     -0.27      0.00
  -10    0    4     36.65      0.00
  -11    1    4    -13.70      0.00
  -12    2    4     -4.90      0.00
  -13    3    4     -9.75      0.00
  -14    4    4     -2.54      0.00
  -15    5    4     14.47      0.00
  -16    6    4     -0.45      0.00
  -17    7    4     -2.10      0.00
  -18    8    4     -1.93      0.00
  -19    9    4      0.33      0.00
  -20   10    4      0.82      0.00
  -21   11    4      0.24      0.00
  -22   12    4     -0.41      0.00
  -23   13    4      0.18      0.00
  -24   14    4     -5.08      0.00
  -25   15    4      7.33      0.00
  -12    0    4     -3.01      0.00
  -13    1    4     -6.84      0.00
  -14    2    4     17.85      0.00
  -15    3    4     -3.68      0.00
  -16    4    4     -4.98      0.00
  -17    5    4      3.56      0.00
  -18    6    4     -0.86      0.00
  -19    7    4      0.43      0.00
  -20    8    4      0.01      0.00
  -21    9    4      0.45      0.00
  -22   10    4      0.78      0.00
  -23   11    4     -0.99      0.00
  -24   12    4     -0.04      0.00
  -25   13    4      1.66      0.00
  -14    0    4     14.01      0.00
  -15    1    4     -3.12      0.00
  -16    2    4      8.38      0.00
  -17    3    4     -9.66      0.00
  -18    4    4      0.63      0.00
  -19    5    4      0.20      0.00
  -20    6    4      1.28      0.00
  -21    7    4      3.09      0.00
  -22    8    4     -1.60      0.00
  -23    9    4     -0.21      0.00
  -24   10    4      1.23      0.00
  -25   11    4      1.30      0.00
  -26   12    4     -0.67      0.00
  -16    0    4      2.14      0.00
  -17    1    4     -4.17      0.00
  -18    2    4     -0.30      0.00
  -19    3    4     -4.35      0.00
  -20    4    4      5.76      0.00
  -21    5    4      0.62      0.00
  -22    6    4     -0.63      0.00
  -23    7    4      2.04      0.00
  -24    8    4     -0.44      0.00
  -25    9    4      0.80      0.00
  -26   10    4     -0.99      0.00
  -27   11    4      0.55      0.00
  -18    0    4     -6.86      0.00
  -19    1    4      4.72      0.00
  -20    2    4     -1.27      0.00
  -21    3    4     -1.04      0.00
  -22    4    4      2.59      0.00
  -23    5    4     -0.19      0.00
  -24    6    4      0.73      0.00
  -25    7    4      0.34      0.00
  -26    8    4     -0.20      0.00
  -27    9    4      0.84      0.00
  -28   10    4     -2.25      0.00
  -20    0    4     -4.56      0.00
  -21    1    4      4.44      0.00
  -22    2    4     -3.14      0.00
  -23    3    4     -1.82      0.00
  -24    4    4      1.02      0.00
  -25    5    4      1.10      0.00
  -26    6    4      0.48      0.00
  -27    7    4     -1.03      0.00
  -28    8    4     -0.90      0.00
  -29    9    4      4.75      0.00
  -22    0    4     -5.14      0.00
  -23    1    4     -0.61      0.00
  -24    2    4      0.51      0.00
  -25    3    4      1.77      0.00
  -26    4    4     -2.75      0.00
  -27    5    4     -1.05      0.00
  -28    6    4      2.08      0.00
  -29    7    4      3.88      0.00
  -24    0    4      0.45      0.00
  -25    1    4     -2.06      0.00
  -26    2    4     -1.20      0.00
  -27    3    4      2.22      0.00
  -28    4    4      0.77      0.00
  -29    5    4     -1.62      0.00
  -30    6    4      1.09      0.00
  -26    0    4      3.90      0.00
  -27    1    4     -6.10      0.00
  -28    2    4     -1.57      0.00
  -29    3    4      3.93      0.00
  -30    4    4      4.05      0.00
  -28    0    4      6.77      0.00
  -29    1    4     -1.86      0.00
  -30    2    4     -2.28      0.00
  -31    3    4     -1.07      0.00
  -30    0    4      4.56      0.00
  -31    1    4     -2.55      0.00
   -8   24    4     -3.25      0.00
  -23   17    4     -3.86      0.00
   24   12    5      3.02      0.00
   23   13    5     -2.93      0.00
   22   14    5      4.85      0.00
   21   15    5     -1.72      0.00
   20   16    5     -2.53      0.00
   19   17    5      2.38      0.00
   18   18    5      3.96      0.00
   17   19    5     -2.47      0.00
   26    8    5      0.74      0.00
   25    9    5      1.03      0.00
   24   10    5     -0.24      0.00
   23   11    5     -3.47      0.00
   22   12    5      4.73      0.00
   21   13    5     -2.05      0.00
   20   14    5      1.87      0.00
   19   15    5      2.09      0.00
   18   16    5     -2.98      0.00
   17   17    5      0.22      0.00
   16   18    5      1.63      0.00
   15   19    5      1.32      0.00
   14   20    5     -3.83      0.00
   13   21    5     -3.53      0.00
   12   22    5      4.26      0.00
   27    5    5      5.01      0.00
   26    6    5      0.85      0.00
   25    7    5     -2.71      0.00
   24    8    5     -1.45      0.00
   23    9    5      1.55      0.00
   22   10    5     -0.59      0.00
   21   11    5     -1.05      0.00
   20   12    5      2.87      0.00
   19   13    5      0.01      0.00
   18   14    5      0.39      0.00
   17   15    5      2.85      0.00
   16   16    5     -4.54      0.00
   15   17    5     -0.19      0.00
   14   18    5      2.75      0.00
   13   19    5      4.91      0.00
   12   20    5     -4.27      0.00
   11   21    5     -4.89      0.00
   10   22    5     -0.02      0.00
    9   23    5      8.08      0.00
   27    3    5     -0.32      0.00
   26    4    5     -2.03      0.00
   25    5    5      3.66      0.00
   24    6    5      0.02      0.00
   23    7    5     -4.79      0.00
   22    8    5      1.92      0.00
   21    9    5      2.32      0.00
   20   10    5     -1.74      0.00
   19   11    5     -0.75      0.00
   18   12    5      1.27      0.00
   17   13    5      1.78      0.00
   16   14    5     -0.67      0.00
   15   15    5      0.32      0.00
   14   16    5     -0.93      0.00
   13   17    5      2.23      0.00
   12   18    5      1.34      0.00
   11   19    5      0.89      0.00
   10   20    5     -2.98      0.00
    9   21    5     -2.89      0.00
    8   22    5     -3.69      0.00
    7   23    5      6.38      0.00
   27    1    5     -2.90      0.00
   26    2    5      3.62      0.00
   25    3    5     -3.15      0.00
   24    4    5     -3.79      0.00
   23    5    5      2.80      0.00
   22    6    5      1.48      0.00
   21    7    5     -2.76      0.00
   20    8    5      2.08      0.00
   19    9    5     -0.46      0.00
   18   10    5      0.52      0.00
   17   11    5     -0.65      0.00
   16   12    5     -2.26      0.00
   15   13    5      0.88      0.00
   14   14    5      4.61      0.00
   13   15    5     -0.76      0.00
   12   16    5     -1.64      0.00
   11   17    5     -0.35      0.00
   10   18    5      1.54      0.00
    9   19    5      0.93      0.00
    8   20    5     -1.81      0.00
    7   21    5     -0.86      0.00
    6   22    5     -4.94      0.00
    5   23    5      4.52      0.00
    4   24    5     12.76      0.00
   25    1    5     -4.57      0.00
   24    2    5      4.33      0.00
   23    3    5     -3.40      0.00
   22    4    5     -5.09      0.00
   21    5    5      5.95      0.00
   20    6    5     -1.03      0.00
   19    7    5     -0.36      0.00
   18    8    5      0.69      0.00
   17    9    5     -2.86      0.00
   16   10    5      1.47      0.00
   15   11    5     -1.06      0.00
   14   12    5      1.07      0.00
   13   13    5      0.33      0.00
   12   14    5      2.92      0.00
   11   15    5     -4.16      0.00
   10   16    5     -0.48      0.00
    9   17    5      2.17      0.00
    8   18    5      2.40      0.00
    7   19    5      0.68      0.00
    6   20    5     -2.43      0.00
    5   21    5      2.10      0.00
    4   22    5     -4.59      0.00
    3   23    5     -0.15      0.00
    2   24    5     12.78      0.00
   23    1    5     -4.82      0.00
   22    2    5      2.84      0.00
   21    3    5      0.68      0.00
   20    4    5     -5.95      0.00
   19    5    5      5.63      0.00
   18    6    5     -4.69      0.00
   17    7    5      2.88      0.00
   16    8    5     -2.19      0.00
   15    9    5     -1.90      0.00
   14   10    5      5.84      0.00
   13   11    5     -3.40      0.00
   12   12    5     -0.16      0.00
   11   13    5     -0.45      0.00
   10   14    5      2.26      0.00
    9   15    5     -1.36      0.00
    8   16    5     -0.09      0.00
    7   17    5      0.88      0.00
    6   18    5      2.10      0.00
    5   19    5      1.49      0.00
    4   20    5     -1.89      0.00
    3   21    5     -0.14      0.00
    2   22    5     -4.34      0.00
    1   23    5     -2.50      0.00
    0   24    5     12.79      0.00
   21    1    5     -2.51      0.00
   20    2    5      1.24      0.00
   19    3    5     -1.10      0.00
   18    4    5     -2.63      0.00
   17    5    5      1.80      0.00
   16    6    5     -4.59      0.00
   15    7    5      5.54      0.00
   14    8    5     -0.76      0.00
   13    9    5     -1.64      0.00
   12   10    5      4.73      0.00
   11   11    5     -9.18      0.00
   10   12    5      1.44      0.00
    9   13    5      6.14      0.00
    8   14    5      1.75      0.00
    7   15    5     -5.52      0.00
    6   16    5     -1.35      0.00
    5   17    5      1.08      0.00
    4   18    5      3.30      0.00
    3   19    5     -0.74      0.00
    2   20    5     -0.82      0.00
    1   21    5     -0.17      0.00
    0   22    5     -0.11      0.00
   -1   23    5     -3.45      0.00
   -2   24    5      8.85      0.00
   19    1    5     -1.35      0.00
   18    2    5      2.19      0.00
   17    3    5     -6.57      0.00
   16    4    5      3.59      0.00
   15    5    5     -2.53      0.00
   14    6    5      1.40      0.00
   13    7    5      5.54      0.00
   12    8    5     -5.30      0.00
   11    9    5     -6.31      0.00
   10   10    5      8.71      0.00
    9   11    5     -3.78      0.00
    8   12    5     -0.63      0.00
    7   13    5      0.52      0.00
    6   14    5      3.44      0.00
    5   15    5     -4.73      0.00
    4   16    5      1.01      0.00
    3   17    5     -1.93      0.00
    2   18    5      1.96      0.00
    1   19    5      1.27      0.00
    0   20    5      1.85      0.00
   -1   21    5      0.70      0.00
   -2   22    5     -1.10      0.00
   -3   23    5     -3.40      0.00
   -4   24    5      3.75      0.00
   17    1    5      0.51      0.00
   16    2    5      1.28      0.00
   15    3    5     -6.50      0.00
   14    4    5      8.77      0.00
   13    5    5     -6.40      0.00
   12    6    5     -2.55      0.00
   11    7    5      3.87      0.00
   10    8    5     -2.01      0.00
    9    9    5      0.50      0.00
    8   10    5      4.02      0.00
    7   11    5     -5.39      0.00
    6   12    5     -2.87      0.00
    5   13    5      0.24      0.00
    4   14    5     10.15      0.00
    3   15    5     -7.18      0.00
    2   16    5     -0.74      0.00
    1   17    5     -1.04      0.00
    0   18    5      3.62      0.00
   -1   19    5      1.12      0.00
   -2   20    5     -2.76      0.00
   -3   21    5      2.52      0.00
   -4   22    5     -0.88      0.00
   -5   23    5      0.49      0.00
   -6   24    5     -2.06      0.00
   15    1    5      6.45      0.00
   14    2    5     -2.47      0.00
   13    3    5     -4.25      0.00
   12    4    5      4.35      0.00
   11    5    5     -7.91      0.00
   10    6    5      1.24      0.00
    9    7    5      6.34      0.00
    8    8    5     -2.08      0.00
    7    9    5      2.97      0.00
    6   10    5     -5.89      0.00
    5   11    5     -1.84      0.00
    4   12    5      1.31      0.00
    3   13    5     -0.19      0.00
    2   14    5      7.90      0.00
    1   15    5     -7.89      0.00
    0   16    5      0.61      0.00
   -1   17    5     -1.18      0.00
   -2   18    5      2.57      0.00
   -3   19    5     -1.54      0.00
   -4   20    5     -1.63      0.00
   -5   21    5      6.45      0.00
   -6   22    5     -4.20      0.00
   -7   23    5      0.75      0.00
   13    1    5     10.14      0.00
   12    2    5     -5.05      0.00
   11    3    5     -1.30      0.00
   10    4    5      3.41      0.00
    9    5    5     -7.28      0.00
    8    6    5     11.85      0.00
    7    7    5     -6.90      0.00
    6    8    5     -7.26      0.00
    5    9    5     10.31      0.00
    4   10    5     -2.24      0.00
    3   11    5     -1.86      0.00
    2   12    5     -5.08      0.00
    1   13    5      0.82      0.00
    0   14    5      8.00      0.00
   -1   15    5     -4.53      0.00
   -2   16    5     -2.01      0.00
   -3   17    5     -4.65      0.00
   -4   18    5      7.90      0.00
   -5   19    5     -0.41      0.00
   -6   20    5     -2.57      0.00
   -7   21    5      3.84      0.00
   -8   22    5     -5.65      0.00
   -9   23    5      4.10      0.00
   11    1    5      8.79      0.00
   10    2    5     -2.82      0.00
    9    3    5      9.56      0.00
    8    4    5     -0.17      0.00
    7    5    5    -20.37      0.00
    6    6    5     18.90      0.00
    5    7    5    -11.20      0.00
    4    8    5     -1.13      0.00
    3    9    5      9.13      0.00
    2   10    5     -2.16      0.00
    1   11    5     -1.52      0.00
    0   12    5     -7.97      0.00
   -1   13    5      3.30      0.00
   -2   14    5      4.31      0.00
   -3   15    5     -1.17      0.00
   -4   16    5     -0.27      0.00
   -5   17    5     -3.97      0.00
   -6   18    5      6.08      0.00
   -7   19    5     -2.44      0.00
   -8   20    5     -3.23      0.00
   -9   21    5      6.57      0.00
  -10   22    5     -4.10      0.00
  -11   23    5      2.37      0.00
    9    1    5     10.58      0.00
    8    2    5     -6.87      0.00
    7    3    5     11.33      0.00
    6    4    5     -4.74      0.00
    5    5    5    -15.07      0.00
    4    6    5     19.75      0.00
    3    7    5    -12.41      0.00
    2    8    5      4.18      0.00
    1    9    5      2.64      0.00
    0   10    5     -3.14      0.00
   -1   11    5      0.67      0.00
   -2   12    5     -4.93      0.00
   -3   13    5      1.84      0.00
   -4   14    5      1.35      0.00
   -5   15    5      1.27      0.00
   -6   16    5      0.02      0.00
   -7   17    5     -3.79      0.00
   -8   18    5      0.36      0.00
   -9   19    5      2.35      0.00
  -10   20    5     -0.75      0.00
  -11   21    5      3.40      0.00
  -12   22    5     -6.30      0.00
    7    1    5     10.93      0.00
    6    2    5     -1.07      0.00
    5    3    5      3.21      0.00
    4    4    5     -3.83      0.00
    3    5    5      5.69      0.00
    2    6    5      5.99      0.00
    1    7    5    -19.91      0.00
    0    8    5      9.90      0.00
   -1    9    5      1.75      0.00
   -2   10    5     -2.64      0.00
   -3   11    5     -1.97      0.00
   -4   12    5      2.91      0.00
   -5   13    5     -2.05      0.00
   -6   14    5     -0.81      0.00
   -7   15    5     -1.95      0.00
   -8   16    5      0.76      0.00
   -9   17    5      2.58      0.00
  -10   18    5     -0.49      0.00
  -11   19    5      0.91      0.00
  -12   20    5     -2.57      0.00
  -13   21    5      0.13      0.00
  -14   22    5     -1.83      0.00
    5    1    5      4.57      0.00
    4    2    5     27.01      0.00
    3    3    5    -13.55      0.00
    2    4    5    -15.15      0.00
    1    5    5     21.41      0.00
    0    6    5     -3.70      0.00
   -1    7    5    -19.40      0.00
   -2    8    5     11.83      0.00
   -3    9    5      4.35      0.00
   -4   10    5     -2.55      0.00
   -5   11    5     -6.27      0.00
   -6   12    5      6.50      0.00
   -7   13    5     -4.57      0.00
   -8   14    5      0.22      0.00
   -9   15    5     -1.50      0.00
  -10   16    5      1.82      0.00
  -11   17    5      3.17      0.00
  -12   18    5     -1.88      0.00
  -13   19    5     -1.10      0.00
  -14   20    5     -0.06      0.00
  -15   21    5      0.61      0.00
    3    1    5     -2.62      0.00
    2    2    5     39.93      0.00
    1    3    5    -22.53      0.00
    0    4    5    -24.73      0.00
   -1    5    5     34.12      0.00
   -2    6    5     -9.45      0.00
   -3    7    5     -9.15      0.00
   -4    8    5      6.85      0.00
   -5    9    5      6.57      0.00
   -6   10    5     -9.59      0.00
   -7   11    5     -4.21      0.00
   -8   12    5      7.39      0.00
   -9   13    5     -0.09      0.00
  -10   14    5     -0.92      0.00
  -11   15    5     -2.13      0.00
  -12   16    5     -1.41      0.00
  -13   17    5      2.57      0.00
  -14   18    5      1.33      0.00
  -15   19    5      0.59      0.00
  -16   20    5     -2.69      0.00
    0    2    5     28.94      0.00
   -1    3    5    -17.38      0.00
   -2    4    5    -19.60      0.00
   -3    5    5     37.43      0.00
   -4    6    5    -17.52      0.00
   -5    7    5     -6.19      0.00
   -6    8    5      1.82      0.00
   -7    9    5     12.82      0.00
   -8   10    5    -12.57      0.00
   -9   11    5     -0.86      0.00
  -10   12    5      3.70      0.00
  -11   13    5      2.54      0.00
  -12   14    5     -3.31      0.00
  -13   15    5     -1.50      0.00
  -14   16    5     -0.97      0.00
  -15   17    5      2.77      0.00
  -16   18    5      1.24      0.00
  -17   19    5      0.17      0.00
  -18   20    5     -4.52      0.00
   -1    1    5     26.87      0.00
   -2    2    5     20.68      0.00
   -3    3    5    -20.56      0.00
   -4    4    5    -11.32      0.00
   -5    5    5     23.06      0.00
   -6    6    5    -12.01      0.00
   -7    7    5     -7.26      0.00
   -8    8    5      3.61      0.00
   -9    9    5     14.00      0.00
  -10   10    5     -9.51      0.00
  -11   11    5     -4.53      0.00
  -12   12    5      1.13      0.00
  -13   13    5      3.21      0.00
  -14   14    5     -0.38      0.00
  -15   15    5     -1.86      0.00
  -16   16    5     -0.07      0.00
  -17   17    5      0.27      0.00
  -18   18    5      2.27      0.00
  -19   19    5     -0.19      0.00
   -3    1    5     34.91      0.00
   -4    2    5     15.98      0.00
   -5    3    5    -26.92      0.00
   -6    4    5     -0.68      0.00
   -7    5    5      9.06      0.00
   -8    6    5      1.68      0.00
   -9    7    5     -7.44      0.00
  -10    8    5      0.02      0.00
  -11    9    5      7.71      0.00
  -12   10    5     -0.82      0.00
  -13   11    5     -5.87      0.00
  -14   12    5      1.06      0.00
  -15   13    5      1.40      0.00
  -16   14    5      1.75      0.00
  -17   15    5     -3.48      0.00
  -18   16    5      2.48      0.00
  -19   17    5     -1.26      0.00
  -20   18    5      2.92      0.00
   -5    1    5     35.42      0.00
   -6    2    5      3.42      0.00
   -7    3    5    -15.87      0.00
   -8    4    5      8.92      0.00
   -9    5    5      1.45      0.00
  -10    6    5     -2.87      0.00
  -11    7    5     -2.22      0.00
  -12    8    5     -1.87      0.00
  -13    9    5      5.50      0.00
  -14   10    5      3.30      0.00
  -15   11    5     -5.55      0.00
  -16   12    5     -0.66      0.00
  -17   13    5      1.88      0.00
  -18   14    5      2.34      0.00
  -19   15    5     -3.80      0.00
  -20   16    5      2.07      0.00
  -21   17    5     -1.85      0.00
   -7    1    5     42.46      0.00
   -8    2    5     -8.06      0.00
   -9    3    5    -12.21      0.00
  -10    4    5      7.29      0.00
  -11    5    5      2.47      0.00
  -12    6    5     -5.50      0.00
  -13    7    5      3.60      0.00
  -14    8    5     -3.05      0.00
  -15    9    5      1.89      0.00
  -16   10    5      2.60      0.00
  -17   11    5     -1.92      0.00
  -18   12    5     -1.22      0.00
  -19   13    5      2.31      0.00
  -20   14    5     -0.52      0.00
  -21   15    5     -1.61      0.00
  -22   16    5      0.56      0.00
   -9    1    5     38.47      0.00
  -10    2    5     -3.93      0.00
  -11    3    5    -19.94      0.00
  -12    4    5      7.26      0.00
  -13    5    5      4.42      0.00
  -14    6    5      0.02      0.00
  -15    7    5     -1.09      0.00
  -16    8    5     -2.50      0.00
  -17    9    5      0.68      0.00
  -18   10    5      2.93      0.00
  -19   11    5      0.16      0.00
  -20   12    5     -2.48      0.00
  -21   13    5      1.59      0.00
  -22   14    5     -2.27      0.00
  -23   15    5      4.47      0.00
  -24   16    5     -1.28      0.00
  -11    1    5     20.39      0.00
  -12    2    5      8.93      0.00
  -13    3    5    -16.26      0.00
  -14    4    5      3.50      0.00
  -15    5    5     -2.35      0.00
  -16    6    5      3.86      0.00
  -17    7    5     -1.79      0.00
  -18    8    5      1.81      0.00
  -19    9    5      1.05      0.00
  -20   10    5     -1.06      0.00
  -21   11    5     -0.68      0.00
  -22   12    5      0.06      0.00
  -23   13    5      3.75      0.00
  -24   14    5     -5.38      0.00
  -25   15    5      6.59      0.00
  -13    1    5      9.76      0.00
  -14    2    5      4.17      0.00
  -15    3    5     -4.48      0.00
  -16    4    5     -2.37      0.00
  -17    5    5     -1.99      0.00
  -18    6    5      3.58      0.00
  -19    7    5     -0.42      0.00
  -20    8    5      0.31      0.00
  -21    9    5      1.82      0.00
  -22   10    5     -1.16      0.00
  -23   11    5     -0.09      0.00
  -24   12    5      0.71      0.00
  -25   13    5      2.84      0.00
  -26   14    5     -7.54      0.00
  -15    1    5      9.95      0.00
  -16    2    5     -7.50      0.00
  -17    3    5      3.73      0.00
  -18    4    5     -2.26      0.00
  -19    5    5      0.90      0.00
  -20    6    5     -0.93      0.00
  -21    7    5     -1.38      0.00
  -22    8    5     -1.14      0.00
  -23    9    5      3.91      0.00
  -24   10    5      1.53      0.00
  -25   11    5     -1.78      0.00
  -26   12    5     -1.31      0.00
  -17    1    5      9.21      0.00
  -18    2    5     -6.65      0.00
  -19    3    5      1.41      0.00
  -20    4    5     -1.63      0.00
  -21    5    5     -0.18      0.00
  -22    6    5     -1.54      0.00
  -23    7    5      1.50      0.00
  -24    8    5     -0.86      0.00
  -25    9    5      0.91      0.00
  -26   10    5      1.47      0.00
  -27   11    5     -0.94      0.00
  -19    1    5      3.21      0.00
  -20    2    5     -2.42      0.00
  -21    3    5     -2.64      0.00
  -22    4    5      0.28      0.00
  -23    5    5      2.00      0.00
  -24    6    5     -1.51      0.00
  -25    7    5      1.16      0.00
  -26    8    5     -1.29      0.00
  -27    9    5     -0.69      0.00
  -28   10    5      2.49      0.00
  -21    1    5     -0.99      0.00
  -22    2    5     -0.40      0.00
  -23    3    5     -1.03      0.00
  -24    4    5      0.44      0.00
  -25    5    5      2.39      0.00
  -26    6    5     -3.66      0.00
  -27    7    5     -0.35      0.00
  -28    8    5      1.10      0.00
  -29    9    5      0.12      0.00
  -23    1    5     -1.24      0.00
  -24    2    5      0.18      0.00
  -25    3    5     -0.85      0.00
  -26    4    5     -2.95      0.00
  -27    5    5      2.51      0.00
  -28    6    5     -2.19      0.00
  -29    7    5      1.01      0.00
  -25    1    5     -1.67      0.00
  -26    2    5     -1.52      0.00
  -27    3    5     -0.46      0.00
  -28    4    5     -1.87      0.00
  -29    5    5      4.86      0.00
  -30    6    5     -3.67      0.00
  -27    1    5     -0.87      0.00
  -28    2    5     -1.12      0.00
  -29    3    5      0.83      0.00
  -30    4    5     -0.96      0.00
  -29    1    5      0.78      0.00
  -30    2    5     -0.43      0.00
  -31    3    5     -1.09      0.00
  -31    1    5      0.45      0.00
  -23   17    5     -0.49      0.00
   22   14    6      0.15      0.00
   21   15    6      4.31      0.00
   20   16    6     -3.31      0.00
   19   17    6      0.76      0.00
   18   18    6     -1.64      0.00
   25    9    6     -2.01      0.00
   24   10    6      0.18      0.00
   23   11    6     -1.98      0.00
   22   12    6      0.12      0.00
   21   13    6      1.13      0.00
   20   14    6     -1.62      0.00
   19   15    6      1.95      0.00
   18   16    6     -0.09      0.00
   17   17    6      1.25      0.00
   16   18    6     -2.55      0.00
   15   19    6      2.27      0.00
   14   20    6      3.74      0.00
   13   21    6     -4.78      0.00
   26    6    6     -0.72      0.00
   25    7    6     -0.97      0.00
   24    8    6      2.47      0.00
   23    9    6     -0.41      0.00
   22   10    6     -0.17      0.00
   21   11    6     -1.01      0.00
   20   12    6     -1.16      0.00
   19   13    6      0.38      0.00
   18   14    6     -2.60      0.00
   17   15    6      2.30      0.00
   16   16    6      3.44      0.00
   15   17    6     -1.05      0.00
   14   18    6     -5.48      0.00
   13   19    6      4.06      0.00
   12   20    6      4.22      0.00
   11   21    6     -1.57      0.00
   10   22    6     -3.46      0.00
   26    4    6      0.43      0.00
   25    5    6     -0.42      0.00
   24    6    6     -2.20      0.00
   23    7    6     -1.35      0.00
   22    8    6      2.74      0.00
   21    9    6      1.26      0.00
   20   10    6     -2.80      0.00
   19   11    6     -1.20      0.00
   18   12    6     -0.27      0.00
   17   13    6      1.70      0.00
   16   14    6     -1.36      0.00
   15   15    6     -0.87      0.00
   14   16    6      1.08      0.00
   13   17    6      0.83      0.00
   12   18    6     -1.53      0.00
   11   19    6      4.60      0.00
   10   20    6     -1.81      0.00
    9   21    6      1.50      0.00
    8   22    6     -1.75      0.00
    7   23    6     -1.05      0.00
   27    1    6     -0.43      0.00
   26    2    6      5.85      0.00
   25    3    6     -3.43      0.00
   24    4    6      0.36      0.00
   23    5    6      0.22      0.00
   22    6    6      0.19      0.00
   21    7    6     -3.18      0.00
   20    8    6      0.28      0.00
   19    9    6      2.57      0.00
   18   10    6     -2.34      0.00
   17   11    6     -0.45      0.00
   16   12    6      2.50      0.00
   15   13    6     -2.19      0.00
   14   14    6     -3.09      0.00
   13   15    6      0.49      0.00
   12   16    6      4.98      0.00
   11   17    6      1.21      0.00
   10   18    6     -5.06      0.00
    9   19    6      2.14      0.00
    8   20    6     -0.31      0.00
    7   21    6      4.42      0.00
    6   22    6     -1.40      0.00
    5   23    6     -7.98      0.00
   26    0    6      2.74      0.00
   25    1    6     -3.51      0.00
   24    2    6      6.83      0.00
   23    3    6     -3.83      0.00
   22    4    6      0.81      0.00
   21    5    6     -1.95      0.00
   20    6    6      1.52      0.00
   19    7    6     -2.31      0.00
   18    8    6     -0.75      0.00
   17    9    6      4.23      0.00
   16   10    6     -1.48      0.00
   15   11    6     -3.21      0.00
   14   12    6      2.07      0.00
   13   13    6     -2.33      0.00
   12   14    6      0.71      0.00
   11   15    6      1.91      0.00
   10   16    6      1.08      0.00
    9   17    6     -3.16      0.00
    8   18    6     -3.28      0.00
    7   19    6      5.22      0.00
    6   20    6      0.17      0.00
    5   21    6      0.55      0.00
    4   22    6     -0.64      0.00
    3   23    6     -7.98      0.00
   24    0    6      3.60      0.00
   23    1    6     -4.62      0.00
   22    2    6      6.85      0.00
   21    3    6     -1.57      0.00
   20    4    6     -2.20      0.00
   19    5    6     -3.21      0.00
   18    6    6      3.89      0.00
   17    7    6      1.39      0.00
   16    8    6     -3.63      0.00
   15    9    6      3.90      0.00
   14   10    6     -3.72      0.00
   13   11    6     -3.52      0.00
   12   12    6      5.63      0.00
   11   13    6      1.99      0.00
   10   14    6     -5.09      0.00
    9   15    6     -3.82      0.00
    8   16    6      2.31      0.00
    7   17    6      3.87      0.00
    6   18    6     -1.25      0.00
    5   19    6      0.25      0.00
    4   20    6     -3.28      0.00
    3   21    6      4.15      0.00
    2   22    6      2.21      0.00
    1   23    6     -6.50      0.00
    0   24    6      5.79      0.00
   22    0    6      5.83      0.00
   21    1    6     -4.37      0.00
   20    2    6     -0.01      0.00
   19    3    6      3.72      0.00
   18    4    6     -0.54      0.00
   17    5    6     -1.68      0.00
   16    6    6      0.33      0.00
   15    7    6      1.44      0.00
   14    8    6     -6.74      0.00
   13    9    6      6.14      0.00
   12   10    6     -0.51      0.00
   11   11    6      0.48      0.00
   10   12    6     -1.15      0.00
    9   13    6     -1.88      0.00
    8   14    6     -6.00      0.00
    7   15    6      6.04      0.00
    6   16    6      4.81      0.00
    5   17    6     -0.49      0.00
    4   18    6     -6.60      0.00
    3   19    6      0.92      0.00
    2   20    6      0.96      0.00
    1   21    6      5.84      0.00
    0   22    6     -2.84      0.00
   -1   23    6     -7.22      0.00
   -2   24    6      4.96      0.00
   20    0    6      1.06      0.00
   19    1    6      0.60      0.00
   18    2    6      0.26      0.00
   17    3    6      6.13      0.00
   16    4    6     -3.53      0.00
   15    5    6     -2.36      0.00
   14    6    6     -1.76      0.00
   13    7    6      0.29      0.00
   12    8    6      0.55      0.00
   11    9    6      8.16      0.00
   10   10    6     -4.94      0.00
    9   11    6     -4.37      0.00
    8   12    6     -2.56      0.00
    7   13    6      6.99      0.00
    6   14    6     -1.93      0.00
    5   15    6      4.07      0.00
    4   16    6     -5.51      0.00
    3   17    6     -1.68      0.00
    2   18    6      0.60      0.00
    1   19    6      2.88      0.00
    0   20    6     -1.04      0.00
   -1   21    6     -1.11      0.00
   -2   22    6     -0.67      0.00
   -3   23    6     -2.26      0.00
   -4   24    6      5.85      0.00
   18    0    6      1.37      0.00
   17    1    6      2.49      0.00
   16    2    6      0.64      0.00
   15    3    6      0.11      0.00
   14    4    6     -5.30      0.00
   13    5    6      0.24      0.00
   12    6    6      8.03      0.00
   11    7    6     -3.19      0.00
   10    8    6      0.70      0.00
    9    9    6     -4.88      0.00
    8   10    6     -3.22      0.00
    7   11    6      7.96      0.00
    6   12    6      5.01      0.00
    5   13    6     -2.56      0.00
    4   14    6    -13.26      0.00
    3   15    6      4.75      0.00
    2   16    6      2.69      0.00
    1   17    6      3.43      0.00
    0   18    6     -1.88      0.00
   -1   19    6     -4.90      0.00
   -2   20    6      1.44      0.00
   -3   21    6      0.64      0.00
   -4   22    6      4.31      0.00
   -5   23    6     -2.98      0.00
   16    0    6     -1.18      0.00
   15    1    6     -4.16      0.00
   14    2    6      2.39      0.00
   13    3    6      0.52      0.00
   12    4    6      3.06      0.00
   11    5    6      5.07      0.00
   10    6    6     -0.02      0.00
    9    7    6    -17.90      0.00
    8    8    6      4.88      0.00
    7    9    6      8.89      0.00
    6   10    6      5.23      0.00
    5   11    6     -1.77      0.00
    4   12    6     -8.95      0.00
    3   13    6     -4.07      0.00
    2   14    6      2.01      0.00
    1   15    6     10.47      0.00
    0   16    6     -2.04      0.00
   -1   17    6     -5.37      0.00
   -2   18    6     -1.88      0.00
   -3   19    6      1.43      0.00
   -4   20    6      5.39      0.00
   -5   21    6     -3.18      0.00
   -6   22    6     -1.14      0.00
   -7   23    6      0.07      0.00
   14    0    6     -5.71      0.00
   13    1    6     -1.56      0.00
   12    2    6     14.25      0.00
   11    3    6      5.55      0.00
   10    4    6    -12.65      0.00
    9    5    6     -5.08      0.00
    8    6    6     -1.21      0.00
    7    7    6     11.37      0.00
    6    8    6      7.14      0.00
    5    9    6     -5.21      0.00
    4   10    6    -13.10      0.00
    3   11    6      4.23      0.00
    2   12    6      5.43      0.00
    1   13    6      3.19      0.00
    0   14    6     -0.65      0.00
   -1   15    6     -4.48      0.00
   -2   16    6     -2.63      0.00
   -3   17    6      0.98      0.00
   -4   18    6      3.47      0.00
   -5   19    6      0.01      0.00
   -6   20    6     -0.97      0.00
   -7   21    6     -3.48      0.00
   -8   22    6     -0.30      0.00
   -9   23    6      4.77      0.00
   12    0    6      1.60      0.00
   11    1    6      0.78      0.00
   10    2    6      1.19      0.00
    9    3    6     -7.83      0.00
    8    4    6     -6.86      0.00
    7    5    6     20.71      0.00
    6    6    6      3.46      0.00
    5    7    6      3.00      0.00
    4    8    6    -22.28      0.00
    3    9    6     -5.68      0.00
    2   10    6     11.89      0.00
    1   11    6     21.11      0.00
    0   12    6     -9.14      0.00
   -1   13    6    -16.46      0.00
   -2   14    6      2.35      0.00
   -3   15    6      4.37      0.00
   -4   16    6      5.78      0.00
   -5   17    6     -4.02      0.00
   -6   18    6     -3.99      0.00
   -7   19    6     -1.21      0.00
   -8   20    6      5.81      0.00
   -9   21    6     -0.95      0.00
  -10   22    6     -2.47      0.00
   10    0    6    -13.26      0.00
    9    1    6    -16.70      0.00
    8    2    6      6.90      0.00
    7    3    6     20.02      0.00
    6    4    6     16.76      0.00
    5    5    6    -11.57      0.00
    4    6    6    -33.21      0.00
    3    7    6      9.39      0.00
    2    8    6     21.09      0.00
    1    9    6      2.68      0.00
    0   10    6     -8.12      0.00
   -1   11    6     -2.31      0.00
   -2   12    6     -5.52      0.00
   -3   13    6      1.07      0.00
   -4   14    6     10.12      0.00
   -5   15    6     -2.45      0.00
   -6   16    6     -4.13      0.00
   -7   17    6     -2.43      0.00
   -8   18    6      1.29      0.00
   -9   19    6      0.08      0.00
  -10   20    6      7.09      0.00
  -11   21    6     -5.14      0.00
  -12   22    6     -1.67      0.00
    8    0    6    -16.40      0.00
    7    1    6     26.40      0.00
    6    2    6     18.13      0.00
    5    3    6    -16.22      0.00
    4    4    6    -17.12      0.00
    3    5    6     -1.73      0.00
    2    6    6      9.85      0.00
    1    7    6     22.01      0.00
    0    8    6      3.78      0.00
   -1    9    6    -29.97      0.00
   -2   10    6     -6.19      0.00
   -3   11    6     18.20      0.00
   -4   12    6      7.96      0.00
   -5   13    6     -3.93      0.00
   -6   14    6     -6.92      0.00
   -7   15    6     -0.96      0.00
   -8   16    6     -1.02      0.00
   -9   17    6      6.93      0.00
  -10   18    6     -1.66      0.00
  -11   19    6     -5.70      0.00
  -12   20    6      6.70      0.00
  -13   21    6     -2.16      0.00
    6    0    6    -24.36      0.00
    5    1    6      1.02      0.00
    4    2    6    -25.73      0.00
    3    3    6      0.43      0.00
    2    4    6     28.96      0.00
    1    5    6     30.64      0.00
    0    6    6    -27.50      0.00
   -1    7    6    -21.84      0.00
   -2    8    6      5.61      0.00
   -3    9    6      9.38      0.00
   -4   10    6     10.29      0.00
   -5   11    6     -0.46      0.00
   -6   12    6    -10.95      0.00
   -7   13    6     -1.63      0.00
   -8   14    6      2.51      0.00
   -9   15    6      8.22      0.00
  -10   16    6     -9.10      0.00
  -11   17    6      2.32      0.00
  -12   18    6     -0.43      0.00
  -13   19    6     -1.53      0.00
  -14   20    6      4.17      0.00
  -15   21    6     -1.59      0.00
    4    0    6    -70.95      0.00
    3    1    6      1.85      0.00
    2    2    6     38.29      0.00
    1    3    6     33.61      0.00
    0    4    6    -14.00      0.00
   -1    5    6    -20.09      0.00
   -2    6    6    -26.73      0.00
   -3    7    6     24.17      0.00
   -4    8    6     22.97      0.00
   -5    9    6     -5.28      0.00
   -6   10    6    -14.68      0.00
   -7   11    6     -4.80      0.00
   -8   12    6      7.53      0.00
   -9   13    6      3.89      0.00
  -10   14    6     -0.77      0.00
  -11   15    6      1.33      0.00
  -12   16    6     -8.64      0.00
  -13   17    6      2.24      0.00
  -14   18    6      5.04      0.00
  -15   19    6     -1.77      0.00
  -16   20    6     -1.08      0.00
    2    0    6     22.37      0.00
    1    1    6      6.12      0.00
    0    2    6     -6.80      0.00
   -1    3    6    -35.01      0.00
   -2    4    6      6.85      0.00
   -3    5    6     31.41      0.00
   -4    6    6      0.87      0.00
   -5    7    6     -5.42      0.00
   -6    8    6    -12.05      0.00
   -7    9    6      0.48      0.00
   -8   10    6      4.91      0.00
   -9   11    6      2.03      0.00
  -10   12    6      6.17      0.00
  -11   13    6     -8.25      0.00
  -12   14    6     -1.57      0.00
  -13   15    6      5.29      0.00
  -14   16    6     -1.49      0.00
  -15   17    6     -4.28      0.00
  -16   18    6      5.08      0.00
  -17   19    6      0.16      0.00
  -18   20    6     -1.32      0.00
    0    0    6     -4.78      0.00
   -1    1    6    -63.07      0.00
   -2    2    6     -0.06      0.00
   -3    3    6     19.26      0.00
   -4    4    6     45.37      0.00
   -5    5    6     -0.48      0.00
   -6    6    6    -32.98      0.00
   -7    7    6    -10.92      0.00
   -8    8    6      7.20      0.00
   -9    9    6     21.98      0.00
  -10   10    6     -3.65      0.00
  -11   11    6    -11.82      0.00
  -12   12    6      4.55      0.00
  -13   13    6      0.21      0.00
  -14   14    6     -0.97      0.00
  -15   15    6      3.64      0.00
  -16   16    6     -2.37      0.00
  -17   17    6     -4.75      0.00
  -18   18    6      6.09      0.00
  -19   19    6      1.30      0.00
   -2    0    6     -3.43      0.00
   -3    1    6     24.13      0.00
   -4    2    6     28.12      0.00
   -5    3    6    -15.28      0.00
   -6    4    6    -13.99      0.00
   -7    5    6     -1.69      0.00
   -8    6    6     10.48      0.00
   -9    7    6      7.01      0.00
  -10    8    6    -12.13      0.00
  -11    9    6      9.10      0.00
  -12   10    6     -2.98      0.00
  -13   11    6     -5.53      0.00
  -14   12    6      4.48      0.00
  -15   13    6      4.60      0.00
  -16   14    6     -6.26      0.00
  -17   15    6      2.32      0.00
  -18   16    6     -1.03      0.00
  -19   17    6     -0.77      0.00
  -20   18    6      1.74      0.00
   -4    0    6     17.30      0.00
   -5    1    6     -5.64      0.00
   -6    2    6    -35.98      0.00
   -7    3    6     -6.97      0.00
   -8    4    6     19.05      0.00
   -9    5    6     14.19      0.00
  -10    6    6      2.47      0.00
  -11    7    6     -9.73      0.00
  -12    8    6    -14.17      0.00
  -13    9    6     11.32      0.00
  -14   10    6      6.33      0.00
  -15   11    6     -6.18      0.00
  -16   12    6     -2.11      0.00
  -17   13    6      5.34      0.00
  -18   14    6     -1.97      0.00
  -19   15    6      1.25      0.00
  -20   16    6     -2.74      0.00
  -21   17    6      1.22      0.00
   -6    0    6    -46.90      0.00
   -7    1    6     -3.91      0.00
   -8    2    6     10.24      0.00
   -9    3    6     20.81      0.00
  -10    4    6     -0.72      0.00
  -11    5    6    -11.91      0.00
  -12    6    6     -0.03      0.00
  -13    7    6      1.22      0.00
  -14    8    6     -1.72      0.00
  -15    9    6      2.38      0.00
  -16   10    6      5.20      0.00
  -17   11    6     -4.89      0.00
  -18   12    6     -1.76      0.00
  -19   13    6      2.14      0.00
  -20   14    6      3.07      0.00
  -21   15    6     -1.49      0.00
  -22   16    6     -3.41      0.00
   -8    0    6      1.49      0.00
   -9    1    6     24.35      0.00
  -10    2    6     -3.06      0.00
  -11    3    6     -8.37      0.00
  -12    4    6     -9.95      0.00
  -13    5    6      5.85      0.00
  -14    6    6      5.48      0.00
  -15    7    6     -2.53      0.00
  -16    8    6      0.71      0.00
  -17    9    6     -2.55      0.00
  -18   10    6      3.60      0.00
  -19   11    6     -1.64      0.00
  -20   12    6      0.95      0.00
  -21   13    6     -4.66      0.00
  -22   14    6      5.02      0.00
  -23   15    6     -0.44      0.00
  -24   16    6     -1.81      0.00
  -10    0    6    -15.93      0.00
  -11    1    6    -12.49      0.00
  -12    2    6     -1.52      0.00
  -13    3    6      8.31      0.00
  -14    4    6     -2.30      0.00
  -15    5    6      4.82      0.00
  -16    6    6     -1.09      0.00
  -17    7    6     -7.72      0.00
  -18    8    6      5.58      0.00
  -19    9    6     -2.01      0.00
  -20   10    6      1.56      0.00
  -21   11    6     -2.32      0.00
  -22   12    6      3.38      0.00
  -23   13    6     -5.89      0.00
  -24   14    6      5.35      0.00
  -25   15    6     -0.58      0.00
  -12    0    6    -12.08      0.00
  -13    1    6     -1.23      0.00
  -14    2    6     13.75      0.00
  -15    3    6      1.95      0.00
  -16    4    6     -5.27      0.00
  -17    5    6      0.64      0.00
  -18    6    6     -0.49      0.00
  -19    7    6     -8.17      0.00
  -20    8    6      6.88      0.00
  -21    9    6     -0.88      0.00
  -22   10    6      0.59      0.00
  -23   11    6     -1.70      0.00
  -24   12    6      3.95      0.00
  -25   13    6     -4.30      0.00
  -26   14    6      2.92      0.00
  -14    0    6      6.02      0.00
  -15    1    6     -2.30      0.00
  -16    2    6      4.50      0.00
  -17    3    6     -5.20      0.00
  -18    4    6     -2.60      0.00
  -19    5    6      3.74      0.00
  -20    6    6      0.07      0.00
  -21    7    6     -4.15      0.00
  -22    8    6      1.98      0.00
  -23    9    6      0.03      0.00
  -24   10    6      0.67      0.00
  -25   11    6      0.89      0.00
  -26   12    6      0.22      0.00
  -16    0    6     -7.09      0.00
  -17    1    6      0.04      0.00
  -18    2    6      2.59      0.00
  -19    3    6     -0.67      0.00
  -20    4    6     -2.58      0.00
  -21    5    6      5.34      0.00
  -22    6    6     -3.47      0.00
  -23    7    6      0.36      0.00
  -24    8    6     -0.79      0.00
  -25    9    6      0.32      0.00
  -26   10    6     -2.60      0.00
  -27   11    6      1.94      0.00
  -18    0    6     -7.06      0.00
  -19    1    6      3.35      0.00
  -20    2    6      2.96      0.00
  -21    3    6      1.08      0.00
  -22    4    6     -3.17      0.00
  -23    5    6      2.29      0.00
  -24    6    6     -4.21      0.00
  -25    7    6      1.63      0.00
  -26    8    6     -1.65      0.00
  -27    9    6      1.11      0.00
  -28   10    6     -1.76      0.00
  -20    0    6      1.67      0.00
  -21    1    6     -1.36      0.00
  -22    2    6      2.19      0.00
  -23    3    6     -2.42      0.00
  -24    4    6      0.89      0.00
  -25    5    6     -0.16      0.00
  -26    6    6     -3.42      0.00
  -27    7    6      1.35      0.00
  -28    8    6      0.06      0.00
  -29    9    6      1.91      0.00
  -22    0    6      4.63      0.00
  -23    1    6     -4.02      0.00
  -24    2    6      5.38      0.00
  -25    3    6     -4.76      0.00
  -26    4    6      2.21      0.00
  -27    5    6     -0.94      0.00
  -28    6    6     -0.65      0.00
  -29    7    6      1.94      0.00
  -24    0    6      5.49      0.00
  -25    1    6     -3.03      0.00
  -26    2    6      4.63      0.00
  -27    3    6     -5.12      0.00
  -28    4    6      4.38      0.00
  -29    5    6     -0.04      0.00
  -30    6    6     -2.93      0.00
  -26    0    6      1.81      0.00
  -27    1    6     -2.97      0.00
  -28    2    6      4.88      0.00
  -29    3    6     -1.87      0.00
  -30    4    6      1.28      0.00
  -28    0    6      2.09      0.00
  -29    1    6      0.04      0.00
  -30    2    6      1.22      0.00
  -31    3    6     -1.35      0.00
   -6   24    6      0.27      0.00
  -30    0    6      1.12      0.00
  -31    1    6     -1.88      0.00
  -11   23    6      2.18      0.00
  -14   22    6     -0.77      0.00
  -23   17    6      3.66      0.00
   23   11    7      1.31      0.00
   22   12    7     -3.17      0.00
   21   13    7      2.18      0.00
   20   14    7     -1.70      0.00
   19   15    7     -1.72      0.00
   18   16    7      3.85      0.00
   17   17    7     -4.17      0.00
   16   18    7      0.45      0.00
   15   19    7     -0.66      0.00
   25    7    7     -6.06      0.00
   24    8    7     -0.53      0.00
   23    9    7      2.18      0.00
   22   10    7      1.36      0.00
   21   11    7      2.16      0.00
   20   12    7     -5.09      0.00
   19   13    7      3.55      0.00
   18   14    7     -1.01      0.00
   17   15    7     -4.83      0.00
   16   16    7      3.06      0.00
   15   17    7     -2.28      0.00
   14   18    7      3.56      0.00
   13   19    7     -0.74      0.00
   12   20    7     -0.04      0.00
   11   21    7     -2.54      0.00
   26    4    7      5.13      0.00
   25    5    7     -3.15      0.00
   24    6    7      2.92      0.00
   23    7    7     -4.22      0.00
   22    8    7      0.49      0.00
   21    9    7      3.45      0.00
   20   10    7     -2.01      0.00
   19   11    7      3.05      0.00
   18   12    7     -4.80      0.00
   17   13    7      2.71      0.00
   16   14    7     -1.75      0.00
   15   15    7     -2.83      0.00
   14   16    7      4.79      0.00
   13   17    7     -2.08      0.00
   12   18    7     -0.49      0.00
   11   19    7     -1.74      0.00
   10   20    7      0.79      0.00
    9   21    7     -1.29      0.00
    8   22    7      5.87      0.00
   26    2    7     -0.64      0.00
   25    3    7     -2.29      0.00
   24    4    7      2.73      0.00
   23    5    7     -1.02      0.00
   22    6    7      4.64      0.00
   21    7    7     -3.47      0.00
   20    8    7     -1.93      0.00
   19    9    7      3.26      0.00
   18   10    7     -1.31      0.00
   17   11    7      2.51      0.00
   16   12    7     -5.35      0.00
   15   13    7      3.15      0.00
   14   14    7      0.54      0.00
   13   15    7     -1.15      0.00
   12   16    7     -0.88      0.00
   11   17    7     -1.70      0.00
   10   18    7     -0.81      0.00
    9   19    7      1.98      0.00
    8   20    7      0.66      0.00
    7   21    7     -2.03      0.00
    6   22    7      5.21      0.00
    5   23    7     -1.20      0.00
   25    1    7      2.07      0.00
   24    2    7     -0.05      0.00
   23    3    7     -1.28      0.00
   22    4    7      2.70      0.00
   21    5    7     -0.34      0.00
   20    6    7      2.20      0.00
   19    7    7     -3.52      0.00
   18    8    7      0.08      0.00
   17    9    7      0.67      0.00
   16   10    7     -0.12      0.00
   15   11    7      2.75      0.00
   14   12    7     -0.69      0.00
   13   13    7     -0.04      0.00
   12   14    7     -2.99      0.00
   11   15    7     -1.06      0.00
   10   16    7      0.15      0.00
    9   17    7      3.86      0.00
    8   18    7     -1.97      0.00
    7   19    7     -0.21      0.00
    6   20    7      0.02      0.00
    5   21    7     -1.90      0.00
    4   22    7      5.68      0.00
    3   23    7     -2.41      0.00
   23    1    7      1.04      0.00
   22    2    7      1.37      0.00
   21    3    7      0.29      0.00
   20    4    7      1.07      0.00
   19    5    7     -0.70      0.00
   18    6    7      0.67      0.00
   17    7    7     -3.26      0.00
   16    8    7      2.29      0.00
   15    9    7     -0.03      0.00
   14   10    7      3.02      0.00
   13   11    7     -0.66      0.00
   12   12    7     -1.00      0.00
   11   13    7     -1.28      0.00
   10   14    7      0.35      0.00
    9   15    7     -0.13      0.00
    8   16    7     -0.60      0.00
    7   17    7      1.53      0.00
    6   18    7     -0.76      0.00
    5   19    7     -0.32      0.00
    4   20    7      0.45      0.00
    3   21    7     -4.94      0.00
    2   22    7      5.46      0.00
    1   23    7     -0.76      0.00
   21    1    7      0.53      0.00
   20    2    7      0.83      0.00
   19    3    7     -1.38      0.00
   18    4    7      1.67      0.00
   17    5    7      1.87      0.00
   16    6    7     -0.45      0.00
   15    7    7     -1.93      0.00
   14    8    7      2.36      0.00
   13    9    7     -1.05      0.00
   12   10    7     -0.19      0.00
   11   11    7     -1.06      0.00
   10   12    7      2.65      0.00
    9   13    7      2.91      0.00
    8   14    7     -2.15      0.00
    7   15    7     -5.79      0.00
    6   16    7      2.06      0.00
    5   17    7      0.02      0.00
    4   18    7      1.91      0.00
    3   19    7     -0.07      0.00
    2   20    7      0.19      0.00
    1   21    7     -4.17      0.00
    0   22    7      4.07      0.00
   -1   23    7      1.07      0.00
   19    1    7     -1.08      0.00
   18    2    7      3.19      0.00
   17    3    7     -2.84      0.00
   16    4    7      0.89      0.00
   15    5    7      4.32      0.00
   14    6    7      0.75      0.00
   13    7    7     -1.16      0.00
   12    8    7     -6.91      0.00
   11    9    7      1.45      0.00
   10   10    7      3.89      0.00
    9   11    7      3.61      0.00
    8   12    7     -4.08      0.00
    7   13    7      1.70      0.00
    6   14    7     -1.04      0.00
    5   15    7     -3.35      0.00
    4   16    7      5.27      0.00
    3   17    7     -5.23      0.00
    2   18    7      1.55      0.00
    1   19    7      4.45      0.00
    0   20    7     -0.59      0.00
   -1   21    7     -2.97      0.00
   -2   22    7     -0.97      0.00
   -3   23    7      2.55      0.00
   17    1    7     -3.03      0.00
   16    2    7      4.24      0.00
   15    3    7     -0.22      0.00
   14    4    7     -0.57      0.00
   13    5    7      0.22      0.00
   12    6    7     -2.76      0.00
   11    7    7      6.05      0.00
   10    8    7     -5.94      0.00
    9    9    7      3.79      0.00
    8   10    7     -0.78      0.00
    7   11    7      0.52      0.00
    6   12    7     -3.64      0.00
    5   13    7      7.08      0.00
    4   14    7     -0.06      0.00
    3   15    7     -5.22      0.00
    2   16    7      4.21      0.00
    1   17    7     -4.02      0.00
    0   18    7     -0.09      0.00
   -1   19    7      4.31      0.00
   -2   20    7     -2.23      0.00
   -3   21    7     -0.67      0.00
   -4   22    7     -0.92      0.00
   -5   23    7      2.57      0.00
   15    1    7     -2.78      0.00
   14    2    7      0.47      0.00
   13    3    7      1.43      0.00
   12    4    7     -1.38      0.00
   11    5    7     -1.46      0.00
   10    6    7      0.57      0.00
    9    7    7     11.11      0.00
    8    8    7     -6.91      0.00
    7    9    7     -5.09      0.00
    6   10    7      1.71      0.00
    5   11    7      1.92      0.00
    4   12    7      1.87      0.00
    3   13    7      2.16      0.00
    2   14    7     -2.88      0.00
    1   15    7     -1.96      0.00
    0   16    7      3.87      0.00
   -1   17    7     -2.38      0.00
   -2   18    7     -4.18      0.00
   -3   19    7      3.72      0.00
   -4   20    7      3.16      0.00
   -5   21    7     -2.29      0.00
   -6   22    7     -1.40      0.00
   -7   23    7      1.12      0.00
   13    1    7     -2.75      0.00
   12    2    7     -3.44      0.00
   11    3    7      4.02      0.00
   10    4    7      3.78      0.00
    9    5    7     -1.84      0.00
    8    6    7     -1.26      0.00
    7    7    7      2.59      0.00
    6    8    7     -2.37      0.00
    5    9    7     -4.32      0.00
    4   10    7      9.22      0.00
    3   11    7     -6.20      0.00
    2   12    7      1.91      0.00
    1   13    7      0.24      0.00
    0   14    7      0.20      0.00
   -1   15    7      0.73      0.00
   -2   16    7     -0.80      0.00
   -3   17    7      1.68      0.00
   -4   18    7     -2.64      0.00
   -5   19    7      0.57      0.00
   -6   20    7      3.32      0.00
   -7   21    7     -4.52      0.00
   -8   22    7      2.04      0.00
   -9   23    7      1.24      0.00
   11    1    7     -4.18      0.00
   10    2    7     -3.88      0.00
    9    3    7      9.29      0.00
    8    4    7     -0.97      0.00
    7    5    7     -8.16      0.00
    6    6    7      0.59      0.00
    5    7    7      6.70      0.00
    4    8    7      0.13      0.00
    3    9    7     -4.67      0.00
    2   10    7      5.67      0.00
    1   11    7     -7.25      0.00
    0   12    7      4.93      0.00
   -1   13    7      0.39      0.00
   -2   14    7     -0.74      0.00
   -3   15    7      2.39      0.00
   -4   16    7     -1.55      0.00
   -5   17    7      3.71      0.00
   -6   18    7     -4.96      0.00
   -7   19    7     -2.75      0.00
   -8   20    7      4.10      0.00
   -9   21    7      0.85      0.00
  -10   22    7      1.55      0.00
    9    1    7     -5.77      0.00
    8    2    7    -11.17      0.00
    7    3    7     10.82      0.00
    6    4    7     -0.10      0.00
    5    5    7     -5.09      0.00
    4    6    7      3.81      0.00
    3    7    7      7.30      0.00
    2    8    7     -7.99      0.00
    1    9    7      1.43      0.00
    0   10    7      1.56      0.00
   -1   11    7     -3.79      0.00
   -2   12    7      4.11      0.00
   -3   13    7      0.64      0.00
   -4   14    7     -0.51      0.00
   -5   15    7      1.48      0.00
   -6   16    7     -4.02      0.00
   -7   17    7      2.57      0.00
   -8   18    7     -1.29      0.00
   -9   19    7      0.25      0.00
  -10   20    7      0.17      0.00
  -11   21    7      0.72      0.00
  -12   22    7      0.13      0.00
    7    1    7     -9.20      0.00
    6    2    7     -9.61      0.00
    5    3    7      7.02      0.00
    4    4    7     11.13      0.00
    3    5    7    -10.31      0.00
    2    6    7      5.27      0.00
    1    7    7     -0.61      0.00
    0    8    7     -7.12      0.00
   -1    9    7      6.47      0.00
   -2   10    7      1.35      0.00
   -3   11    7     -3.67      0.00
   -4   12    7      1.92      0.00
   -5   13    7     -0.43      0.00
   -6   14    7      0.23      0.00
   -7   15    7      0.48      0.00
   -8   16    7     -2.31      0.00
   -9   17    7      3.61      0.00
  -10   18    7      1.06      0.00
  -11   19    7     -2.84      0.00
  -12   20    7     -2.82      0.00
  -13   21    7      2.04      0.00
    5    1    7    -14.36      0.00
    4    2    7      2.17      0.00
    3    3    7     -9.50      0.00
    2    4    7     16.85      0.00
    1    5    7    -15.13      0.00
    0    6    7     14.02      0.00
   -1    7    7    -10.43      0.00
   -2    8    7      2.57      0.00
   -3    9    7      1.15      0.00
   -4   10    7      3.21      0.00
   -5   11    7     -2.64      0.00
   -6   12    7     -1.99      0.00
   -7   13    7     -0.72      0.00
   -8   14    7      3.76      0.00
   -9   15    7      4.38      0.00
  -10   16    7     -5.13      0.00
  -11   17    7     -0.18      0.00
  -12   18    7      0.54      0.00
  -13   19    7     -1.15      0.00
  -14   20    7      1.73      0.00
  -15   21    7     -0.83      0.00
    3    1    7    -15.81      0.00
    2    2    7     -0.05      0.00
    1    3    7    -16.61      0.00
    0    4    7     15.28      0.00
   -1    5    7     -0.21      0.00
   -2    6    7     11.58      0.00
   -3    7    7    -17.37      0.00
   -4    8    7      9.89      0.00
   -5    9    7     -4.89      0.00
   -6   10    7     -1.23      0.00
   -7   11    7      6.32      0.00
   -8   12    7     -2.93      0.00
   -9   13    7      0.18      0.00
  -10   14    7      0.27      0.00
  -11   15    7      5.32      0.00
  -12   16    7     -8.85      0.00
  -13   17    7      2.63      0.00
  -14   18    7      1.04      0.00
  -15   19    7     -0.03      0.00
  -16   20    7      1.93      0.00
    1    1    7     -0.89      0.00
    0    2    7    -11.73      0.00
   -1    3    7    -12.62      0.00
   -2    4    7      2.58      0.00
   -3    5    7     23.67      0.00
   -4    6    7     -2.45      0.00
   -5    7    7    -20.94      0.00
   -6    8    7     11.49      0.00
   -7    9    7      1.07      0.00
   -8   10    7     -7.44      0.00
   -9   11    7     11.12      0.00
  -10   12    7     -4.26      0.00
  -11   13    7     -1.40      0.00
  -12   14    7     -3.05      0.00
  -13   15    7      6.98      0.00
  -14   16    7     -5.77      0.00
  -15   17    7      3.89      0.00
  -16   18    7     -3.23      0.00
  -17   19    7      0.10      0.00
  -18   20    7      3.44      0.00
   -1    1    7     16.76      0.00
   -2    2    7    -10.83      0.00
   -3    3    7    -20.82      0.00
   -4    4    7     -9.99      0.00
   -5    5    7     32.98      0.00
   -6    6    7     -0.77      0.00
   -7    7    7    -19.96      0.00
   -8    8    7      7.92      0.00
   -9    9    7      5.21      0.00
  -10   10    7     -8.33      0.00
  -11   11    7      4.59      0.00
  -12   12    7     -1.91      0.00
  -13   13    7      0.95      0.00
  -14   14    7      0.47      0.00
  -15   15    7      2.04      0.00
  -16   16    7     -3.15      0.00
  -17   17    7      1.94      0.00
  -18   18    7     -2.59      0.00
  -19   19    7      1.00      0.00
   -3    1    7     15.27      0.00
   -4    2    7      3.02      0.00
   -5    3    7    -31.47      0.00
   -6    4    7     -3.72      0.00
   -7    5    7     21.98      0.00
   -8    6    7      9.37      0.00
   -9    7    7    -17.95      0.00
  -10    8    7      1.16      0.00
  -11    9    7      2.24      0.00
  -12   10    7      0.95      0.00
  -13   11    7     -1.46      0.00
  -14   12    7     -0.22      0.00
  -15   13    7      2.29      0.00
  -16   14    7      2.78      0.00
  -17   15    7     -4.36      0.00
  -18   16    7      0.30      0.00
  -19   17    7      1.02      0.00
  -20   18    7     -1.20      0.00
   -5    1    7      8.23      0.00
   -6    2    7      9.30      0.00
   -7    3    7    -27.99      0.00
   -8    4    7      7.58      0.00
   -9    5    7      4.70      0.00
  -10    6    7      7.17      0.00
  -11    7    7     -9.29      0.00
  -12    8    7     -0.42      0.00
  -13    9    7     -0.78      0.00
  -14   10    7      7.69      0.00
  -15   11    7     -3.76      0.00
  -16   12    7     -4.02      0.00
  -17   13    7      2.29      0.00
  -18   14    7      4.53      0.00
  -19   15    7     -4.79      0.00
  -20   16    7     -0.60      0.00
  -21   17    7      0.77      0.00
   -7    1    7     12.80      0.00
   -8    2    7     -0.52      0.00
   -9    3    7    -22.63      0.00
  -10    4    7     10.01      0.00
  -11    5    7      4.67      0.00
  -12    6    7      0.92      0.00
  -13    7    7     -2.22      0.00
  -14    8    7     -3.17      0.00
  -15    9    7     -1.96      0.00
  -16   10    7      7.15      0.00
  -17   11    7     -2.14      0.00
  -18   12    7     -4.99      0.00
  -19   13    7      1.09      0.00
  -20   14    7      3.83      0.00
  -21   15    7     -1.35      0.00
  -22   16    7     -2.58      0.00
   -9    1    7     17.37      0.00
  -10    2    7     -6.91      0.00
  -11    3    7    -16.91      0.00
  -12    4    7      7.50      0.00
  -13    5    7      9.79      0.00
  -14    6    7     -2.72      0.00
  -15    7    7     -1.62      0.00
  -16    8    7     -6.85      0.00
  -17    9    7      1.12      0.00
  -18   10    7      5.45      0.00
  -19   11    7     -0.92      0.00
  -20   12    7     -2.64      0.00
  -21   13    7     -0.97      0.00
  -22   14    7      3.33      0.00
  -23   15    7      1.90      0.00
  -24   16    7     -4.43      0.00
  -11    1    7     15.03      0.00
  -12    2    7     -3.76      0.00
  -13    3    7    -10.42      0.00
  -14    4    7      1.12      0.00
  -15    5    7      7.53      0.00
  -16    6    7     -1.05      0.00
  -17    7    7      0.91      0.00
  -18    8    7     -7.76      0.00
  -19    9    7      3.53      0.00
  -20   10    7      2.74      0.00
  -21   11    7     -1.60      0.00
  -22   12    7      0.55      0.00
  -23   13    7     -2.16      0.00
  -24   14    7      2.30      0.00
  -25   15    7      0.75      0.00
  -13    1    7     11.23      0.00
  -14    2    7     -3.70      0.00
  -15    3    7     -5.30      0.00
  -16    4    7     -0.35      0.00
  -17    5    7      4.41      0.00
  -18    6    7      1.27      0.00
  -19    7    7      1.93      0.00
  -20    8    7     -6.76      0.00
  -21    9    7      1.47      0.00
  -22   10    7      1.82      0.00
  -23   11    7     -0.29      0.00
  -24   12    7      0.17      0.00
  -25   13    7     -4.79      0.00
  -26   14    7      3.64      0.00
  -15    1    7      8.31      0.00
  -16    2    7     -1.85      0.00
  -17    3    7     -3.55      0.00
  -18    4    7      2.31      0.00
  -19    5    7      0.89      0.00
  -20    6    7      0.89      0.00
  -21    7    7     -1.31      0.00
  -22    8    7     -1.66      0.00
  -23    9    7     -0.33      0.00
  -24   10    7      0.47      0.00
  -25   11    7      1.30      0.00
  -26   12    7     -0.17      0.00
  -17    1    7      3.67      0.00
  -18    2    7      2.72      0.00
  -19    3    7     -4.58      0.00
  -20    4    7      3.88      0.00
  -21    5    7     -1.50      0.00
  -22    6    7      1.03      0.00
  -23    7    7     -3.11      0.00
  -24    8    7      2.76      0.00
  -25    9    7     -0.75      0.00
  -26   10    7     -1.88      0.00
  -27   11    7      2.90      0.00
  -19    1    7     -0.06      0.00
  -20    2    7      2.38      0.00
  -21    3    7     -3.09      0.00
  -22    4    7      5.09      0.00
  -23    5    7     -0.41      0.00
  -24    6    7      1.53      0.00
  -25    7    7     -5.06      0.00
  -26    8    7      1.82      0.00
  -27    9    7      1.09      0.00
  -28   10    7     -0.93      0.00
  -21    1    7      1.54      0.00
  -22    2    7     -1.01      0.00
  -23    3    7     -0.58      0.00
  -24    4    7      4.58      0.00
  -25    5    7     -1.56      0.00
  -26    6    7      2.69      0.00
  -27    7    7     -4.99      0.00
  -28    8    7      0.06      0.00
  -29    9    7      0.61      0.00
  -23    1    7      4.08      0.00
  -24    2    7     -3.15      0.00
  -25    3    7     -0.74      0.00
  -26    4    7      2.85      0.00
  -27    5    7     -2.33      0.00
  -28    6    7      4.96      0.00
  -29    7    7     -3.07      0.00
  -25    1    7      3.31      0.00
  -26    2    7     -3.40      0.00
  -27    3    7      1.08      0.00
  -28    4    7      2.44      0.00
  -29    5    7     -1.14      0.00
  -30    6    7      2.66      0.00
  -27    1    7      2.22      0.00
  -28    2    7     -1.81      0.00
  -29    3    7      2.27      0.00
  -30    4    7     -0.26      0.00
  -29    1    7      1.05      0.00
  -30    2    7     -1.37      0.00
  -31    3    7      0.61      0.00
  -31    1    7     -0.30      0.00
  -14   22    7      3.68      0.00
  -23   17    7      2.32      0.00
   21   13    8     -2.81      0.00
   20   14    8      3.47      0.00
   19   15    8     -1.41      0.00
   18   16    8     -1.20      0.00
   17   17    8     -2.74      0.00
   16   18    8      5.45      0.00
   24    8    8      2.97      0.00
   23    9    8     -3.57      0.00
   22   10    8      3.78      0.00
   21   11    8     -2.35      0.00
   20   12    8      3.04      0.00
   19   13    8     -4.27      0.00
   18   14    8      3.11      0.00
   17   15    8      1.31      0.00
   16   16    8     -0.36      0.00
   15   17    8     -4.20      0.00
   14   18    8      2.33      0.00
   13   19    8      0.30      0.00
   12   20    8     -3.15      0.00
   25    5    8     -3.95      0.00
   24    6    8      3.00      0.00
   23    7    8     -1.69      0.00
   22    8    8      1.87      0.00
   21    9    8     -3.28      0.00
   20   10    8      4.00      0.00
   19   11    8     -3.04      0.00
   18   12    8      4.11      0.00
   17   13    8     -2.23      0.00
   16   14    8      1.27      0.00
   15   15    8     -0.57      0.00
   14   16    8      0.43      0.00
   13   17    8     -1.35      0.00
   12   18    8      1.19      0.00
   11   19    8     -0.06      0.00
   10   20    8     -5.00      0.00
    9   21    8      6.25      0.00
   25    3    8      0.74      0.00
   24    4    8      3.16      0.00
   23    5    8     -2.67      0.00
   22    6    8      0.85      0.00
   21    7    8      0.20      0.00
   20    8    8     -1.18      0.00
   19    9    8     -1.28      0.00
   18   10    8      3.39      0.00
   17   11    8     -0.84      0.00
   16   12    8      3.22      0.00
   15   13    8     -2.52      0.00
   14   14    8     -0.95      0.00
   13   15    8      0.65      0.00
   12   16    8      3.78      0.00
   11   17    8     -2.85      0.00
   10   18    8     -0.41      0.00
    9   19    8     -0.75      0.00
    8   20    8     -4.33      0.00
    7   21    8      7.26      0.00
    6   22    8     -5.39      0.00
   25    1    8     -2.46      0.00
   24    2    8     -0.94      0.00
   23    3    8      0.05      0.00
   22    4    8      2.90      0.00
   21    5    8     -0.98      0.00
   20    6    8     -1.76      0.00
   19    7    8      3.57      0.00
   18    8    8     -2.29      0.00
   17    9    8      0.06      0.00
   16   10    8     -0.02      0.00
   15   11    8     -0.46      0.00
   14   12    8      2.46      0.00
   13   13    8      1.12      0.00
   12   14    8     -0.60      0.00
   11   15    8     -0.85      0.00
   10   16    8      1.19      0.00
    9   17    8     -4.46      0.00
    8   18    8      4.35      0.00
    7   19    8     -0.72      0.00
    6   20    8     -5.75      0.00
    5   21    8      5.28      0.00
    4   22    8     -1.75      0.00
    3   23    8      4.35      0.00
   24    0    8      3.41      0.00
   23    1    8     -3.87      0.00
   22    2    8     -0.70      0.00
   21    3    8     -0.81      0.00
   20    4    8      1.24      0.00
   19    5    8      2.21      0.00
   18    6    8     -0.72      0.00
   17    7    8      2.00      0.00
   16    8    8     -2.75      0.00
   15    9    8      0.37      0.00
   14   10    8     -2.84      0.00
   13   11    8      0.01      0.00
   12   12    8      6.31      0.00
   11   13    8      2.31      0.00
   10   14    8     -5.82      0.00
    9   15    8     -2.80      0.00
    8   16    8      4.81      0.00
    7   17    8     -1.37      0.00
    6   18    8      3.38      0.00
    5   19    8     -2.76      0.00
    4   20    8     -3.75      0.00
    3   21    8      4.71      0.00
    2   22    8     -1.90      0.00
    1   23    8      5.67      0.00
   22    0    8      4.45      0.00
   21    1    8     -3.39      0.00
   20    2    8     -2.29      0.00
   19    3    8      1.46      0.00
   18    4    8      0.47      0.00
   17    5    8      1.53      0.00
   16    6    8      1.42      0.00
   15    7    8     -2.73      0.00
   14    8    8     -2.62      0.00
   13    9    8      4.11      0.00
   12   10    8      0.40      0.00
   11   11    8     -3.30      0.00
   10   12    8      2.27      0.00
    9   13    8      0.06      0.00
    8   14    8     -0.37      0.00
    7   15    8      2.08      0.00
    6   16    8      3.90      0.00
    5   17    8     -5.63      0.00
    4   18    8     -1.48      0.00
    3   19    8      1.20      0.00
    2   20    8      1.66      0.00
    1   21    8      1.34      0.00
    0   22    8     -5.99      0.00
   -1   23    8      5.45      0.00
   20    0    8      0.66      0.00
   19    1    8      1.80      0.00
   18    2    8     -1.64      0.00
   17    3    8      2.09      0.00
   16    4    8     -3.78      0.00
   15    5    8     -2.15      0.00
   14    6    8      6.21      0.00
   13    7    8     -1.68      0.00
   12    8    8     -0.38      0.00
   11    9    8      3.84      0.00
   10   10    8     -3.71      0.00
    9   11    8     -6.30      0.00
    8   12    8      4.99      0.00
    7   13    8      4.47      0.00
    6   14    8      1.58      0.00
    5   15    8     -3.89      0.00
    4   16    8     -0.37      0.00
    3   17    8     -1.75      0.00
    2   18    8     -0.08      0.00
    1   19    8      1.68      0.00
    0   20    8      1.46      0.00
   -1   21    8     -1.16      0.00
   -2   22    8     -2.46      0.00
   -3   23    8      2.70      0.00
   18    0    8     -0.68      0.00
   17    1    8      1.70      0.00
   16    2    8     -3.29      0.00
   15    3    8      0.78      0.00
   14    4    8     -2.83      0.00
   13    5    8     -1.77      0.00
   12    6    8     11.25      0.00
   11    7    8     -3.22      0.00
   10    8    8     -5.42      0.00
    9    9    8     -1.13      0.00
    8   10    8     -0.40      0.00
    7   11    8      5.63      0.00
    6   12    8      3.26      0.00
    5   13    8     -6.30      0.00
    4   14    8     -4.54      0.00
    3   15    8      2.26      0.00
    2   16    8      7.73      0.00
    1   17    8      0.08      0.00
    0   18    8     -6.37      0.00
   -1   19    8     -1.94      0.00
   -2   20    8      4.72      0.00
   -3   21    8      1.83      0.00
   -4   22    8      0.19      0.00
   -5   23    8     -4.14      0.00
   16    0    8     -0.45      0.00
   15    1    8     -3.03      0.00
   14    2    8     -2.26      0.00
   13    3    8      2.89      0.00
   12    4    8      4.20      0.00
   11    5    8     -3.68      0.00
   10    6    8      0.61      0.00
    9    7    8     -9.25      0.00
    8    8    8      5.57      0.00
    7    9    8      9.04      0.00
    6   10    8     -4.76      0.00
    5   11    8     -1.88      0.00
    4   12    8     -4.28      0.00
    3   13    8      0.22      0.00
    2   14    8      3.11      0.00
    1   15    8      4.87      0.00
    0   16    8      0.79      0.00
   -1   17    8     -4.28      0.00
   -2   18    8     -3.69      0.00
   -3   19    8      2.79      0.00
   -4   20    8      3.51      0.00
   -5   21    8     -0.77      0.00
   -6   22    8     -2.81      0.00
   -7   23    8     -1.36      0.00
   14    0    8      3.39      0.00
   13    1    8      0.14      0.00
   12    2    8      3.70      0.00
   11    3    8     -1.52      0.00
   10    4    8     -8.21      0.00
    9    5    8     -5.16      0.00
    8    6    8     10.50      0.00
    7    7    8      3.92      0.00
    6    8    8      3.29      0.00
    5    9    8     -8.09      0.00
    4   10    8    -11.23      0.00
    3   11    8      9.43      0.00
    2   12    8      6.90      0.00
    1   13    8      0.48      0.00
    0   14    8     -7.66      0.00
   -1   15    8     -1.24      0.00
   -2   16    8      2.50      0.00
   -3   17    8      3.09      0.00
   -4   18    8     -1.37      0.00
   -5   19    8     -0.42      0.00
   -6   20    8     -2.40      0.00
   -7   21    8      3.01      0.00
   -8   22    8     -3.37      0.00
   12    0    8     12.21      0.00
   11    1    8     -3.96      0.00
   10    2    8     -9.09      0.00
    9    3    8     -4.80      0.00
    8    4    8      3.25      0.00
    7    5    8     10.14      0.00
    6    6    8      5.82      0.00
    5    7    8    -12.62      0.00
    4    8    8     -5.78      0.00
    3    9    8     -1.74      0.00
    2   10    8     11.43      0.00
    1   11    8      6.89      0.00
    0   12    8     -7.44      0.00
   -1   13    8     -9.40      0.00
   -2   14    8     -0.64      0.00
   -3   15    8      8.89      0.00
   -4   16    8      2.78      0.00
   -5   17    8     -2.97      0.00
   -6   18    8     -5.39      0.00
   -7   19    8      3.99      0.00
   -8   20    8      0.01      0.00
   -9   21    8      4.20      0.00
  -10   22    8     -7.30      0.00
   10    0    8      4.78      0.00
    9    1    8     -9.63      0.00
    8    2    8      1.93      0.00
    7    3    8     15.35      0.00
    6    4    8      1.78      0.00
    5    5    8    -21.77      0.00
    4    6    8    -10.53      0.00
    3    7    8     14.20      0.00
    2    8    8     20.56      0.00
    1    9    8    -14.05      0.00
    0   10    8     -4.59      0.00
   -1   11    8     -5.91      0.00
   -2   12    8      4.99      0.00
   -3   13    8      3.60      0.00
   -4   14    8      0.20      0.00
   -5   15    8      0.32      0.00
   -6   16    8     -2.01      0.00
   -7   17    8     -0.84      0.00
   -8   18    8     -1.64      0.00
   -9   19    8      6.88      0.00
  -10   20    8     -3.39      0.00
  -11   21    8      1.04      0.00
  -12   22    8     -4.84      0.00
    8    0    8     20.10      0.00
    7    1    8     17.71      0.00
    6    2    8    -10.66      0.00
    5    3    8    -18.25      0.00
    4    4    8     -7.34      0.00
    3    5    8      4.46      0.00
    2    6    8     10.46      0.00
    1    7    8     16.82      0.00
    0    8    8     -8.89      0.00
   -1    9    8    -28.19      0.00
   -2   10    8     11.84      0.00
   -3   11    8     11.30      0.00
   -4   12    8      3.53      0.00
   -5   13    8     -6.26      0.00
   -6   14    8     -8.09      0.00
   -7   15    8      3.63      0.00
   -8   16    8      6.45      0.00
   -9   17    8     -0.73      0.00
  -10   18    8     -7.38      0.00
  -11   19    8      5.21      0.00
  -12   20    8     -1.11      0.00
  -13   21    8      1.27      0.00
    6    0    8      2.99      0.00
    5    1    8     -7.49      0.00
    4    2    8    -24.60      0.00
    3    3    8      8.69      0.00
    2    4    8     26.60      0.00
    1    5    8      2.75      0.00
    0    6    8    -31.98      0.00
   -1    7    8      4.60      0.00
   -2    8    8      6.75      0.00
   -3    9    8      0.91      0.00
   -4   10    8      8.47      0.00
   -5   11    8     -4.98      0.00
   -6   12    8     -8.92      0.00
   -7   13    8      1.84      0.00
   -8   14    8      1.36      0.00
   -9   15    8      3.97      0.00
  -10   16    8      2.12      0.00
  -11   17    8     -5.31      0.00
  -12   18    8     -4.14      0.00
  -13   19    8      6.43      0.00
  -14   20    8     -0.13      0.00
  -15   21    8     -1.41      0.00
    4    0    8    -12.88      0.00
    3    1    8     18.40      0.00
    2    2    8     23.53      0.00
    1    3    8     -3.01      0.00
    0    4    8    -18.12      0.00
   -1    5    8    -20.71      0.00
   -2    6    8     -1.24      0.00
   -3    7    8     33.45      0.00
   -4    8    8      4.67      0.00
   -5    9    8    -20.59      0.00
   -6   10    8     -6.95      0.00
   -7   11    8      5.00      0.00
   -8   12    8      5.58      0.00
   -9   13    8      1.76      0.00
  -10   14    8     -5.24      0.00
  -11   15    8     -0.42      0.00
  -12   16    8      4.66      0.00
  -13   17    8     -2.18      0.00
  -14   18    8     -1.31      0.00
  -15   19    8      0.28      0.00
  -16   20    8      1.20      0.00
    2    0    8     43.30      0.00
    1    1    8     -6.04      0.00
    0    2    8    -18.26      0.00
   -1    3    8    -30.03      0.00
   -2    4    8     15.31      0.00
   -3    5    8     13.81      0.00
   -4    6    8      6.36      0.00
   -5    7    8     -6.04      0.00
   -6    8    8     -9.07      0.00
   -7    9    8     -4.98      0.00
   -8   10    8      7.56      0.00
   -9   11    8      4.48      0.00
  -10   12    8     -0.20      0.00
  -11   13    8     -4.32      0.00
  -12   14    8     -3.38      0.00
  -13   15    8      5.25      0.00
  -14   16    8      2.93      0.00
  -15   17    8     -3.66      0.00
  -16   18    8     -1.45      0.00
  -17   19    8     -0.60      0.00
    0    0    8      1.82      0.00
   -1    1    8    -32.88      0.00
   -2    2    8     14.97      0.00
   -3    3    8     21.39      0.00
   -4    4    8      5.60      0.00
   -5    5    8    -21.10      0.00
   -6    6    8     -9.70      0.00
   -7    7    8      7.80      0.00
   -8    8    8      8.06      0.00
   -9    9    8      2.79      0.00
  -10   10    8     -5.41      0.00
  -11   11    8     -4.22      0.00
  -12   12    8      0.41      0.00
  -13   13    8      3.86      0.00
  -14   14    8     -1.73      0.00
  -15   15    8      2.11      0.00
  -16   16    8     -2.97      0.00
  -17   17    8      1.16      0.00
  -18   18    8     -0.03      0.00
  -19   19    8     -0.96      0.00
   -2    0    8     30.67      0.00
   -3    1    8     28.26      0.00
   -4    2    8      0.59      0.00
   -5    3    8    -10.71      0.00
   -6    4    8    -28.07      0.00
   -7    5    8      5.00      0.00
   -8    6    8     13.32      0.00
   -9    7    8     13.67      0.00
  -10    8    8    -12.77      0.00
  -11    9    8     -2.76      0.00
  -12   10    8     -1.83      0.00
  -13   11    8      3.42      0.00
  -14   12    8     -2.86      0.00
  -15   13    8      1.72      0.00
  -16   14    8      0.79      0.00
  -17   15    8      0.53      0.00
  -18   16    8     -1.95      0.00
  -19   17    8      2.09      0.00
  -20   18    8     -1.55      0.00
   -4    0    8     13.51      0.00
   -5    1    8    -10.19      0.00
   -6    2    8    -31.18      0.00
   -7    3    8     13.17      0.00
   -8    4    8      3.95      0.00
   -9    5    8      9.08      0.00
  -10    6    8     -6.07      0.00
  -11    7    8      0.43      0.00
  -12    8    8     -6.81      0.00
  -13    9    8      3.44      0.00
  -14   10    8      1.34      0.00
  -15   11    8      3.30      0.00
  -16   12    8     -6.24      0.00
  -17   13    8     -2.24      0.00
  -18   14    8      8.84      0.00
  -19   15    8     -1.93      0.00
  -20   16    8     -1.31      0.00
  -21   17    8     -2.41      0.00
   -6    0    8    -21.72      0.00
   -7    1    8     17.42      0.00
   -8    2    8     10.65      0.00
   -9    3    8      5.34      0.00
  -10    4    8    -14.78      0.00
  -11    5    8     -4.91      0.00
  -12    6    8      7.33      0.00
  -13    7    8      1.74      0.00
  -14    8    8     -1.20      0.00
  -15    9    8     -0.27      0.00
  -16   10    8     -1.05      0.00
  -17   11    8      4.83      0.00
  -18   12    8     -2.89      0.00
  -19   13    8     -5.99      0.00
  -20   14    8      8.17      0.00
  -21   15    8     -2.58      0.00
  -22   16    8      1.51      0.00
   -8    0    8      8.00      0.00
   -9    1    8     19.71      0.00
  -10    2    8     -5.61      0.00
  -11    3    8    -13.74      0.00
  -12    4    8    -10.66      0.00
  -13    5    8      6.18      0.00
  -14    6    8     16.81      0.00
  -15    7    8     -4.95      0.00
  -16    8    8     -5.38      0.00
  -17    9    8      1.41      0.00
  -18   10    8     -2.65      0.00
  -19   11    8      5.01      0.00
  -20   12    8     -1.77      0.00
  -21   13    8     -5.05      0.00
  -22   14    8      2.59      0.00
  -23   15    8      2.85      0.00
  -10    0    8    -23.00      0.00
  -11    1    8     -2.09      0.00
  -12    2    8      6.37      0.00
  -13    3    8      6.94      0.00
  -14    4    8    -10.56      0.00
  -15    5    8     -1.95      0.00
  -16    6    8     11.66      0.00
  -17    7    8     -0.88      0.00
  -18    8    8     -7.19      0.00
  -19    9    8      3.07      0.00
  -20   10    8     -3.22      0.00
  -21   11    8      3.72      0.00
  -22   12    8     -1.81      0.00
  -23   13    8      1.50      0.00
  -24   14    8     -3.27      0.00
  -25   15    8      4.96      0.00
  -12    0    8    -10.53      0.00
  -13    1    8      8.02      0.00
  -14    2    8      8.56      0.00
  -15    3    8      2.95      0.00
  -16    4    8    -10.27      0.00
  -17    5    8     -4.33      0.00
  -18    6    8      6.16      0.00
  -19    7    8      3.91      0.00
  -20    8    8     -4.62      0.00
  -21    9    8      1.37      0.00
  -22   10    8     -0.87      0.00
  -23   11    8      3.88      0.00
  -24   12    8     -3.44      0.00
  -25   13    8      2.87      0.00
  -14    0    8     -3.11      0.00
  -15    1    8     -0.02      0.00
  -16    2    8      1.55      0.00
  -17    3    8     -1.25      0.00
  -18    4    8     -1.99      0.00
  -19    5    8     -0.99      0.00
  -20    6    8      2.89      0.00
  -21    7    8      3.12      0.00
  -22    8    8     -0.64      0.00
  -23    9    8     -2.30      0.00
  -24   10    8      0.21      0.00
  -25   11    8      3.31      0.00
  -26   12    8     -4.32      0.00
  -16    0    8     -9.52      0.00
  -17    1    8      0.42      0.00
  -18    2    8      3.02      0.00
  -19    3    8     -2.04      0.00
  -20    4    8      2.04      0.00
  -21    5    8      1.62      0.00
  -22    6    8      0.37      0.00
  -23    7    8     -1.54      0.00
  -24    8    8      2.66      0.00
  -25    9    8     -3.77      0.00
  -26   10    8     -2.04      0.00
  -27   11    8      3.96      0.00
  -18    0    8     -6.17      0.00
  -19    1    8      1.06      0.00
  -20    2    8      3.85      0.00
  -21    3    8     -2.84      0.00
  -22    4    8      0.20      0.00
  -23    5    8      1.74      0.00
  -24    6    8      0.45      0.00
  -25    7    8     -3.31      0.00
  -26    8    8      2.73      0.00
  -27    9    8      0.21      0.00
  -28   10    8     -2.80      0.00
  -20    0    8     -2.27      0.00
  -21    1    8      0.26      0.00
  -22    2    8      2.90      0.00
  -23    3    8     -4.97      0.00
  -24    4    8     -1.21      0.00
  -25    5    8      3.22      0.00
  -26    6    8      1.83      0.00
  -27    7    8     -1.44      0.00
  -28    8    8      0.91      0.00
  -29    9    8      2.56      0.00
  -22    0    8     -3.74      0.00
  -23    1    8     -0.28      0.00
  -24    2    8      4.51      0.00
  -25    3    8     -4.52      0.00
  -26    4    8     -1.01      0.00
  -27    5    8      2.29      0.00
  -28    6    8      3.11      0.00
  -29    7    8     -1.15      0.00
  -24    0    8     -4.53      0.00
  -25    1    8     -0.72      0.00
  -26    2    8      4.72      0.00
  -27    3    8     -3.06      0.00
  -28    4    8      1.43      0.00
  -29    5    8     -1.22      0.00
  -30    6    8      1.41      0.00
  -26    0    8     -4.26      0.00
  -27    1    8     -0.31      0.00
  -28    2    8      3.63      0.00
  -29    3    8     -1.35      0.00
  -30    4    8     -0.05      0.00
  -28    0    8     -2.21      0.00
  -29    1    8      1.86      0.00
  -30    2    8     -1.16      0.00
  -31    3    8     -0.36      0.00
  -30    0    8     -3.09      0.00
  -31    1    8      0.28      0.00
   -9   23    8      2.61      0.00
  -18   20    8      3.02      0.00
  -24   16    8      1.98      0.00
  -26   14    8     -5.84      0.00
   22   10    9     -1.70      0.00
   21   11    9      3.18      0.00
   20   12    9     -0.72      0.00
   19   13    9     -3.37      0.00
   18   14    9     -0.39      0.00
   17   15    9      6.80      0.00
   16   16    9     -5.49      0.00
   15   17    9      2.13      0.00
   14   18    9      4.28      0.00
   13   19    9     -2.39      0.00
   24    6    9      2.93      0.00
   23    7    9     -0.40      0.00
   22    8    9     -0.56      0.00
   21    9    9     -0.41      0.00
   20   10    9     -2.13      0.00
   19   11    9      1.31      0.00
   18   12    9      2.86      0.00
   17   13    9     -4.72      0.00
   16   14    9      0.24      0.00
   15   15    9      6.36      0.00
   14   16    9     -2.56      0.00
   13   17    9     -0.92      0.00
   12   18    9      3.02      0.00
   11   19    9     -2.98      0.00
   10   20    9     -1.51      0.00
   24    4    9      1.33      0.00
   23    5    9     -0.63      0.00
   22    6    9      4.13      0.00
   21    7    9     -4.00      0.00
   20    8    9      1.34      0.00
   19    9    9     -1.00      0.00
   18   10    9     -0.76      0.00
   17   11    9     -1.91      0.00
   16   12    9      3.07      0.00
   15   13    9     -1.15      0.00
   14   14    9      2.72      0.00
   13   15    9      0.50      0.00
   12   16    9     -4.23      0.00
   11   17    9     -0.20      0.00
   10   18    9      6.08      0.00
    9   19    9      1.36      0.00
    8   20    9     -6.58      0.00
    7   21    9      0.89      0.00
   25    1    9     -1.22      0.00
   24    2    9     -0.50      0.00
   23    3    9     -1.12      0.00
   22    4    9      0.08      0.00
   21    5    9     -2.21      0.00
   20    6    9      4.63      0.00
   19    7    9     -4.40      0.00
   18    8    9      4.40      0.00
   17    9    9     -2.53      0.00
   16   10    9     -1.09      0.00
   15   11    9     -0.17      0.00
   14   12    9      1.69      0.00
   13   13    9     -1.71      0.00
   12   14    9      0.84      0.00
   11   15    9     -0.09      0.00
   10   16    9      0.78      0.00
    9   17    9      1.13      0.00
    8   18    9      1.77      0.00
    7   19    9      2.19      0.00
    6   20    9     -7.36      0.00
    5   21    9     -0.33      0.00
    4   22    9      2.04      0.00
   23    1    9     -0.89      0.00
   22    2    9      0.16      0.00
   21    3    9     -0.75      0.00
   20    4    9     -1.79      0.00
   19    5    9     -2.19      0.00
   18    6    9      5.47      0.00
   17    7    9     -4.33      0.00
   16    8    9      4.04      0.00
   15    9    9     -0.31      0.00
   14   10    9     -0.50      0.00
   13   11    9     -3.26      0.00
   12   12    9     -1.94      0.00
   11   13    9      2.47      0.00
   10   14    9      3.14      0.00
    9   15    9     -0.61      0.00
    8   16    9     -1.17      0.00
    7   17    9     -0.27      0.00
    6   18    9      0.34      0.00
    5   19    9      3.83      0.00
    4   20    9     -3.56      0.00
    3   21    9     -4.74      0.00
    2   22    9      2.00      0.00
   21    1    9     -1.15      0.00
   20    2    9     -0.67      0.00
   19    3    9      0.54      0.00
   18    4    9     -0.45      0.00
   17    5    9     -1.70      0.00
   16    6    9      2.52      0.00
   15    7    9     -1.28      0.00
   14    8    9      1.68      0.00
   13    9    9     -1.95      0.00
   12   10    9      0.48      0.00
   11   11    9     -3.14      0.00
   10   12    9      1.82      0.00
    9   13    9      2.99      0.00
    8   14    9     -2.51      0.00
    7   15    9     -2.08      0.00
    6   16    9      0.53      0.00
    5   17    9      3.60      0.00
    4   18    9     -0.93      0.00
    3   19    9      0.78      0.00
    2   20    9      0.20      0.00
    1   21    9     -4.09      0.00
    0   22    9      0.44      0.00
   -1   23    9      2.22      0.00
   19    1    9     -1.15      0.00
   18    2    9      1.48      0.00
   17    3    9     -1.43      0.00
   16    4    9     -0.01      0.00
   15    5    9      0.43      0.00
   14    6    9     -0.65      0.00
   13    7    9     -0.13      0.00
   12    8    9     -3.39      0.00
   11    9    9      1.00      0.00
   10   10    9      7.57      0.00
    9   11    9     -6.30      0.00
    8   12    9     -1.06      0.00
    7   13    9      0.67      0.00
    6   14    9      0.04      0.00
    5   15    9      1.10      0.00
    4   16    9     -1.36      0.00
    3   17    9      3.72      0.00
    2   18    9     -1.80      0.00
    1   19    9     -0.09      0.00
    0   20    9      0.47      0.00
   -1   21    9     -1.81      0.00
   -2   22    9      0.13      0.00
   -3   23    9     -1.84      0.00
   17    1    9     -2.13      0.00
   16    2    9      4.59      0.00
   15    3    9     -4.60      0.00
   14    4    9     -0.42      0.00
   13    5    9      0.60      0.00
   12    6    9     -3.53      0.00
   11    7    9      6.98      0.00
   10    8    9     -3.22      0.00
    9    9    9      1.15      0.00
    8   10    9      1.58      0.00
    7   11    9     -8.79      0.00
    6   12    9      5.87      0.00
    5   13    9      3.30      0.00
    4   14    9     -1.53      0.00
    3   15    9     -3.15      0.00
    2   16    9     -2.61      0.00
    1   17    9      6.21      0.00
    0   18    9     -1.54      0.00
   -1   19    9     -1.44      0.00
   -2   20    9     -0.76      0.00
   -3   21    9     -0.11      0.00
   -4   22    9      4.75      0.00
   -5   23    9     -7.50      0.00
   15    1    9     -2.58      0.00
   14    2    9      6.73      0.00
   13    3    9     -6.93      0.00
   12    4    9     -1.57      0.00
   11    5    9      3.54      0.00
   10    6    9      0.22      0.00
    9    7    9      7.57      0.00
    8    8    9    -11.12      0.00
    7    9    9      0.97      0.00
    6   10    9      3.48      0.00
    5   11    9     -4.58      0.00
    4   12    9      5.77      0.00
    3   13    9     -1.32      0.00
    2   14    9     -1.60      0.00
    1   15    9     -1.88      0.00
    0   16    9     -1.52      0.00
   -1   17    9      3.72      0.00
   -2   18    9      0.22      0.00
   -3   19    9     -0.34      0.00
   -4   20    9      0.32      0.00
   -5   21    9     -4.24      0.00
   -6   22    9      7.91      0.00
   -7   23    9     -8.15      0.00
   13    1    9     -2.15      0.00
   12    2    9      7.63      0.00
   11    3    9     -2.60      0.00
   10    4    9     -1.35      0.00
    9    5    9     -2.22      0.00
    8    6    9     -0.48      0.00
    7    7    9      4.17      0.00
    6    8    9     -6.66      0.00
    5    9    9      5.67      0.00
    4   10    9      2.49      0.00
    3   11    9     -8.70      0.00
    2   12    9      2.88      0.00
    1   13    9      1.40      0.00
    0   14    9      2.10      0.00
   -1   15    9     -2.28      0.00
   -2   16    9     -1.27      0.00
   -3   17    9      0.64      0.00
   -4   18    9      2.90      0.00
   -5   19    9     -3.00      0.00
   -6   20    9      1.50      0.00
   -7   21    9     -4.82      0.00
   -8   22    9      7.91      0.00
   11    1    9      0.01      0.00
   10    2    9      4.58      0.00
    9    3    9      4.06      0.00
    8    4    9     -6.58      0.00
    7    5    9    -10.53      0.00
    6    6    9      4.94      0.00
    5    7    9      9.60      0.00
    4    8    9     -2.72      0.00
    3    9    9     -0.17      0.00
    2   10    9     -2.81      0.00
    1   11    9     -3.41      0.00
    0   12    9      4.75      0.00
   -1   13    9      1.17      0.00
   -2   14    9     -0.34      0.00
   -3   15    9     -1.48      0.00
   -4   16    9      1.59      0.00
   -5   17    9     -4.03      0.00
   -6   18    9      1.55      0.00
   -7   19    9     -2.88      0.00
   -8   20    9      6.13      0.00
   -9   21    9     -2.00      0.00
  -10   22    9     -0.55      0.00
    9    1    9      3.26      0.00
    8    2    9     -5.95      0.00
    7    3    9     10.70      0.00
    6    4    9     -2.15      0.00
    5    5    9     -7.06      0.00
    4    6    9      0.50      0.00
    3    7    9      5.58      0.00
    2    8    9     -1.81      0.00
    1    9    9      3.49      0.00
    0   10    9     -5.61      0.00
   -1   11    9     -0.79      0.00
   -2   12    9      4.04      0.00
   -3   13    9      0.66      0.00
   -4   14    9     -3.13      0.00
   -5   15    9     -2.72      0.00
   -6   16    9      4.00      0.00
   -7   17    9     -1.82      0.00
   -8   18    9      1.69      0.00
   -9   19    9     -3.27      0.00
  -10   20    9      3.89      0.00
  -11   21    9     -0.19      0.00
  -12   22    9     -4.19      0.00
    7    1    9      5.15      0.00
    6    2    9     -4.13      0.00
    5    3    9     11.05      0.00
    4    4    9      0.64      0.00
    3    5    9     -7.12      0.00
    2    6    9     -5.65      0.00
    1    7    9      0.66      0.00
    0    8    9      4.09      0.00
   -1    9    9      8.21      0.00
   -2   10    9     -7.12      0.00
   -3   11    9     -5.20      0.00
   -4   12    9      4.64      0.00
   -5   13    9      1.21      0.00
   -6   14    9     -3.09      0.00
   -7   15    9     -2.40      0.00
   -8   16    9      6.30      0.00
   -9   17    9      1.74      0.00
  -10   18    9     -3.41      0.00
  -11   19    9     -4.90      0.00
  -12   20    9      2.60      0.00
  -13   21    9      4.49      0.00
    5    1    9     -0.25      0.00
    4    2    9      7.63      0.00
    3    3    9      0.62      0.00
    2    4    9     -2.39      0.00
    1    5    9     -4.52      0.00
    0    6    9      0.62      0.00
   -1    7    9     -3.95      0.00
   -2    8    9      6.78      0.00
   -3    9    9      4.74      0.00
   -4   10    9     -3.72      0.00
   -5   11    9     -8.23      0.00
   -6   12    9      5.64      0.00
   -7   13    9      3.24      0.00
   -8   14    9     -0.91      0.00
   -9   15    9     -2.63      0.00
  -10   16    9      0.54      0.00
  -11   17    9      2.65      0.00
  -12   18    9     -3.41      0.00
  -13   19    9      0.69      0.00
  -14   20    9     -0.80      0.00
  -15   21    9      3.59      0.00
    3    1    9     -8.61      0.00
    2    2    9     10.18      0.00
    1    3    9      3.71      0.00
    0    4    9     -4.46      0.00
   -1    5    9      0.57      0.00
   -2    6    9      0.05      0.00
   -3    7    9     -6.13      0.00
   -4    8    9      7.44      0.00
   -5    9    9      1.59      0.00
   -6   10    9     -2.15      0.00
   -7   11    9     -4.26      0.00
   -8   12    9      5.15      0.00
   -9   13    9      2.18      0.00
  -10   14    9     -5.12      0.00
  -11   15    9     -1.95      0.00
  -12   16    9      0.14      0.00
  -13   17    9      5.74      0.00
  -14   18    9     -2.83      0.00
  -15   19    9      2.58      0.00
  -16   20    9     -6.43      0.00
    1    1    9     -1.35      0.00
    0    2    9     -0.67      0.00
   -1    3    9     12.88      0.00
   -2    4    9     -9.16      0.00
   -3    5    9      5.30      0.00
   -4    6    9     -7.86      0.00
   -5    7    9     -4.06      0.00
   -6    8    9      9.04      0.00
   -7    9    9      4.83      0.00
   -8   10    9     -5.70      0.00
   -9   11    9     -2.72      0.00
  -10   12    9      1.18      0.00
  -11   13    9      1.56      0.00
  -12   14    9     -3.80      0.00
  -13   15    9      1.55      0.00
  -14   16    9      2.03      0.00
  -15   17    9      1.86      0.00
  -16   18    9     -3.66      0.00
  -17   19    9      4.05      0.00
   -1    1    9     14.42      0.00
   -2    2    9     -9.79      0.00
   -3    3    9      6.35      0.00
   -4    4    9     -8.43      0.00
   -5    5    9      9.34      0.00
   -6    6    9     -7.85      0.00
   -7    7    9     -3.95      0.00
   -8    8    9      7.89      0.00
   -9    9    9      5.96      0.00
  -10   10    9     -7.62      0.00
  -11   11    9     -3.12      0.00
  -12   12    9      1.14      0.00
  -13   13    9      4.03      0.00
  -14   14    9      0.68      0.00
  -15   15    9     -2.58      0.00
  -16   16    9      0.46      0.00
  -17   17    9      0.89      0.00
  -18   18    9     -0.34      0.00
  -19   19    9      2.83      0.00
   -3    1    9     18.97      0.00
   -4    2    9     -2.54      0.00
   -5    3    9     -6.83      0.00
   -6    4    9     -1.47      0.00
   -7    5    9      8.43      0.00
   -8    6    9     -5.03      0.00
   -9    7    9     -5.76      0.00
  -10    8    9      4.91      0.00
  -11    9    9      5.37      0.00
  -12   10    9     -3.24      0.00
  -13   11    9      0.55      0.00
  -14   12    9     -1.33      0.00
  -15   13    9     -0.14      0.00
  -16   14    9      2.75      0.00
  -17   15    9     -3.06      0.00
  -18   16    9     -0.60      0.00
  -19   17    9      2.81      0.00
  -20   18    9     -1.18      0.00
   -5    1    9     14.35      0.00
   -6    2    9      9.14      0.00
   -7    3    9    -12.15      0.00
   -8    4    9     -2.43      0.00
   -9    5    9      6.65      0.00
  -10    6    9     -4.47      0.00
  -11    7    9     -1.83      0.00
  -12    8    9      2.84      0.00
  -13    9    9      4.82      0.00
  -14   10    9     -2.87      0.00
  -15   11    9      3.12      0.00
  -16   12    9     -5.03      0.00
  -17   13    9     -4.21      0.00
  -18   14    9      5.69      0.00
  -19   15    9      1.04      0.00
  -20   16    9     -3.95      0.00
  -21   17    9      3.99      0.00
   -7    1    9      9.67      0.00
   -8    2    9     10.39      0.00
   -9    3    9     -8.92      0.00
  -10    4    9     -7.12      0.00
  -11    5    9      7.60      0.00
  -12    6    9     -2.59      0.00
  -13    7    9      0.43      0.00
  -14    8    9      0.31      0.00
  -15    9    9      2.41      0.00
  -16   10    9     -4.89      0.00
  -17   11    9      3.58      0.00
  -18   12    9      0.48      0.00
  -19   13    9     -5.71      0.00
  -20   14    9      3.90      0.00
  -21   15    9      2.72      0.00
  -22   16    9     -2.83      0.00
   -9    1    9      5.64      0.00
  -10    2    9      8.02      0.00
  -11    3    9     -2.62      0.00
  -12    4    9     -6.65      0.00
  -13    5    9      1.30      0.00
  -14    6    9      2.01      0.00
  -15    7    9     -2.05      0.00
  -16    8    9      0.19      0.00
  -17    9    9      2.03      0.00
  -18   10    9     -0.62      0.00
  -19   11    9     -1.30      0.00
  -20   12    9      5.75      0.00
  -21   13    9     -4.98      0.00
  -22   14    9      0.17      0.00
  -23   15    9      1.38      0.00
  -11    1    9      2.93      0.00
  -12    2    9      4.68      0.00
  -13    3    9     -0.30      0.00
  -14    4    9     -1.66      0.00
  -15    5    9     -6.53      0.00
  -16    6    9      5.60      0.00
  -17    7    9     -2.03      0.00
  -18    8    9      1.43      0.00
  -19    9    9      2.71      0.00
  -20   10    9      2.51      0.00
  -21   11    9     -7.97      0.00
  -22   12    9      4.25      0.00
  -23   13    9      0.41      0.00
  -24   14    9     -2.99      0.00
  -13    1    9      3.09      0.00
  -14    2    9     -0.16      0.00
  -15    3    9     -0.25      0.00
  -16    4    9      1.69      0.00
  -17    5    9     -6.18      0.00
  -18    6    9      4.89      0.00
  -19    7    9      0.81      0.00
  -20    8    9     -3.04      0.00
  -21    9    9      1.35      0.00
  -22   10    9      3.45      0.00
  -23   11    9     -5.10      0.00
  -24   12    9     -1.75      0.00
  -25   13    9      4.25      0.00
  -15    1    9      4.18      0.00
  -16    2    9     -2.19      0.00
  -17    3    9     -0.47      0.00
  -18    4    9      1.18      0.00
  -19    5    9     -2.28      0.00
  -20    6    9      0.56      0.00
  -21    7    9      1.61      0.00
  -22    8    9     -4.87      0.00
  -23    9    9      2.68      0.00
  -24   10    9      1.94      0.00
  -25   11    9      1.19      0.00
  -26   12    9     -4.22      0.00
    6   22    9     -0.53      0.00
  -17    1    9      2.78      0.00
  -18    2    9     -1.76      0.00
  -19    3    9      0.11      0.00
  -20    4    9      0.48      0.00
  -21    5    9     -2.55      0.00
  -22    6    9     -0.21      0.00
  -23    7    9      2.09      0.00
  -24    8    9     -0.87      0.00
  -25    9    9      2.81      0.00
  -26   10    9     -2.37      0.00
  -27   11    9      2.70      0.00
  -19    1    9      1.36      0.00
  -20    2    9     -2.04      0.00
  -21    3    9     -0.36      0.00
  -22    4    9      2.20      0.00
  -23    5    9     -2.78      0.00
  -24    6    9      2.95      0.00
  -25    7    9     -2.06      0.00
  -26    8    9      0.21      0.00
  -27    9    9      2.88      0.00
  -28   10    9     -2.94      0.00
  -21    1    9      0.81      0.00
  -22    2    9     -2.07      0.00
  -23    3    9     -0.89      0.00
  -24    4    9      3.04      0.00
  -25    5    9     -3.26      0.00
  -26    6    9      3.87      0.00
  -27    7    9     -4.47      0.00
  -28    8    9     -0.70      0.00
  -29    9    9      3.82      0.00
    1   23    9      3.12      0.00
  -23    1    9     -0.71      0.00
  -24    2    9     -1.12      0.00
  -25    3    9     -0.32      0.00
  -26    4    9      1.07      0.00
  -27    5    9     -2.00      0.00
  -28    6    9      2.71      0.00
  -29    7    9     -1.32      0.00
  -25    1    9     -2.34      0.00
  -26    2    9     -0.73      0.00
  -27    3    9      1.00      0.00
  -28    4    9      0.32      0.00
  -29    5    9      0.66      0.00
  -30    6    9     -0.45      0.00
  -27    1    9     -2.23      0.00
  -28    2    9      0.11      0.00
  -29    3    9     -0.58      0.00
  -30    4    9     -0.16      0.00
  -29    1    9     -1.90      0.00
  -30    2    9      0.59      0.00
  -31    3    9     -2.10      0.00
  -31    1    9     -0.98      0.00
   20   12   10     -0.37      0.00
   19   13   10     -2.48      0.00
   18   14   10      0.00      0.00
   17   15   10      1.11      0.00
   16   16   10     -0.57      0.00
   15   17   10      1.02      0.00
   22    8   10      2.54      0.00
   21    9   10     -0.65      0.00
   20   10   10     -2.07      0.00
   19   11   10      2.36      0.00
   18   12   10     -2.58      0.00
   17   13   10      1.38      0.00
   16   14   10     -1.97      0.00
   15   15   10      0.46      0.00
   14   16   10     -1.28      0.00
   13   17   10      1.95      0.00
   12   18   10     -0.85      0.00
   11   19   10      3.93      0.00
   23    5   10     -5.91      0.00
   22    6   10      0.95      0.00
   21    7   10      0.34      0.00
   20    8   10      1.09      0.00
   19    9   10      1.12      0.00
   18   10   10     -2.02      0.00
   17   11   10      2.89      0.00
   16   12   10     -3.59      0.00
   15   13   10     -0.48      0.00
   14   14   10     -0.17      0.00
   13   15   10      0.92      0.00
   12   16   10     -1.15      0.00
   11   17   10      1.55      0.00
   10   18   10     -1.80      0.00
    9   19   10      3.79      0.00
    8   20   10     -2.01      0.00
    7   21   10      1.52      0.00
   24    2   10     -0.10      0.00
   23    3   10     -2.70      0.00
   22    4   10      4.55      0.00
   21    5   10     -4.53      0.00
   20    6   10     -0.78      0.00
   19    7   10      3.25      0.00
   18    8   10     -1.05      0.00
   17    9   10      0.77      0.00
   16   10   10     -1.85      0.00
   15   11   10      2.44      0.00
   14   12   10     -1.33      0.00
   13   13   10     -2.92      0.00
   12   14   10      2.99      0.00
   11   15   10     -1.44      0.00
   10   16   10     -3.24      0.00
    9   17   10      3.94      0.00
    8   18   10     -1.39      0.00
    7   19   10      2.31      0.00
    6   20   10     -1.10      0.00
    5   21   10      2.11      0.00
    4   22   10     -0.73      0.00
   24    0   10      0.55      0.00
   23    1   10      0.45      0.00
   22    2   10     -0.01      0.00
   21    3   10     -1.61      0.00
   20    4   10      3.84      0.00
   19    5   10     -2.55      0.00
   18    6   10     -2.42      0.00
   17    7   10      3.52      0.00
   16    8   10     -1.44      0.00
   15    9   10      0.75      0.00
   14   10   10     -3.09      0.00
   13   11   10      3.50      0.00
   12   12   10      2.71      0.00
   11   13   10     -5.90      0.00
   10   14   10      1.07      0.00
    9   15   10     -2.08      0.00
    8   16   10     -0.58      0.00
    7   17   10      5.61      0.00
    6   18   10     -1.48      0.00
    5   19   10     -0.34      0.00
    4   20   10     -0.24      0.00
    3   21   10      2.15      0.00
    2   22   10     -2.31      0.00
   22    0   10      1.70      0.00
   21    1   10      0.13      0.00
   20    2   10     -1.48      0.00
   19    3   10      0.47      0.00
   18    4   10      3.57      0.00
   17    5   10     -3.18      0.00
   16    6   10     -1.87      0.00
   15    7   10      1.57      0.00
   14    8   10     -0.35      0.00
   13    9   10      4.16      0.00
   12   10   10     -3.91      0.00
   11   11   10      0.35      0.00
   10   12   10      1.24      0.00
    9   13   10     -3.15      0.00
    8   14   10      3.15      0.00
    7   15   10     -1.55      0.00
    6   16   10     -0.76      0.00
    5   17   10      0.58      0.00
    4   18   10      0.75      0.00
    3   19   10     -0.91      0.00
    2   20   10      0.46      0.00
    1   21   10      2.52      0.00
    0   22   10     -3.66      0.00
   20    0   10      0.63      0.00
   19    1   10      2.82      0.00
   18    2   10     -1.63      0.00
   17    3   10      0.20      0.00
   16    4   10      0.75      0.00
   15    5   10     -3.21      0.00
   14    6   10      2.16      0.00
   13    7   10      1.38      0.00
   12    8   10     -0.32      0.00
   11    9   10      3.10      0.00
   10   10   10     -6.19      0.00
    9   11   10     -1.64      0.00
    8   12   10      4.27      0.00
    7   13   10      3.51      0.00
    6   14   10     -0.94      0.00
    5   15   10     -6.47      0.00
    4   16   10      0.00      0.00
    3   17   10      1.04      0.00
    2   18   10      4.71      0.00
    1   19   10     -1.98      0.00
    0   20   10     -1.68      0.00
   -1   21   10      3.27      0.00
   -2   22   10     -1.57      0.00
   18    0   10     -1.76      0.00
   17    1   10      3.08      0.00
   16    2   10     -1.03      0.00
   15    3   10     -0.18      0.00
   14    4   10     -0.66      0.00
   13    5   10     -0.48      0.00
   12    6   10      4.28      0.00
   11    7   10     -2.79      0.00
   10    8   10     -3.41      0.00
    9    9   10      2.43      0.00
    8   10   10      1.34      0.00
    7   11   10      0.61      0.00
    6   12   10     -1.09      0.00
    5   13   10      0.17      0.00
    4   14   10     -2.97      0.00
    3   15   10      0.63      0.00
    2   16   10      3.43      0.00
    1   17   10     -0.88      0.00
    0   18   10      0.38      0.00
   -1   19   10     -1.70      0.00
   -2   20   10     -0.45      0.00
   -3   21   10      3.55      0.00
   -4   22   10     -0.45      0.00
   16    0   10     -4.18      0.00
   15    1   10     -0.83      0.00
   14    2   10      3.18      0.00
   13    3   10      3.09      0.00
   12    4   10     -0.37      0.00
   11    5   10     -3.98      0.00
   10    6   10     -2.04      0.00
    9    7   10     -1.86      0.00
    8    8   10      6.26      0.00
    7    9   10      5.53      0.00
    6   10   10     -4.09      0.00
    5   11   10     -5.01      0.00
    4   12   10     -3.71      0.00
    3   13   10      7.77      0.00
    2   14   10      1.45      0.00
    1   15   10      1.25      0.00
    0   16   10     -4.20      0.00
   -1   17   10     -2.24      0.00
   -2   18   10      1.92      0.00
   -3   19   10      1.77      0.00
   -4   20   10     -0.45      0.00
   -5   21   10     -1.35      0.00
   -6   22   10     -0.11      0.00
   14    0   10     -2.61      0.00
   13    1   10      0.10      0.00
   12    2   10      7.46      0.00
   11    3   10     -1.84      0.00
   10    4   10     -6.52      0.00
    9    5   10      0.02      0.00
    8    6   10      6.34      0.00
    7    7   10      1.81      0.00
    6    8   10     -1.97      0.00
    5    9   10     -2.72      0.00
    4   10   10     -4.88      0.00
    3   11   10      8.37      0.00
    2   12   10     -0.63      0.00
    1   13   10      1.66      0.00
    0   14   10     -5.16      0.00
   -1   15   10      0.64      0.00
   -2   16   10     -0.10      0.00
   -3   17   10      1.98      0.00
   -4   18   10      0.94      0.00
   -5   19   10     -2.80      0.00
   -6   20   10      0.99      0.00
   -7   21   10     -0.21      0.00
   -8   22   10     -0.25      0.00
   12    0   10      0.41      0.00
   11    1   10     -6.49      0.00
   10    2   10      0.09      0.00
    9    3   10      1.79      0.00
    8    4   10      7.79      0.00
    7    5   10      3.20      0.00
    6    6   10     -4.76      0.00
    5    7   10    -11.55      0.00
    4    8   10      0.69      0.00
    3    9   10      9.76      0.00
    2   10   10      2.05      0.00
    1   11   10      2.48      0.00
    0   12   10     -9.84      0.00
   -1   13   10     -2.83      0.00
   -2   14   10      4.54      0.00
   -3   15   10      4.78      0.00
   -4   16   10     -0.01      0.00
   -5   17   10     -3.43      0.00
   -6   18   10      0.31      0.00
   -7   19   10     -1.35      0.00
   -8   20   10      3.46      0.00
   -9   21   10      0.29      0.00
  -10   22   10     -3.55      0.00
   10    0   10     -5.57      0.00
    9    1   10     -3.66      0.00
    8    2   10      9.76      0.00
    7    3   10      7.62      0.00
    6    4   10     -0.76      0.00
    5    5   10    -16.95      0.00
    4    6   10      0.19      0.00
    3    7   10      6.31      0.00
    2    8   10     11.30      0.00
    1    9   10     -5.70      0.00
    0   10   10     -7.51      0.00
   -1   11   10      0.36      0.00
   -2   12   10      3.54      0.00
   -3   13   10      2.29      0.00
   -4   14   10      3.14      0.00
   -5   15   10     -5.33      0.00
   -6   16   10     -0.28      0.00
   -7   17   10      0.74      0.00
   -8   18   10      2.93      0.00
   -9   19   10     -1.86      0.00
  -10   20   10     -1.55      0.00
  -11   21   10      2.53      0.00
    8    0   10      6.32      0.00
    7    1   10      6.87      0.00
    6    2   10    -10.56      0.00
    5    3   10    -10.00      0.00
    4    4   10      6.75      0.00
    3    5   10      6.96      0.00
    2    6   10      8.62      0.00
    1    7   10     -7.45      0.00
    0    8   10     -7.91      0.00
   -1    9   10     -5.50      0.00
   -2   10   10     11.32      0.00
   -3   11   10      6.68      0.00
   -4   12   10     -4.34      0.00
   -5   13   10     -5.20      0.00
   -6   14   10      2.13      0.00
   -7   15   10     -2.12      0.00
   -8   16   10      3.56      0.00
   -9   17   10      0.02      0.00
  -10   18   10     -1.70      0.00
  -11   19   10      1.29      0.00
  -12   20   10     -1.97      0.00
  -13   21   10      2.89      0.00
    6    0   10    -15.35      0.00
    5    1   10     -8.57      0.00
    4    2   10     -5.95      0.00
    3    3   10     20.55      0.00
    2    4   10     16.26      0.00
    1    5   10    -10.66      0.00
    0    6   10    -19.46      0.00
   -1    7   10      0.43      0.00
   -2    8   10      8.84      0.00
   -3    9   10      5.83      0.00
   -4   10   10      1.65      0.00
   -5   11   10     -3.86      0.00
   -6   12   10     -9.66      0.00
   -7   13   10      4.07      0.00
   -8   14   10      8.07      0.00
   -9   15   10     -3.64      0.00
  -10   16   10     -1.43      0.00
  -11   17   10     -1.58      0.00
  -12   18   10      1.13      0.00
  -13   19   10      5.65      0.00
  -14   20   10     -4.16      0.00
    4    0   10     -7.21      0.00
    3    1   10     14.71      0.00
    2    2   10     11.29      0.00
    1    3   10     -3.88      0.00
    0    4   10     -9.61      0.00
   -1    5   10     -9.42      0.00
   -2    6   10      5.68      0.00
   -3    7   10     14.09      0.00
   -4    8   10     -2.90      0.00
   -5    9   10    -11.20      0.00
   -6   10   10     -1.17      0.00
   -7   11   10      8.58      0.00
   -8   12   10     -0.79      0.00
   -9   13   10     -0.28      0.00
  -10   14   10      0.57      0.00
  -11   15   10     -3.08      0.00
  -12   16   10      3.66      0.00
  -13   17   10     -2.32      0.00
  -14   18   10     -0.21      0.00
  -15   19   10      4.20      0.00
  -16   20   10     -1.91      0.00
    2    0   10     17.24      0.00
    1    1   10    -20.46      0.00
    0    2   10    -13.92      0.00
   -1    3   10     -7.49      0.00
   -2    4   10     29.19      0.00
   -3    5   10      5.29      0.00
   -4    6   10     -7.77      0.00
   -5    7   10    -14.44      0.00
   -6    8   10      0.47      0.00
   -7    9   10      4.21      0.00
   -8   10   10      7.28      0.00
   -9   11   10      1.85      0.00
  -10   12   10     -3.85      0.00
  -11   13   10     -3.40      0.00
  -12   14   10      0.43      0.00
  -13   15   10      2.31      0.00
  -14   16   10      3.22      0.00
  -15   17   10     -7.18      0.00
  -16   18   10      0.60      0.00
  -17   19   10      5.84      0.00
    0    0   10    -13.62      0.00
   -1    1   10    -13.40      0.00
   -2    2   10     24.64      0.00
   -3    3   10      8.19      0.00
   -4    4   10      5.80      0.00
   -5    5   10    -15.45      0.00
   -6    6   10     -6.82      0.00
   -7    7   10      0.54      0.00
   -8    8   10      8.97      0.00
   -9    9   10      2.55      0.00
  -10   10   10     -2.40      0.00
  -11   11   10     -4.36      0.00
  -12   12   10      1.46      0.00
  -13   13   10      3.18      0.00
  -14   14   10     -3.95      0.00
  -15   15   10      0.74      0.00
  -16   16   10      1.20      0.00
  -17   17   10     -2.93      0.00
  -18   18   10      2.30      0.00
  -19   19   10      2.66      0.00
   -2    0   10     10.21      0.00
   -3    1   10     16.40      0.00
   -4    2   10      1.09      0.00
   -5    3   10    -15.41      0.00
   -6    4   10     -8.43      0.00
   -7    5   10     13.27      0.00
   -8    6   10      5.40      0.00
   -9    7   10     -1.94      0.00
  -10    8   10    -10.02      0.00
  -11    9   10      1.47      0.00
  -12   10   10      3.20      0.00
  -13   11   10      0.47      0.00
  -14   12   10      0.24      0.00
  -15   13   10      1.30      0.00
  -16   14   10     -5.14      0.00
  -17   15   10      4.23      0.00
  -18   16   10     -0.06      0.00
  -19   17   10     -1.28      0.00
  -20   18   10      0.18      0.00
   -4    0   10    -21.61      0.00
   -5    1   10    -15.39      0.00
   -6    2   10     -1.34      0.00
   -7    3   10     15.83      0.00
   -8    4   10      2.35      0.00
   -9    5   10      3.68      0.00
  -10    6   10    -10.26      0.00
  -11    7   10     -0.90      0.00
  -12    8   10     -4.68      0.00
  -13    9   10      6.00      0.00
  -14   10   10      2.93      0.00
  -15   11   10     -1.18      0.00
  -16   12   10      0.09      0.00
  -17   13   10     -0.19      0.00
  -18   14   10     -2.15      0.00
  -19   15   10      4.61      0.00
  -20   16   10     -5.03      0.00
  -21   17   10      0.52      0.00
   -6    0   10    -18.77      0.00
   -7    1   10      7.51      0.00
   -8    2   10     18.16      0.00
   -9    3   10      3.06      0.00
  -10    4   10    -11.62      0.00
  -11    5   10     -2.42      0.00
  -12    6   10      0.04      0.00
  -13    7   10      4.38      0.00
  -14    8   10     -3.36      0.00
  -15    9   10      3.70      0.00
  -16   10   10     -0.80      0.00
  -17   11   10     -2.01      0.00
  -18   12   10      3.72      0.00
  -19   13   10     -1.62      0.00
  -20   14   10     -4.50      0.00
  -21   15   10      4.32      0.00
  -22   16   10     -4.29      0.00
   -8    0   10      3.84      0.00
   -9    1   10     -3.61      0.00
  -10    2   10      0.02      0.00
  -11    3   10     -3.29      0.00
  -12    4   10     -0.85      0.00
  -13    5   10      5.19      0.00
  -14    6   10      1.14      0.00
  -15    7   10     -2.02      0.00
  -16    8   10     -6.05      0.00
  -17    9   10      5.99      0.00
  -18   10   10     -0.53      0.00
  -19   11   10     -4.12      0.00
  -20   12   10      2.73      0.00
  -21   13   10      1.22      0.00
  -22   14   10     -4.15      0.00
  -23   15   10      4.36      0.00
  -10    0   10    -18.41      0.00
  -11    1   10     -5.10      0.00
  -12    2   10     11.25      0.00
  -13    3   10      5.73      0.00
  -14    4   10     -5.34      0.00
  -15    5   10     -0.34      0.00
  -16    6   10      2.05      0.00
  -17    7   10     -3.09      0.00
  -18    8   10     -5.29      0.00
  -19    9   10      4.30      0.00
  -20   10   10      4.02      0.00
  -21   11   10     -3.96      0.00
  -22   12   10     -0.53      0.00
  -23   13   10      4.49      0.00
  -24   14   10     -3.08      0.00
  -12    0   10     -6.95      0.00
  -13    1   10      3.13      0.00
  -14    2   10      9.56      0.00
  -15    3   10     -0.47      0.00
  -16    4   10     -6.69      0.00
  -17    5   10     -2.85      0.00
  -18    6   10      6.52      0.00
  -19    7   10     -2.79      0.00
  -20    8   10     -0.38      0.00
  -21    9   10     -2.92      0.00
  -22   10   10      7.72      0.00
  -23   11   10     -0.30      0.00
  -24   12   10     -5.02      0.00
  -25   13   10      1.78      0.00
  -14    0   10     -5.43      0.00
  -15    1   10     -4.80      0.00
  -16    2   10      7.59      0.00
  -17    3   10     -0.61      0.00
  -18    4   10     -2.40      0.00
  -19    5   10     -3.77      0.00
  -20    6   10      7.20      0.00
  -21    7   10     -2.41      0.00
  -22    8   10      3.05      0.00
  -23    9   10     -8.46      0.00
  -24   10   10      4.69      0.00
  -25   11   10      3.13      0.00
  -26   12   10     -4.47      0.00
  -16    0   10     -3.93      0.00
  -17    1   10     -3.69      0.00
  -18    2   10      5.34      0.00
  -19    3   10      1.57      0.00
  -20    4   10     -0.26      0.00
  -21    5   10     -2.38      0.00
  -22    6   10      1.00      0.00
  -23    7   10     -1.36      0.00
  -24    8   10      3.07      0.00
  -25    9   10     -6.16      0.00
  -26   10   10      0.82      0.00
  -27   11   10      4.90      0.00
  -18    0   10     -1.28      0.00
  -19    1   10     -0.73      0.00
  -20    2   10      1.38      0.00
  -21    3   10      3.45      0.00
  -22    4   10     -3.39      0.00
  -23    5   10     -0.23      0.00
  -24    6   10     -2.19      0.00
  -25    7   10      2.58      0.00
  -26    8   10      0.30      0.00
  -27    9   10     -1.31      0.00
  -28   10   10      0.92      0.00
  -20    0   10      0.62      0.00
  -21    1   10      2.51      0.00
  -22    2   10     -3.25      0.00
  -23    3   10      2.14      0.00
  -24    4   10     -4.43      0.00
  -25    5   10      3.35      0.00
  -26    6   10     -2.18      0.00
  -27    7   10      5.09      0.00
  -28    8   10     -2.12      0.00
  -29    9   10     -2.50      0.00
  -22    0   10     -0.64      0.00
  -23    1   10      0.86      0.00
  -24    2   10     -2.92      0.00
  -25    3   10      3.32      0.00
  -26    4   10     -3.59      0.00
  -27    5   10      2.88      0.00
  -28    6   10     -3.48      0.00
  -29    7   10      4.34      0.00
  -24    0   10      0.26      0.00
  -25    1   10      0.34      0.00
  -26    2   10     -0.20      0.00
  -27    3   10      2.47      0.00
  -28    4   10     -3.72      0.00
  -29    5   10      2.45      0.00
  -30    6   10     -4.75      0.00
   -3   23   10     -3.59      0.00
  -26    0   10      2.67      0.00
  -27    1   10     -0.48      0.00
  -28    2   10      0.90      0.00
  -29    3   10      1.27      0.00
  -30    4   10     -4.91      0.00
  -28    0   10      3.05      0.00
  -29    1   10     -1.64      0.00
  -30    2   10      0.11      0.00
  -31    3   10      1.38      0.00
  -30    0   10      1.88      0.00
  -31    1   10     -3.04      0.00
  -15   21   10     -1.11      0.00
   21    9   11     -0.82      0.00
   20   10   11      5.32      0.00
   19   11   11     -1.61      0.00
   18   12   11      1.35      0.00
   17   13   11     -3.40      0.00
   16   14   11      1.55      0.00
   15   15   11      2.06      0.00
   14   16   11      0.08      0.00
   13   17   11     -7.03      0.00
   12   18   11      2.33      0.00
   22    6   11     -3.39      0.00
   21    7   11      1.69      0.00
   20    8   11     -1.33      0.00
   19    9   11     -1.98      0.00
   18   10   11      4.38      0.00
   17   11   11      0.59      0.00
   16   12   11     -0.61      0.00
   15   13   11     -0.69      0.00
   14   14   11      0.55      0.00
   13   15   11     -0.67      0.00
   12   16   11     -1.18      0.00
   11   17   11     -2.89      0.00
   10   18   11      4.23      0.00
    9   19   11     -1.96      0.00
    8   20   11      1.19      0.00
   23    3   11      0.71      0.00
   22    4   11      2.64      0.00
   21    5   11     -0.45      0.00
   20    6   11     -3.01      0.00
   19    7   11      3.74      0.00
   18    8   11      1.14      0.00
   17    9   11     -5.30      0.00
   16   10   11      0.63      0.00
   15   11   11      7.01      0.00
   14   12   11     -2.13      0.00
   13   13   11     -4.29      0.00
   12   14   11      1.52      0.00
   11   15   11      1.88      0.00
   10   16   11     -1.12      0.00
    9   17   11     -1.30      0.00
    8   18   11      2.07      0.00
    7   19   11     -3.81      0.00
    6   20   11      1.86      0.00
    5   21   11     -1.08      0.00
   23    1   11      5.86      0.00
   22    2   11     -4.57      0.00
   21    3   11     -1.47      0.00
   20    4   11      4.18      0.00
   19    5   11      1.51      0.00
   18    6   11     -4.96      0.00
   17    7   11      1.39      0.00
   16    8   11      4.34      0.00
   15    9   11     -2.45      0.00
   14   10   11     -4.69      0.00
   13   11   11      5.38      0.00
   12   12   11      0.56      0.00
   11   13   11     -3.01      0.00
   10   14   11      3.89      0.00
    9   15   11      0.69      0.00
    8   16   11     -6.99      0.00
    7   17   11      0.80      0.00
    6   18   11      4.09      0.00
    5   19   11     -1.86      0.00
    4   20   11      1.18      0.00
    3   21   11     -3.78      0.00
   21    1   11      5.46      0.00
   20    2   11     -3.12      0.00
   19    3   11     -0.66      0.00
   18    4   11      3.27      0.00
   17    5   11      1.46      0.00
   16    6   11     -5.92      0.00
   15    7   11      0.01      0.00
   14    8   11      5.15      0.00
   13    9   11     -1.31      0.00
   12   10   11     -4.78      0.00
   11   11   11      4.45      0.00
   10   12   11      3.58      0.00
    9   13   11     -3.88      0.00
    8   14   11     -1.08      0.00
    7   15   11      3.38      0.00
    6   16   11     -6.04      0.00
    5   17   11      3.07      0.00
    4   18   11      1.58      0.00
    3   19   11     -0.10      0.00
    2   20   11      0.73      0.00
    1   21   11     -3.30      0.00
    0   22   11      2.45      0.00
   19    1   11      4.51      0.00
   18    2   11     -1.66      0.00
   17    3   11     -1.20      0.00
   16    4   11      0.62      0.00
   15    5   11      2.41      0.00
   14    6   11     -3.08      0.00
   13    7   11     -3.80      0.00
   12    8   11      4.24      0.00
   11    9   11      2.29      0.00
   10   10   11      0.88      0.00
    9   11   11     -2.15      0.00
    8   12   11     -1.96      0.00
    7   13   11      1.61      0.00
    6   14   11     -0.16      0.00
    5   15   11      5.16      0.00
    4   16   11     -6.22      0.00
    3   17   11      0.21      0.00
    2   18   11     -0.29      0.00
    1   19   11      3.28      0.00
    0   20   11      0.49      0.00
   -1   21   11     -3.18      0.00
   -2   22   11      0.90      0.00
   17    1   11      1.45      0.00
   16    2   11     -1.19      0.00
   15    3   11      0.61      0.00
   14    4   11     -0.53      0.00
   13    5   11      1.30      0.00
   12    6   11     -0.35      0.00
   11    7   11     -1.16      0.00
   10    8   11      3.70      0.00
    9    9   11     -2.77      0.00
    8   10   11      0.01      0.00
    7   11   11     -0.98      0.00
    6   12   11      1.01      0.00
    5   13   11      4.92      0.00
    4   14   11     -5.41      0.00
    3   15   11      0.86      0.00
    2   16   11      0.01      0.00
    1   17   11     -0.67      0.00
    0   18   11     -1.64      0.00
   -1   19   11      3.63      0.00
   -2   20   11      2.10      0.00
   -3   21   11     -4.23      0.00
   -4   22   11      1.42      0.00
   15    1   11     -0.47      0.00
   14    2   11     -0.71      0.00
   13    3   11      1.29      0.00
   12    4   11     -1.01      0.00
   11    5   11      4.53      0.00
   10    6   11      0.14      0.00
    9    7   11     -4.04      0.00
    8    8   11     -1.95      0.00
    7    9   11     -1.29      0.00
    6   10   11      5.62      0.00
    5   11   11     -0.13      0.00
    4   12   11     -1.89      0.00
    3   13   11      1.81      0.00
    2   14   11     -4.43      0.00
    1   15   11      0.95      0.00
    0   16   11      4.72      0.00
   -1   17   11     -2.36      0.00
   -2   18   11     -1.85      0.00
   -3   19   11      2.12      0.00
   -4   20   11      3.71      0.00
   -5   21   11     -5.81      0.00
   -6   22   11      2.00      0.00
   13    1   11     -1.99      0.00
   12    2   11      1.75      0.00
   11    3   11      0.91      0.00
   10    4   11     -2.65      0.00
    9    5   11      2.30      0.00
    8    6   11     -1.01      0.00
    7    7   11     -2.77      0.00
    6    8   11      0.78      0.00
    5    9   11      2.38      0.00
    4   10   11      1.78      0.00
    3   11   11     -5.18      0.00
    2   12   11      0.04      0.00
    1   13   11      5.78      0.00
    0   14   11     -3.31      0.00
   -1   15   11     -1.04      0.00
   -2   16   11      4.13      0.00
   -3   17   11     -2.15      0.00
   -4   18   11     -1.43      0.00
   -5   19   11     -0.70      0.00
   -6   20   11      4.21      0.00
   -7   21   11     -1.94      0.00
   -8   22   11      0.58      0.00
   11    1   11     -4.47      0.00
   10    2   11      3.45      0.00
    9    3   11     -0.31      0.00
    8    4   11     -5.42      0.00
    7    5   11      0.20      0.00
    6    6   11      7.20      0.00
    5    7   11      2.25      0.00
    4    8   11     -5.84      0.00
    3    9   11     -1.08      0.00
    2   10   11     -0.28      0.00
    1   11   11      1.28      0.00
    0   12   11      0.46      0.00
   -1   13   11      4.84      0.00
   -2   14   11     -6.16      0.00
   -3   15   11     -0.21      0.00
   -4   16   11      2.85      0.00
   -5   17   11     -2.62      0.00
   -6   18   11      0.67      0.00
   -7   19   11      0.96      0.00
   -8   20   11      0.97      0.00
   -9   21   11      1.91      0.00
  -10   22   11     -2.46      0.00
    9    1   11     -6.21      0.00
    8    2   11     -0.63      0.00
    7    3   11      4.85      0.00
    6    4   11      1.25      0.00
    5    5   11     -2.68      0.00
    4    6   11      3.16      0.00
    3    7   11      1.58      0.00
    2    8   11     -7.94      0.00
    1    9   11      3.98      0.00
    0   10   11     -2.01      0.00
   -1   11   11      2.82      0.00
   -2   12   11     -2.70      0.00
   -3   13   11      3.88      0.00
   -4   14   11     -5.69      0.00
   -5   15   11      0.26      0.00
   -6   16   11      4.43      0.00
   -7   17   11     -1.20      0.00
   -8   18   11      0.40      0.00
   -9   19   11      0.83      0.00
  -10   20   11     -4.33      0.00
  -11   21   11      5.53      0.00
    7    1   11     -4.53      0.00
    6    2   11     -2.22      0.00
    5    3   11      6.06      0.00
    4    4   11      4.14      0.00
    3    5   11     -8.76      0.00
    2    6   11     -0.26      0.00
    1    7   11      4.13      0.00
    0    8   11     -2.78      0.00
   -1    9   11      3.19      0.00
   -2   10   11     -3.96      0.00
   -3   11   11     -0.69      0.00
   -4   12   11      0.40      0.00
   -5   13   11      2.49      0.00
   -6   14   11     -1.03      0.00
   -7   15   11     -0.35      0.00
   -8   16   11      3.66      0.00
   -9   17   11     -2.21      0.00
  -10   18   11     -2.62      0.00
  -11   19   11      1.96      0.00
  -12   20   11     -2.45      0.00
  -13   21   11      5.99      0.00
    5    1   11     -6.15      0.00
    4    2   11     -2.47      0.00
    3    3   11      0.30      0.00
    2    4   11      6.54      0.00
    1    5   11     -4.34      0.00
    0    6   11      2.31      0.00
   -1    7   11     -0.13      0.00
   -2    8   11     -1.15      0.00
   -3    9   11     -1.21      0.00
   -4   10   11      0.92      0.00
   -5   11   11     -3.21      0.00
   -6   12   11      4.86      0.00
   -7   13   11     -0.26      0.00
   -8   14   11      0.54      0.00
   -9   15   11     -2.60      0.00
  -10   16   11     -0.98      0.00
  -11   17   11      1.15      0.00
  -12   18   11     -0.80      0.00
  -13   19   11      1.56      0.00
  -14   20   11     -0.71      0.00
    3    1   11    -10.12      0.00
    2    2   11     -3.88      0.00
    1    3   11      4.69      0.00
    0    4   11      6.00      0.00
   -1    5   11      1.90      0.00
   -2    6   11     -1.65      0.00
   -3    7   11     -3.67      0.00
   -4    8   11     -0.23      0.00
   -5    9   11     -0.68      0.00
   -6   10   11      1.87      0.00
   -7   11   11     -1.99      0.00
   -8   12   11      4.36      0.00
   -9   13   11     -3.41      0.00
  -10   14   11     -2.93      0.00
  -11   15   11      2.22      0.00
  -12   16   11     -0.83      0.00
  -13   17   11      3.34      0.00
  -14   18   11     -2.37      0.00
  -15   19   11     -1.35      0.00
  -16   20   11      1.48      0.00
    1    1   11     -5.54      0.00
    0    2   11     -9.89      0.00
   -1    3   11      8.79      0.00
   -2    4   11     -0.73      0.00
   -3    5   11      7.33      0.00
   -4    6   11     -4.11      0.00
   -5    7   11     -2.90      0.00
   -6    8   11     -1.05      0.00
   -7    9   11      2.82      0.00
   -8   10   11     -3.42      0.00
   -9   11   11     -1.32      0.00
  -10   12   11      2.75      0.00
  -11   13   11      0.17      0.00
  -12   14   11     -2.62      0.00
  -13   15   11      4.92      0.00
  -14   16   11     -2.25      0.00
  -15   17   11     -0.22      0.00
  -16   18   11     -1.93      0.00
  -17   19   11      0.13      0.00
   -1    1   11      1.03      0.00
   -2    2   11    -13.08      0.00
   -3    3   11      3.46      0.00
   -4    4   11     -0.53      0.00
   -5    5   11      8.80      0.00
   -6    6   11      0.08      0.00
   -7    7   11     -5.06      0.00
   -8    8   11     -2.04      0.00
   -9    9   11      2.96      0.00
  -10   10   11     -4.01      0.00
  -11   11   11     -1.01      0.00
  -12   12   11      4.74      0.00
  -13   13   11      2.89      0.00
  -14   14   11     -2.88      0.00
  -15   15   11     -0.84      0.00
  -16   16   11     -0.74      0.00
  -17   17   11     -0.94      0.00
  -18   18   11      0.86      0.00
   -3    1   11      1.25      0.00
   -4    2   11     -6.24      0.00
   -5    3   11     -3.48      0.00
   -6    4   11      4.95      0.00
   -7    5   11      4.10      0.00
   -8    6   11      3.00      0.00
   -9    7   11     -6.89      0.00
  -10    8   11      0.20      0.00
  -11    9   11      0.68      0.00
  -12   10   11      0.86      0.00
  -13   11   11     -1.23      0.00
  -14   12   11      1.78      0.00
  -15   13   11     -0.97      0.00
  -16   14   11     -0.57      0.00
  -17   15   11     -1.15      0.00
  -18   16   11      1.90      0.00
  -19   17   11     -3.49      0.00
  -20   18   11      1.81      0.00
   -5    1   11     -0.06      0.00
   -6    2   11     -1.11      0.00
   -7    3   11     -5.86      0.00
   -8    4   11      5.51      0.00
   -9    5   11      3.81      0.00
  -10    6   11      0.19      0.00
  -11    7   11     -4.94      0.00
  -12    8   11      2.37      0.00
  -13    9   11     -1.00      0.00
  -14   10   11      0.65      0.00
  -15   11   11     -2.12      0.00
  -16   12   11     -0.97      0.00
  -17   13   11     -0.24      0.00
  -18   14   11      2.32      0.00
  -19   15   11      0.75      0.00
  -20   16   11      0.21      0.00
  -21   17   11     -4.62      0.00
   -7    1   11      0.73      0.00
   -8    2   11     -1.21      0.00
   -9    3   11     -5.35      0.00
  -10    4   11      2.17      0.00
  -11    5   11      8.15      0.00
  -12    6   11     -1.81      0.00
  -13    7   11     -4.63      0.00
  -14    8   11      0.42      0.00
  -15    9   11     -1.36      0.00
  -16   10   11      0.31      0.00
  -17   11   11      0.16      0.00
  -18   12   11      1.22      0.00
  -19   13   11      1.32      0.00
  -20   14   11     -0.91      0.00
  -21   15   11      1.12      0.00
  -22   16   11     -0.27      0.00
   -9    1   11     -0.81      0.00
  -10    2   11      2.12      0.00
  -11    3   11     -5.10      0.00
  -12    4   11      0.28      0.00
  -13    5   11      6.48      0.00
  -14    6   11      1.98      0.00
  -15    7   11     -6.09      0.00
  -16    8   11     -1.86      0.00
  -17    9   11      1.09      0.00
  -18   10   11      4.27      0.00
  -19   11   11     -0.78      0.00
  -20   12   11     -0.76      0.00
  -21   13   11      0.88      0.00
  -22   14   11     -1.85      0.00
  -23   15   11      0.79      0.00
  -11    1   11     -5.01      0.00
  -12    2   11      5.83      0.00
  -13    3   11     -2.89      0.00
  -14    4   11      0.19      0.00
  -15    5   11     -0.30      0.00
  -16    6   11      5.51      0.00
  -17    7   11     -2.03      0.00
  -18    8   11     -1.95      0.00
  -19    9   11     -0.11      0.00
  -20   10   11      2.00      0.00
  -21   11   11     -1.37      0.00
  -22   12   11     -2.00      0.00
  -23   13   11      1.10      0.00
  -24   14   11      0.43      0.00
  -13    1   11     -5.62      0.00
  -14    2   11      3.30      0.00
  -15    3   11      0.94      0.00
  -16    4   11     -1.08      0.00
  -17    5   11     -1.17      0.00
  -18    6   11      4.03      0.00
  -19    7   11      1.31      0.00
  -20    8   11     -3.74      0.00
  -21    9   11     -2.05      0.00
  -22   10   11     -1.46      0.00
  -23   11   11      4.52      0.00
  -24   12   11     -0.48      0.00
  -25   13   11     -1.01      0.00
  -15    1   11     -3.15      0.00
  -16    2   11     -0.99      0.00
  -17    3   11      3.85      0.00
  -18    4   11     -1.20      0.00
  -19    5   11      1.26      0.00
  -20    6   11     -2.59      0.00
  -21    7   11     -0.30      0.00
  -22    8   11      1.36      0.00
  -23    9   11      1.95      0.00
  -24   10   11     -4.96      0.00
  -25   11   11      5.23      0.00
  -26   12   11      1.48      0.00
  -17    1   11     -1.95      0.00
  -18    2   11      0.08      0.00
  -19    3   11      3.13      0.00
  -20    4   11     -1.65      0.00
  -21    5   11      1.19      0.00
  -22    6   11     -2.90      0.00
  -23    7   11     -0.70      0.00
  -24    8   11      5.80      0.00
  -25    9   11      1.19      0.00
  -26   10   11     -6.64      0.00
  -27   11   11      1.38      0.00
  -19    1   11     -2.20      0.00
  -20    2   11      1.83      0.00
  -21    3   11     -0.81      0.00
  -22    4   11      0.63      0.00
  -23    5   11      2.31      0.00
  -24    6   11     -1.02      0.00
  -25    7   11     -3.95      0.00
  -26    8   11      3.71      0.00
  -27    9   11     -1.05      0.00
  -28   10   11     -1.48      0.00
    2   22   11      4.49      0.00
  -21    1   11     -2.58      0.00
  -22    2   11      2.43      0.00
  -23    3   11     -1.41      0.00
  -24    4   11      2.71      0.00
  -25    5   11     -0.10      0.00
  -26    6   11     -2.57      0.00
  -27    7   11     -2.84      0.00
  -28    8   11      3.98      0.00
  -23    1   11     -1.82      0.00
  -24    2   11      1.86      0.00
  -25    3   11     -0.36      0.00
  -26    4   11      1.70      0.00
  -27    5   11     -1.00      0.00
  -28    6   11     -2.04      0.00
  -29    7   11      0.50      0.00
  -25    1   11     -1.14      0.00
  -26    2   11     -0.25      0.00
  -27    3   11      1.36      0.00
  -28    4   11      1.47      0.00
  -29    5   11      0.40      0.00
  -30    6   11     -1.99      0.00
  -27    1   11     -1.04      0.00
  -28    2   11     -0.69      0.00
  -29    3   11      1.71      0.00
  -30    4   11      0.27      0.00
  -29    1   11     -1.74      0.00
  -30    2   11     -0.01      0.00
  -31    1   11     -1.87      0.00
   17   13   12      3.35      0.00
   16   14   12     -4.06      0.00
   20    8   12     -1.22      0.00
   19    9   12      1.26      0.00
   18   10   12     -2.36      0.00
   17   11   12      1.73      0.00
   16   12   12      0.56      0.00
   15   13   12      1.67      0.00
   14   14   12     -2.55      0.00
   13   15   12      0.55      0.00
   12   16   12      4.48      0.00
   11   17   12     -4.01      0.00
   10   18   12      1.41      0.00
   21    5   12      0.57      0.00
   20    6   12     -2.43      0.00
   19    7   12      1.35      0.00
   18    8   12     -1.27      0.00
   17    9   12      0.62      0.00
   16   10   12     -1.75      0.00
   15   11   12      0.23      0.00
   14   12   12      2.50      0.00
   13   13   12      0.90      0.00
   12   14   12     -0.97      0.00
   11   15   12     -0.87      0.00
   10   16   12      1.94      0.00
    9   17   12     -1.90      0.00
    8   18   12      0.38      0.00
    7   19   12      0.96      0.00
    6   20   12     -0.11      0.00
   22    2   12     -0.09      0.00
   21    3   12     -4.58      0.00
   20    4   12      4.82      0.00
   19    5   12      1.89      0.00
   18    6   12     -4.51      0.00
   17    7   12      0.98      0.00
   16    8   12      0.76      0.00
   15    9   12     -0.02      0.00
   14   10   12     -2.22      0.00
   13   11   12     -0.37      0.00
   12   12   12      4.92      0.00
   11   13   12     -1.25      0.00
   10   14   12     -1.69      0.00
    9   15   12      0.65      0.00
    8   16   12      1.02      0.00
    7   17   12     -0.02      0.00
    6   18   12     -0.32      0.00
    5   19   12      0.16      0.00
    4   20   12      0.13      0.00
    3   21   12     -2.93      0.00
   22    0   12     -3.35      0.00
   21    1   12      2.20      0.00
   20    2   12     -0.47      0.00
   19    3   12     -4.29      0.00
   18    4   12      4.75      0.00
   17    5   12      2.46      0.00
   16    6   12     -3.88      0.00
   15    7   12     -0.77      0.00
   14    8   12      0.79      0.00
   13    9   12      2.08      0.00
   12   10   12     -1.96      0.00
   11   11   12     -3.25      0.00
   10   12   12      4.27      0.00
    9   13   12     -0.94      0.00
    8   14   12      1.57      0.00
    7   15   12      0.80      0.00
    6   16   12     -0.58      0.00
    5   17   12     -2.25      0.00
    4   18   12     -0.21      0.00
    3   19   12     -0.54      0.00
    2   20   12      1.84      0.00
    1   21   12      0.99      0.00
   20    0   12     -4.71      0.00
   19    1   12      3.73      0.00
   18    2   12      0.41      0.00
   17    3   12     -4.07      0.00
   16    4   12      2.28      0.00
   15    5   12      1.97      0.00
   14    6   12     -0.58      0.00
   13    7   12     -0.10      0.00
   12    8   12     -2.35      0.00
   11    9   12      1.12      0.00
   10   10   12     -1.74      0.00
    9   11   12     -2.12      0.00
    8   12   12      5.97      0.00
    7   13   12     -0.73      0.00
    6   14   12     -0.22      0.00
    5   15   12     -2.33      0.00
    4   16   12      0.57      0.00
    3   17   12      0.35      0.00
    2   18   12     -0.54      0.00
    1   19   12      0.41      0.00
    0   20   12     -0.42      0.00
   -1   21   12      3.44      0.00
   -2   22   12     -4.08      0.00
   18    0   12     -3.57      0.00
   17    1   12      3.25      0.00
   16    2   12     -0.78      0.00
   15    3   12     -3.81      0.00
   14    4   12      1.23      0.00
   13    5   12      2.23      0.00
   12    6   12      1.08      0.00
   11    7   12     -2.05      0.00
   10    8   12     -3.26      0.00
    9    9   12      1.55      0.00
    8   10   12      2.18      0.00
    7   11   12     -1.28      0.00
    6   12   12      2.00      0.00
    5   13   12     -2.89      0.00
    4   14   12     -1.15      0.00
    3   15   12      2.29      0.00
    2   16   12      2.22      0.00
    1   17   12      1.16      0.00
    0   18   12     -7.06      0.00
   -1   19   12      2.83      0.00
   -2   20   12     -0.04      0.00
   -3   21   12      3.71      0.00
   -4   22   12     -4.50      0.00
   16    0   12     -3.77      0.00
   15    1   12     -0.29      0.00
   14    2   12      1.63      0.00
   13    3   12     -0.10      0.00
   12    4   12     -1.34      0.00
   11    5   12     -1.77      0.00
   10    6   12      1.88      0.00
    9    7   12      0.52      0.00
    8    8   12      3.12      0.00
    7    9   12     -0.58      0.00
    6   10   12     -3.51      0.00
    5   11   12     -4.09      0.00
    4   12   12      3.82      0.00
    3   13   12      3.84      0.00
    2   14   12     -2.36      0.00
    1   15   12      0.37      0.00
    0   16   12     -1.87      0.00
   -1   17   12      2.58      0.00
   -2   18   12     -6.71      0.00
   -3   19   12      4.04      0.00
   -4   20   12      1.93      0.00
   -5   21   12     -0.02      0.00
   -6   22   12     -4.62      0.00
   21    7   12      0.12      0.00
   14    0   12      0.04      0.00
   13    1   12      1.37      0.00
   12    2   12      2.60      0.00
   11    3   12     -2.59      0.00
   10    4   12     -6.04      0.00
    9    5   12      3.55      0.00
    8    6   12      7.98      0.00
    7    7   12     -1.72      0.00
    6    8   12     -4.42      0.00
    5    9   12     -2.18      0.00
    4   10   12     -0.85      0.00
    3   11   12      2.30      0.00
    2   12   12      4.04      0.00
    1   13   12     -0.20      0.00
    0   14   12     -7.03      0.00
   -1   15   12      0.09      0.00
   -2   16   12      3.36      0.00
   -3   17   12      3.65      0.00
   -4   18   12     -6.11      0.00
   -5   19   12     -2.15      0.00
   -6   20   12      6.81      0.00
   -7   21   12     -0.38      0.00
   12    0   12      2.67      0.00
   11    1   12     -4.94      0.00
   10    2   12     -1.23      0.00
    9    3   12      5.57      0.00
    8    4   12     -0.38      0.00
    7    5   12     -1.09      0.00
    6    6   12     -2.14      0.00
    5    7   12     -2.69      0.00
    4    8   12      1.61      0.00
    3    9   12      6.33      0.00
    2   10   12     -2.21      0.00
    1   11   12     -3.89      0.00
    0   12   12      0.14      0.00
   -1   13   12     -0.66      0.00
   -2   14   12      0.78      0.00
   -3   15   12      0.34      0.00
   -4   16   12      3.55      0.00
   -5   17   12     -1.93      0.00
   -6   18   12     -3.13      0.00
   -7   19   12     -3.89      0.00
   -8   20   12      9.39      0.00
   -9   21   12     -1.97      0.00
   10    0   12      2.91      0.00
    9    1   12     -0.35      0.00
    8    2   12      1.86      0.00
    7    3   12      3.58      0.00
    6    4   12     -7.55      0.00
    5    5   12     -8.15      0.00
    4    6   12      6.71      0.00
    3    7   12      8.72      0.00
    2    8   12      2.22      0.00
    1    9   12     -4.95      0.00
    0   10   12     -7.74      0.00
   -1   11   12     -0.53      0.00
   -2   12   12      8.50      0.00
   -3   13   12      0.66      0.00
   -4   14   12     -1.58      0.00
   -5   15   12     -7.13      0.00
   -6   16   12      4.82      0.00
   -7   17   12      1.88      0.00
   -8   18   12     -1.69      0.00
   -9   19   12     -6.50      0.00
  -10   20   12      7.02      0.00
  -11   21   12     -0.52      0.00
    8    0   12     12.32      0.00
    7    1   12      0.32      0.00
    6    2   12    -16.72      0.00
    5    3   12     -1.34      0.00
    4    4   12      7.55      0.00
    3    5   12      6.07      0.00
    2    6   12      2.84      0.00
    1    7   12     -6.40      0.00
    0    8   12     -3.82      0.00
   -1    9   12      2.26      0.00
   -2   10   12      2.50      0.00
   -3   11   12      0.71      0.00
   -4   12   12     -1.24      0.00
   -5   13   12     -1.67      0.00
   -6   14   12     -0.44      0.00
   -7   15   12     -3.52      0.00
   -8   16   12      4.50      0.00
   -9   17   12      2.56      0.00
  -10   18   12     -4.55      0.00
  -11   19   12     -3.50      0.00
  -12   20   12      5.80      0.00
    6    0   12     -2.20      0.00
    5    1   12     -0.65      0.00
    4    2   12     -7.44      0.00
    3    3   12     16.16      0.00
    2    4   12      0.35      0.00
    1    5   12     -9.44      0.00
    0    6   12     -5.81      0.00
   -1    7   12      5.23      0.00
   -2    8   12      5.72      0.00
   -3    9   12      3.48      0.00
   -4   10   12     -5.10      0.00
   -5   11   12     -4.08      0.00
   -6   12   12     -5.04      0.00
   -7   13   12      8.09      0.00
   -8   14   12      2.79      0.00
   -9   15   12     -4.88      0.00
  -10   16   12     -1.53      0.00
  -11   17   12      4.15      0.00
  -12   18   12     -1.75      0.00
  -13   19   12     -1.92      0.00
  -14   20   12      1.51      0.00
    4    0   12     14.63      0.00
    3    1   12     12.17      0.00
    2    2   12    -11.83      0.00
    1    3   12     -3.73      0.00
    0    4   12    -10.62      0.00
   -1    5   12      1.67      0.00
   -2    6   12     12.05      0.00
   -3    7   12      7.91      0.00
   -4    8   12     -7.37      0.00
   -5    9   12     -7.18      0.00
   -6   10   12      0.48      0.00
   -7   11   12      5.35      0.00
   -8   12   12     -3.05      0.00
   -9   13   12      4.04      0.00
  -10   14   12     -2.01      0.00
  -11   15   12     -2.56      0.00
  -12   16   12      2.36      0.00
  -13   17   12      0.94      0.00
  -14   18   12     -2.89      0.00
  -15   19   12     -1.75      0.00
    2    0   12     19.30      0.00
    1    1   12    -16.75      0.00
    0    2   12    -19.41      0.00
   -1    3   12      7.08      0.00
   -2    4   12     14.03      0.00
   -3    5   12     -0.68      0.00
   -4    6   12     -2.52      0.00
   -5    7   12     -3.04      0.00
   -6    8   12      0.15      0.00
   -7    9   12      1.61      0.00
   -8   10   12      4.68      0.00
   -9   11   12     -1.05      0.00
  -10   12   12     -7.59      0.00
  -11   13   12      3.29      0.00
  -12   14   12      1.05      0.00
  -13   15   12     -0.62      0.00
  -14   16   12      2.52      0.00
  -15   17   12     -4.81      0.00
  -16   18   12      0.75      0.00
  -17   19   12      0.53      0.00
   15   15   12      2.47      0.00
    0    0   12      9.49      0.00
   -1    1   12      1.93      0.00
   -2    2   12      6.53      0.00
   -3    3   12      2.74      0.00
   -4    4   12     -5.52      0.00
   -5    5   12    -10.04      0.00
   -6    6   12      3.85      0.00
   -7    7   12      9.12      0.00
   -8    8   12      1.84      0.00
   -9    9   12     -2.46      0.00
  -10   10   12     -3.13      0.00
  -11   11   12     -1.60      0.00
  -12   12   12     -3.68      0.00
  -13   13   12      6.80      0.00
  -14   14   12     -0.50      0.00
  -15   15   12     -3.72      0.00
  -16   16   12      5.24      0.00
  -17   17   12     -4.07      0.00
  -18   18   12      2.49      0.00
   -2    0   12     21.92      0.00
   -3    1   12      8.15      0.00
   -4    2   12    -13.13      0.00
   -5    3   12    -10.77      0.00
   -6    4   12     -3.17      0.00
   -7    5   12      9.97      0.00
   -8    6   12      6.08      0.00
   -9    7   12      2.04      0.00
  -10    8   12     -9.47      0.00
  -11    9   12      0.03      0.00
  -12   10   12      2.04      0.00
  -13   11   12      3.73      0.00
  -14   12   12     -5.20      0.00
  -15   13   12      1.10      0.00
  -16   14   12      1.66      0.00
  -17   15   12     -0.37      0.00
  -18   16   12      6.01      0.00
  -19   17   12     -8.60      0.00
   -4    0   12     -9.13      0.00
   -5    1   12     -7.93      0.00
   -6    2   12     -0.70      0.00
   -7    3   12      8.54      0.00
   -8    4   12     -1.61      0.00
   -9    5   12     -0.29      0.00
  -10    6   12     -1.42      0.00
  -11    7   12      3.33      0.00
  -12    8   12     -2.72      0.00
  -13    9   12      1.79      0.00
  -14   10   12      2.17      0.00
  -15   11   12      0.15      0.00
  -16   12   12     -2.53      0.00
  -17   13   12     -1.89      0.00
  -18   14   12      3.27      0.00
  -19   15   12     -0.52      0.00
  -20   16   12      3.94      0.00
  -21   17   12     -8.90      0.00
   -6    0   12      2.35      0.00
   -7    1   12      7.65      0.00
   -8    2   12      7.03      0.00
   -9    3   12     -4.70      0.00
  -10    4   12    -10.14      0.00
  -11    5   12      0.56      0.00
  -12    6   12      7.77      0.00
  -13    7   12      4.75      0.00
  -14    8   12     -2.62      0.00
  -15    9   12     -3.74      0.00
  -16   10   12      1.59      0.00
  -17   11   12     -1.64      0.00
  -18   12   12      3.20      0.00
  -19   13   12     -3.12      0.00
  -20   14   12     -1.22      0.00
  -21   15   12      1.29      0.00
  -22   16   12      5.39      0.00
   -8    0   12      8.43      0.00
   -9    1   12     -5.32      0.00
  -10    2   12     -3.01      0.00
  -11    3   12     -2.18      0.00
  -12    4   12     -2.61      0.00
  -13    5   12      3.79      0.00
  -14    6   12      4.44      0.00
  -15    7   12      0.81      0.00
  -16    8   12     -3.64      0.00
  -17    9   12     -2.47      0.00
  -18   10   12      3.28      0.00
  -19   11   12     -3.54      0.00
  -20   12   12      3.32      0.00
  -21   13   12     -0.03      0.00
  -22   14   12     -1.42      0.00
  -23   15   12      2.65      0.00
    9   19   12     -2.00      0.00
  -10    0   12     -6.29      0.00
  -11    1   12     -1.76      0.00
  -12    2   12      6.05      0.00
  -13    3   12      2.19      0.00
  -14    4   12     -6.58      0.00
  -15    5   12     -0.55      0.00
  -16    6   12      3.36      0.00
  -17    7   12      1.77      0.00
  -18    8   12     -1.87      0.00
  -19    9   12     -0.99      0.00
  -20   10   12      3.95      0.00
  -21   11   12     -4.47      0.00
  -22   12   12      3.31      0.00
  -23   13   12     -0.03      0.00
  -24   14   12     -0.22      0.00
  -12    0   12      1.27      0.00
  -13    1   12      0.94      0.00
  -14    2   12      4.23      0.00
  -15    3   12     -2.54      0.00
  -16    4   12     -3.92      0.00
  -17    5   12     -1.35      0.00
  -18    6   12      5.46      0.00
  -19    7   12     -0.03      0.00
  -20    8   12     -0.12      0.00
  -21    9   12     -0.79      0.00
  -22   10   12      2.91      0.00
  -23   11   12     -5.01      0.00
  -24   12   12      4.18      0.00
  -25   13   12     -4.88      0.00
  -14    0   12     -1.31      0.00
  -15    1   12     -3.55      0.00
  -16    2   12      5.14      0.00
  -17    3   12     -2.19      0.00
  -18    4   12     -1.49      0.00
  -19    5   12     -1.47      0.00
  -20    6   12      6.02      0.00
  -21    7   12     -2.86      0.00
  -22    8   12     -1.55      0.00
  -23    9   12      1.31      0.00
  -24   10   12     -0.02      0.00
  -25   11   12     -4.51      0.00
  -26   12   12      6.79      0.00
  -16    0   12     -1.25      0.00
  -17    1   12     -3.17      0.00
  -18    2   12      2.72      0.00
  -19    3   12      1.42      0.00
  -20    4   12     -1.84      0.00
  -21    5   12     -0.02      0.00
  -22    6   12      2.70      0.00
  -23    7   12     -2.92      0.00
  -24    8   12     -3.61      0.00
  -25    9   12      5.31      0.00
  -26   10   12     -1.45      0.00
  -27   11   12     -1.97      0.00
  -18    0   12     -0.95      0.00
  -19    1   12     -1.63      0.00
  -20    2   12      1.55      0.00
  -21    3   12      3.92      0.00
  -22    4   12     -5.46      0.00
  -23    5   12      1.57      0.00
  -24    6   12      2.28      0.00
  -25    7   12     -0.28      0.00
  -26    8   12     -4.70      0.00
  -27    9   12      5.40      0.00
  -28   10   12     -1.75      0.00
  -20    0   12      3.33      0.00
  -21    1   12     -0.78      0.00
  -22    2   12     -1.61      0.00
  -23    3   12      0.92      0.00
  -24    4   12     -3.13      0.00
  -25    5   12      3.24      0.00
  -26    6   12      2.04      0.00
  -27    7   12     -0.32      0.00
  -28    8   12     -3.23      0.00
  -22    0   12      1.20      0.00
  -23    1   12     -3.87      0.00
  -24    2   12      1.27      0.00
  -25    3   12     -0.03      0.00
  -26    4   12      0.67      0.00
  -27    5   12     -0.33      0.00
  -28    6   12      1.21      0.00
  -29    7   12     -0.81      0.00
  -24    0   12      1.03      0.00
  -25    1   12     -0.55      0.00
  -26    2   12      3.90      0.00
  -27    3   12     -4.30      0.00
  -28    4   12      2.80      0.00
  -29    5   12     -1.21      0.00
  -26    0   12      0.22      0.00
  -27    1   12      0.14      0.00
  -28    2   12      2.63      0.00
  -29    3   12     -4.85      0.00
  -30    4   12      2.75      0.00
  -28    0   12     -3.01      0.00
  -29    1   12      0.58      0.00
  -30    2   12      1.54      0.00
  -30    0   12     -2.71      0.00
   18   10   13     -2.40      0.00
   17   11   13      1.79      0.00
   16   12   13     -2.24      0.00
   15   13   13      0.79      0.00
   14   14   13      1.53      0.00
   13   15   13     -2.79      0.00
   12   16   13      2.58      0.00
   11   17   13     -1.26      0.00
   20    6   13      5.35      0.00
   19    7   13     -0.34      0.00
   18    8   13     -1.67      0.00
   17    9   13      0.32      0.00
   16   10   13     -4.63      0.00
   15   11   13      4.60      0.00
   14   12   13     -3.76      0.00
   13   13   13      0.59      0.00
   12   14   13      2.46      0.00
   11   15   13     -1.61      0.00
   10   16   13      3.14      0.00
    9   17   13     -2.99      0.00
    8   18   13      1.40      0.00
    7   19   13      1.13      0.00
   21    3   13     -2.06      0.00
   20    4   13      2.36      0.00
   19    5   13     -1.92      0.00
   18    6   13      2.60      0.00
   17    7   13     -1.01      0.00
   16    8   13      0.06      0.00
   15    9   13      2.77      0.00
   14   10   13     -6.14      0.00
   13   11   13      0.74      0.00
   12   12   13     -0.43      0.00
   11   13   13      2.26      0.00
   10   14   13      1.34      0.00
    9   15   13     -1.97      0.00
    8   16   13     -0.73      0.00
    7   17   13      0.03      0.00
    6   18   13      3.16      0.00
    5   19   13     -0.24      0.00
    4   20   13     -4.60      0.00
   21    1   13     -0.26      0.00
   20    2   13      0.88      0.00
   19    3   13     -0.29      0.00
   18    4   13     -0.47      0.00
   17    5   13     -2.28      0.00
   16    6   13      1.00      0.00
   15    7   13      1.21      0.00
   14    8   13      0.44      0.00
   13    9   13      1.45      0.00
   12   10   13     -1.95      0.00
   11   11   13     -2.47      0.00
   10   12   13      0.59      0.00
    9   13   13      1.22      0.00
    8   14   13     -1.86      0.00
    7   15   13      3.12      0.00
    6   16   13     -3.07      0.00
    5   17   13      1.29      0.00
    4   18   13      4.61      0.00
    3   19   13     -2.77      0.00
    2   20   13     -5.93      0.00
    1   21   13      4.77      0.00
   19    1   13     -0.54      0.00
   18    2   13      0.18      0.00
   17    3   13     -0.50      0.00
   16    4   13     -1.21      0.00
   15    5   13     -0.34      0.00
   14    6   13      1.26      0.00
   13    7   13      0.20      0.00
   12    8   13      1.02      0.00
   11    9   13      1.47      0.00
   10   10   13      1.08      0.00
    9   11   13     -6.26      0.00
    8   12   13     -2.47      0.00
    7   13   13      6.02      0.00
    6   14   13     -0.66      0.00
    5   15   13      3.09      0.00
    4   16   13     -6.51      0.00
    3   17   13     -0.60      0.00
    2   18   13      8.94      0.00
    1   19   13     -3.71      0.00
    0   20   13     -6.43      0.00
   -1   21   13      2.12      0.00
   17    1   13     -2.42      0.00
   16    2   13      1.33      0.00
   15    3   13      1.45      0.00
   14    4   13      0.22      0.00
   13    5   13     -2.85      0.00
   12    6   13      2.06      0.00
   11    7   13      1.52      0.00
   10    8   13      0.46      0.00
    9    9   13     -2.08      0.00
    8   10   13     -1.17      0.00
    7   11   13      1.21      0.00
    6   12   13     -2.76      0.00
    5   13   13      4.74      0.00
    4   14   13     -2.40      0.00
    3   15   13      0.97      0.00
    2   16   13     -3.36      0.00
    1   17   13     -1.68      0.00
    0   18   13      8.57      0.00
   -1   19   13     -2.29      0.00
   -2   20   13     -5.12      0.00
   -3   21   13     -2.06      0.00
   15    1   13     -2.45      0.00
   14    2   13      1.84      0.00
   13    3   13      1.85      0.00
   12    4   13      0.22      0.00
   11    5   13     -3.01      0.00
   10    6   13      1.12      0.00
    9    7   13     -1.80      0.00
    8    8   13      0.39      0.00
    7    9   13      2.66      0.00
    6   10   13     -0.78      0.00
    5   11   13      2.21      0.00
    4   12   13     -6.51      0.00
    3   13   13      2.85      0.00
    2   14   13      1.27      0.00
    1   15   13      1.29      0.00
    0   16   13     -2.40      0.00
   -1   17   13     -1.37      0.00
   -2   18   13      2.99      0.00
   -3   19   13      1.17      0.00
   -4   20   13     -4.12      0.00
   -5   21   13     -2.67      0.00
   13    1   13     -1.19      0.00
   12    2   13      0.63      0.00
   11    3   13      1.88      0.00
   10    4   13     -2.21      0.00
    9    5   13     -2.59      0.00
    8    6   13      0.79      0.00
    7    7   13     -0.58      0.00
    6    8   13      4.98      0.00
    5    9   13      1.74      0.00
    4   10   13     -3.63      0.00
    3   11   13     -1.90      0.00
    2   12   13     -1.37      0.00
    1   13   13      5.05      0.00
    0   14   13      0.12      0.00
   -1   15   13     -0.63      0.00
   -2   16   13     -2.78      0.00
   -3   17   13      1.00      0.00
   -4   18   13     -1.88      0.00
   -5   19   13      3.41      0.00
   -6   20   13     -3.33      0.00
   -7   21   13      0.68      0.00
   11    1   13     -0.03      0.00
   10    2   13      0.26      0.00
    9    3   13      1.79      0.00
    8    4   13     -4.94      0.00
    7    5   13      2.50      0.00
    6    6   13      2.14      0.00
    5    7   13     -0.34      0.00
    4    8   13      0.49      0.00
    3    9   13     -1.42      0.00
    2   10   13      1.53      0.00
    1   11   13     -1.26      0.00
    0   12   13     -0.35      0.00
   -1   13   13      3.27      0.00
   -2   14   13     -2.50      0.00
   -3   15   13     -1.19      0.00
   -4   16   13     -0.50      0.00
   -5   17   13      2.21      0.00
   -6   18   13     -1.01      0.00
   -7   19   13      1.41      0.00
   -8   20   13     -4.33      0.00
   -9   21   13      3.55      0.00
   19    9   13      0.40      0.00
    9    1   13      1.03      0.00
    8    2   13      0.72      0.00
    7    3   13      3.65      0.00
    6    4   13     -4.54      0.00
    5    5   13      3.88      0.00
    4    6   13     -6.34      0.00
    3    7   13      1.60      0.00
    2    8   13      0.64      0.00
    1    9   13      3.65      0.00
    0   10   13      0.92      0.00
   -1   11   13     -4.04      0.00
   -2   12   13     -1.51      0.00
   -3   13   13      3.79      0.00
   -4   14   13     -0.52      0.00
   -5   15   13     -2.13      0.00
   -6   16   13      2.59      0.00
   -7   17   13      0.38      0.00
   -8   18   13      0.15      0.00
   -9   19   13     -2.53      0.00
  -10   20   13     -2.87      0.00
    7    1   13      2.34      0.00
    6    2   13      3.10      0.00
    5    3   13     -0.14      0.00
    4    4   13     -5.65      0.00
    3    5   13      2.07      0.00
    2    6   13     -6.69      0.00
    1    7   13      6.39      0.00
    0    8   13      0.53      0.00
   -1    9   13      3.45      0.00
   -2   10   13     -0.93      0.00
   -3   11   13     -4.83      0.00
   -4   12   13      1.30      0.00
   -5   13   13      2.79      0.00
   -6   14   13      2.91      0.00
   -7   15   13     -4.13      0.00
   -8   16   13      0.35      0.00
   -9   17   13     -0.81      0.00
  -10   18   13      2.08      0.00
  -11   19   13     -2.65      0.00
  -12   20   13      0.02      0.00
    5    1   13      0.34      0.00
    4    2   13      4.50      0.00
    3    3   13     -3.59      0.00
    2    4   13     -0.96      0.00
    1    5   13      1.12      0.00
    0    6   13     -3.10      0.00
   -1    7   13      2.55      0.00
   -2    8   13      0.83      0.00
   -3    9   13      1.63      0.00
   -4   10   13      2.80      0.00
   -5   11   13     -5.05      0.00
   -6   12   13      2.64      0.00
   -7   13   13     -1.05      0.00
   -8   14   13      1.98      0.00
   -9   15   13     -3.00      0.00
  -10   16   13     -0.93      0.00
  -11   17   13      2.91      0.00
  -12   18   13      1.31      0.00
  -13   19   13     -4.04      0.00
  -14   20   13      2.13      0.00
    3    1   13     -0.87      0.00
    2    2   13      3.07      0.00
    1    3   13      1.29      0.00
    0    4   13      0.92      0.00
   -1    5   13     -2.26      0.00
   -2    6   13     -4.62      0.00
   -3    7   13      0.80      0.00
   -4    8   13      4.65      0.00
   -5    9   13      0.55      0.00
   -6   10   13      1.74      0.00
   -7   11   13     -3.43      0.00
   -8   12   13      0.82      0.00
   -9   13   13     -2.06      0.00
  -10   14   13      0.13      0.00
  -11   15   13      2.36      0.00
  -12   16   13     -0.39      0.00
  -13   17   13      3.17      0.00
  -14   18   13     -2.07      0.00
  -15   19   13     -4.55      0.00
    1    1   13      3.27      0.00
    0    2   13     -3.09      0.00
   -1    3   13      3.13      0.00
   -2    4   13     -1.63      0.00
   -3    5   13      0.14      0.00
   -4    6   13     -5.96      0.00
   -5    7   13      0.25      0.00
   -6    8   13      5.70      0.00
   -7    9   13      2.52      0.00
   -8   10   13     -3.42      0.00
   -9   11   13     -0.41      0.00
  -10   12   13     -0.06      0.00
  -11   13   13      2.14      0.00
  -12   14   13     -0.72      0.00
  -13   15   13      0.70      0.00
  -14   16   13     -1.04      0.00
  -15   17   13      3.23      0.00
  -16   18   13     -1.07      0.00
   -1    1   13      5.08      0.00
   -2    2   13     -3.52      0.00
   -3    3   13     -1.05      0.00
   -4    4   13     -1.07      0.00
   -5    5   13      1.97      0.00
   -6    6   13     -2.33      0.00
   -7    7   13     -2.97      0.00
   -8    8   13      4.81      0.00
   -9    9   13      4.75      0.00
  -10   10   13     -4.77      0.00
  -11   11   13      1.74      0.00
  -12   12   13     -0.51      0.00
  -13   13   13      2.22      0.00
  -14   14   13     -1.64      0.00
  -15   15   13     -2.20      0.00
  -16   16   13      0.04      0.00
  -17   17   13      4.25      0.00
  -18   18   13     -0.06      0.00
   -3    1   13      1.69      0.00
   -4    2   13      2.52      0.00
   -5    3   13     -3.64      0.00
   -6    4   13      0.69      0.00
   -7    5   13     -2.24      0.00
   -8    6   13      2.28      0.00
   -9    7   13     -3.95      0.00
  -10    8   13      3.97      0.00
  -11    9   13      3.82      0.00
  -12   10   13     -2.75      0.00
  -13   11   13      1.68      0.00
  -14   12   13     -3.35      0.00
  -15   13   13     -0.73      0.00
  -16   14   13      0.64      0.00
  -17   15   13      1.50      0.00
  -18   16   13     -0.88      0.00
  -19   17   13      1.95      0.00
   -5    1   13      1.26      0.00
   -6    2   13      0.77      0.00
   -7    3   13     -0.13      0.00
   -8    4   13     -0.35      0.00
   -9    5   13     -4.93      0.00
  -10    6   13      0.43      0.00
  -11    7   13     -0.05      0.00
  -12    8   13      4.20      0.00
  -13    9   13      0.73      0.00
  -14   10   13     -2.93      0.00
  -15   11   13      1.14      0.00
  -16   12   13     -1.90      0.00
  -17   13   13     -0.22      0.00
  -18   14   13      1.39      0.00
  -19   15   13      3.01      0.00
  -20   16   13     -1.44      0.00
   -7    1   13      6.71      0.00
   -8    2   13     -7.16      0.00
   -9    3   13      2.46      0.00
  -10    4   13     -1.64      0.00
  -11    5   13     -1.17      0.00
  -12    6   13     -3.56      0.00
  -13    7   13      1.67      0.00
  -14    8   13      4.39      0.00
  -15    9   13     -1.68      0.00
  -16   10   13     -0.74      0.00
  -17   11   13      1.29      0.00
  -18   12   13      1.67      0.00
  -19   13   13     -1.48      0.00
  -20   14   13     -0.98      0.00
  -21   15   13      0.22      0.00
  -22   16   13      2.17      0.00
   -9    1   13      8.51      0.00
  -10    2   13     -6.35      0.00
  -11    3   13      0.90      0.00
  -12    4   13     -0.57      0.00
  -13    5   13      1.48      0.00
  -14    6   13     -4.76      0.00
  -15    7   13     -0.79      0.00
  -16    8   13      5.23      0.00
  -17    9   13     -0.40      0.00
  -18   10   13      2.79      0.00
  -19   11   13     -2.72      0.00
  -20   12   13     -0.98      0.00
  -21   13   13     -1.17      0.00
  -22   14   13      0.49      0.00
  -23   15   13     -1.88      0.00
  -11    1   13      3.20      0.00
  -12    2   13      1.90      0.00
  -13    3   13     -1.18      0.00
  -14    4   13     -2.47      0.00
  -15    5   13      0.33      0.00
  -16    6   13     -1.98      0.00
  -17    7   13      0.88      0.00
  -18    8   13      2.24      0.00
  -19    9   13     -1.31      0.00
  -20   10   13      1.59      0.00
  -21   11   13     -2.60      0.00
  -22   12   13     -3.24      0.00
  -23   13   13      3.23      0.00
  -24   14   13      0.96      0.00
  -13    1   13     -2.72      0.00
  -14    2   13      4.01      0.00
  -15    3   13     -0.68      0.00
  -16    4   13     -3.86      0.00
  -17    5   13      1.60      0.00
  -18    6   13     -0.48      0.00
  -19    7   13      2.06      0.00
  -20    8   13     -4.42      0.00
  -21    9   13     -0.25      0.00
  -22   10   13      3.14      0.00
  -23   11   13      1.57      0.00
  -24   12   13     -4.40      0.00
  -25   13   13      4.15      0.00
  -15    1   13     -5.01      0.00
  -16    2   13      2.48      0.00
  -17    3   13      2.54      0.00
  -18    4   13     -1.40      0.00
  -19    5   13     -1.39      0.00
  -20    6   13     -2.35      0.00
  -21    7   13      4.02      0.00
  -22    8   13     -2.71      0.00
  -23    9   13      1.14      0.00
  -24   10   13      3.29      0.00
  -25   11   13     -1.87      0.00
  -26   12   13     -3.09      0.00
  -17    1   13     -3.99      0.00
  -18    2   13      2.58      0.00
  -19    3   13      0.76      0.00
  -20    4   13      0.49      0.00
  -21    5   13     -4.41      0.00
  -22    6   13      1.00      0.00
  -23    7   13      5.64      0.00
  -24    8   13     -2.48      0.00
  -25    9   13     -3.28      0.00
  -26   10   13      4.20      0.00
  -27   11   13     -5.56      0.00
  -19    1   13     -2.97      0.00
  -20    2   13      0.41      0.00
  -21    3   13     -1.17      0.00
  -22    4   13      4.03      0.00
  -23    5   13     -3.23      0.00
  -24    6   13      0.06      0.00
  -25    7   13      3.00      0.00
  -26    8   13     -3.02      0.00
  -27    9   13     -3.17      0.00
  -21    1   13     -1.57      0.00
  -22    2   13     -1.13      0.00
  -23    3   13      1.61      0.00
  -24    4   13      3.16      0.00
  -25    5   13     -4.08      0.00
  -26    6   13     -2.71      0.00
  -27    7   13      5.28      0.00
  -28    8   13     -0.07      0.00
  -23    1   13     -0.11      0.00
  -24    2   13     -2.20      0.00
  -25    3   13      1.93      0.00
  -26    4   13      1.73      0.00
  -27    5   13     -1.82      0.00
  -28    6   13     -2.38      0.00
  -29    7   13      4.71      0.00
  -25    1   13     -1.50      0.00
  -26    2   13     -1.49      0.00
  -27    3   13      0.76      0.00
  -28    4   13      3.26      0.00
  -29    5   13      0.05      0.00
  -27    1   13     -3.69      0.00
  -28    2   13      1.38      0.00
  -29    3   13     -0.84      0.00
  -30    4   13      1.73      0.00
  -29    1   13     -4.36      0.00
  -30    2   13      1.47      0.00
   17    9   14     -0.65      0.00
   16   10   14      0.28      0.00
   15   11   14     -1.74      0.00
   14   12   14      3.19      0.00
   13   13   14     -6.30      0.00
   12   14   14      3.05      0.00
   11   15   14      1.15      0.00
   10   16   14     -6.38      0.00
    9   17   14      5.40      0.00
   19    5   14      4.22      0.00
   18    6   14     -6.29      0.00
   17    7   14      1.60      0.00
   16    8   14      3.47      0.00
   15    9   14      1.20      0.00
   14   10   14     -2.74      0.00
   13   11   14      0.05      0.00
   12   12   14      4.39      0.00
   11   13   14     -6.95      0.00
   10   14   14      0.57      0.00
    9   15   14      2.76      0.00
    8   16   14     -4.22      0.00
    7   17   14      2.84      0.00
    6   18   14      6.15      0.00
    5   19   14     -9.25      0.00
   19    3   14     -0.17      0.00
   18    4   14      1.25      0.00
   17    5   14      3.62      0.00
   16    6   14     -5.67      0.00
   15    7   14     -1.31      0.00
   14    8   14      3.05      0.00
   13    9   14      4.36      0.00
   12   10   14     -3.43      0.00
   11   11   14     -1.60      0.00
   10   12   14      2.51      0.00
    9   13   14     -2.12      0.00
    8   14   14      0.98      0.00
    7   15   14      0.42      0.00
    6   16   14     -2.58      0.00
    5   17   14     -2.21      0.00
    4   18   14      7.47      0.00
    3   19   14     -4.91      0.00
    2   20   14      3.28      0.00
   20    0   14      1.80      0.00
   19    1   14      1.74      0.00
   18    2   14      0.87      0.00
   17    3   14     -3.30      0.00
   16    4   14      1.74      0.00
   15    5   14      1.67      0.00
   14    6   14     -2.51      0.00
   13    7   14     -1.40      0.00
   12    8   14      1.18      0.00
   11    9   14      2.51      0.00
   10   10   14     -0.52      0.00
    9   11   14     -1.66      0.00
    8   12   14      1.85      0.00
    7   13   14      0.22      0.00
    6   14   14      0.59      0.00
    5   15   14     -4.07      0.00
    4   16   14      0.48      0.00
    3   17   14     -1.47      0.00
    2   18   14      5.39      0.00
    1   19   14      1.30      0.00
    0   20   14     -2.16      0.00
   20    2   14     -0.77      0.00
   18    0   14     -0.90      0.00
   17    1   14      2.89      0.00
   16    2   14     -1.25      0.00
   15    3   14     -4.97      0.00
   14    4   14      4.32      0.00
   13    5   14      1.14      0.00
   12    6   14     -2.10      0.00
   11    7   14     -1.72      0.00
   10    8   14      1.71      0.00
    9    9   14      1.09      0.00
    8   10   14      3.49      0.00
    7   11   14     -3.36      0.00
    6   12   14     -0.84      0.00
    5   13   14     -1.32      0.00
    4   14   14      3.73      0.00
    3   15   14     -1.97      0.00
    2   16   14      2.15      0.00
    1   17   14     -2.89      0.00
    0   18   14     -0.16      0.00
   -1   19   14      4.01      0.00
   -2   20   14     -1.49      0.00
   16    0   14     -7.50      0.00
   15    1   14      2.72      0.00
   14    2   14      2.99      0.00
   13    3   14     -3.80      0.00
   12    4   14      3.34      0.00
   11    5   14     -1.24      0.00
   10    6   14     -0.72      0.00
    9    7   14      0.68      0.00
    8    8   14      2.27      0.00
    7    9   14     -1.18      0.00
    6   10   14      0.55      0.00
    5   11   14     -3.82      0.00
    4   12   14      1.75      0.00
    3   13   14      1.55      0.00
    2   14   14      3.20      0.00
    1   15   14     -3.09      0.00
    0   16   14      0.06      0.00
   -1   17   14     -3.01      0.00
   -2   18   14      2.55      0.00
   -3   19   14      0.83      0.00
   -4   20   14      1.83      0.00
   -5   21   14     -2.58      0.00
   14    0   14     -6.07      0.00
   13    1   14      5.13      0.00
   12    2   14      4.20      0.00
   11    3   14     -7.30      0.00
   10    4   14      1.32      0.00
    9    5   14      3.98      0.00
    8    6   14      0.50      0.00
    7    7   14     -3.18      0.00
    6    8   14     -3.97      0.00
    5    9   14      2.61      0.00
    4   10   14      2.90      0.00
    3   11   14      0.13      0.00
    2   12   14     -0.36      0.00
    1   13   14     -0.39      0.00
    0   14   14     -1.40      0.00
   -1   15   14      0.37      0.00
   -2   16   14      2.61      0.00
   -3   17   14     -2.53      0.00
   -4   18   14      4.15      0.00
   -5   19   14     -4.76      0.00
   -6   20   14      4.30      0.00
   12    0   14     -8.17      0.00
   11    1   14     -1.31      0.00
   10    2   14      6.21      0.00
    9    3   14      0.12      0.00
    8    4   14     -1.65      0.00
    7    5   14     -0.37      0.00
    6    6   14     -3.44      0.00
    5    7   14      0.39      0.00
    4    8   14      0.53      0.00
    3    9   14      4.30      0.00
    2   10   14      0.68      0.00
    1   11   14     -2.56      0.00
    0   12   14     -3.01      0.00
   -1   13   14      1.59      0.00
   -2   14   14      1.71      0.00
   -3   15   14      3.34      0.00
   -4   16   14     -1.43      0.00
   -5   17   14     -3.99      0.00
   -6   18   14      4.91      0.00
   -7   19   14     -1.91      0.00
   -8   20   14      0.77      0.00
   18    8   14      3.32      0.00
   10    0   14     -6.65      0.00
    9    1   14      0.41      0.00
    8    2   14      8.59      0.00
    7    3   14     -1.86      0.00
    6    4   14     -8.19      0.00
    5    5   14      1.96      0.00
    4    6   14      3.84      0.00
    3    7   14      2.46      0.00
    2    8   14     -0.73      0.00
    1    9   14     -5.06      0.00
    0   10   14      0.03      0.00
   -1   11   14      1.42      0.00
   -2   12   14      3.53      0.00
   -3   13   14     -0.21      0.00
   -4   14   14     -1.58      0.00
   -5   15   14      0.44      0.00
   -6   16   14     -0.69      0.00
   -7   17   14      0.42      0.00
   -8   18   14      0.88      0.00
   -9   19   14      1.50      0.00
  -10   20   14     -2.31      0.00
    8    0   14     -0.56      0.00
    7    1   14     -6.01      0.00
    6    2   14      0.08      0.00
    5    3   14      3.00      0.00
    4    4   14      2.50      0.00
    3    5   14      5.35      0.00
    2    6   14     -5.07      0.00
    1    7   14     -6.97      0.00
    0    8   14      0.73      0.00
   -1    9   14      2.15      0.00
   -2   10   14      3.61      0.00
   -3   11   14      0.41      0.00
   -4   12   14     -0.46      0.00
   -5   13   14     -4.19      0.00
   -6   14   14      0.78      0.00
   -7   15   14      2.67      0.00
   -8   16   14      0.76      0.00
   -9   17   14      0.62      0.00
  -10   18   14     -3.70      0.00
  -11   19   14      5.08      0.00
  -12   20   14     -1.20      0.00
    6    0   14     -6.53      0.00
    5    1   14     -1.69      0.00
    4    2   14      7.66      0.00
    3    3   14      8.06      0.00
    2    4   14     -5.86      0.00
    1    5   14     -5.02      0.00
    0    6   14     -4.85      0.00
   -1    7   14      2.60      0.00
   -2    8   14      3.06      0.00
   -3    9   14      4.09      0.00
   -4   10   14     -4.05      0.00
   -5   11   14     -2.51      0.00
   -6   12   14      0.52      0.00
   -7   13   14      3.10      0.00
   -8   14   14      1.25      0.00
   -9   15   14     -2.16      0.00
  -10   16   14     -0.58      0.00
  -11   17   14      4.70      0.00
  -12   18   14     -3.68      0.00
  -13   19   14      1.70      0.00
    4    0   14      5.41      0.00
    3    1   14      2.00      0.00
    2    2   14     -4.40      0.00
    1    3   14     -3.14      0.00
    0    4   14     -0.97      0.00
   -1    5   14      2.26      0.00
   -2    6   14      4.07      0.00
   -3    7   14     -1.00      0.00
   -4    8   14     -5.97      0.00
   -5    9   14      0.12      0.00
   -6   10   14      1.16      0.00
   -7   11   14      3.82      0.00
   -8   12   14      0.33      0.00
   -9   13   14      1.06      0.00
  -10   14   14     -4.10      0.00
  -11   15   14     -0.75      0.00
  -12   16   14      1.34      0.00
  -13   17   14      5.35      0.00
  -14   18   14     -4.99      0.00
  -15   19   14     -0.33      0.00
    2    0   14     -0.28      0.00
    1    1   14    -11.62      0.00
    0    2   14     -3.66      0.00
   -1    3   14      8.59      0.00
   -2    4   14     11.70      0.00
   -3    5   14     -6.38      0.00
   -4    6   14     -4.26      0.00
   -5    7   14     -7.78      0.00
   -6    8   14      3.07      0.00
   -7    9   14      4.14      0.00
   -8   10   14      3.97      0.00
   -9   11   14     -2.82      0.00
  -10   12   14     -4.75      0.00
  -11   13   14      4.78      0.00
  -12   14   14     -1.29      0.00
  -13   15   14     -0.90      0.00
  -14   16   14     -2.73      0.00
  -15   17   14      5.71      0.00
  -16   18   14     -0.86      0.00
    0    0   14      3.85      0.00
   -1    1   14      4.07      0.00
   -2    2   14      5.21      0.00
   -3    3   14      1.71      0.00
   -4    4   14     -3.16      0.00
   -5    5   14     -7.58      0.00
   -6    6   14      2.50      0.00
   -7    7   14     -2.22      0.00
   -8    8   14      4.29      0.00
   -9    9   14     -1.11      0.00
  -10   10   14     -0.86      0.00
  -11   11   14     -1.64      0.00
  -12   12   14     -0.97      0.00
  -13   13   14      6.74      0.00
  -14   14   14     -2.28      0.00
  -15   15   14     -3.52      0.00
  -16   16   14     -1.16      0.00
  -17   17   14      6.36      0.00
   -2    0   14     12.34      0.00
   -3    1   14     -3.48      0.00
   -4    2   14     -8.61      0.00
   -5    3   14      0.32      0.00
   -6    4   14      1.03      0.00
   -7    5   14      4.29      0.00
   -8    6   14      0.59      0.00
   -9    7   14     -7.29      0.00
  -10    8   14     -2.87      0.00
  -11    9   14      2.66      0.00
  -12   10   14      4.11      0.00
  -13   11   14      2.39      0.00
  -14   12   14     -4.77      0.00
  -15   13   14     -0.10      0.00
  -16   14   14      2.86      0.00
  -17   15   14     -1.07      0.00
  -18   16   14     -1.63      0.00
  -19   17   14      0.86      0.00
   -4    0   14     -1.73      0.00
   -5    1   14     -9.36      0.00
   -6    2   14      3.69      0.00
   -7    3   14      9.48      0.00
   -8    4   14      1.39      0.00
   -9    5   14     -3.82      0.00
  -10    6   14     -4.57      0.00
  -11    7   14     -3.38      0.00
  -12    8   14      1.73      0.00
  -13    9   14      4.03      0.00
  -14   10   14      0.65      0.00
  -15   11   14      0.56      0.00
  -16   12   14     -2.98      0.00
  -17   13   14     -2.20      0.00
  -18   14   14      3.99      0.00
  -19   15   14     -2.25      0.00
  -20   16   14     -1.46      0.00
   -6    0   14      8.51      0.00
   -7    1   14      4.31      0.00
   -8    2   14      4.12      0.00
   -9    3   14     -4.36      0.00
  -10    4   14     -1.07      0.00
  -11    5   14      0.30      0.00
  -12    6   14      0.70      0.00
  -13    7   14     -2.75      0.00
  -14    8   14     -1.02      0.00
  -15    9   14      0.18      0.00
  -16   10   14     -1.03      0.00
  -17   11   14      3.64      0.00
  -18   12   14      0.83      0.00
  -19   13   14     -4.51      0.00
  -20   14   14     -0.14      0.00
  -21   15   14      0.00      0.00
   -8    0   14     -1.21      0.00
   -9    1   14      0.00      0.00
  -10    2   14     -1.18      0.00
  -11    3   14     -1.54      0.00
  -12    4   14      1.92      0.00
  -13    5   14      2.94      0.00
  -14    6   14     -1.62      0.00
  -15    7   14     -4.59      0.00
  -16    8   14     -2.05      0.00
  -17    9   14      3.04      0.00
  -18   10   14     -0.65      0.00
  -19   11   14      2.55      0.00
  -20   12   14      0.91      0.00
  -21   13   14     -2.69      0.00
  -22   14   14      0.20      0.00
  -10    0   14    -14.47      0.00
  -11    1   14      5.17      0.00
  -12    2   14      5.72      0.00
  -13    3   14      1.31      0.00
  -14    4   14     -3.25      0.00
  -15    5   14     -0.54      0.00
  -16    6   14      1.44      0.00
  -17    7   14     -1.01      0.00
  -18    8   14     -2.19      0.00
  -19    9   14      2.62      0.00
  -20   10   14     -1.38      0.00
  -21   11   14      0.78      0.00
  -22   12   14      2.46      0.00
  -23   13   14     -2.47      0.00
  -12    0   14     -5.19      0.00
  -13    1   14      3.14      0.00
  -14    2   14      3.45      0.00
  -15    3   14     -0.93      0.00
  -16    4   14      0.25      0.00
  -17    5   14     -2.90      0.00
  -18    6   14      2.41      0.00
  -19    7   14      0.39      0.00
  -20    8   14     -2.27      0.00
  -21    9   14      1.55      0.00
  -22   10   14     -1.70      0.00
  -23   11   14     -0.28      0.00
  -24   12   14      2.79      0.00
  -14    0   14     -3.93      0.00
  -15    1   14      0.12      0.00
  -16    2   14      2.56      0.00
  -17    3   14     -1.65      0.00
  -18    4   14      1.72      0.00
  -19    5   14     -2.64      0.00
  -20    6   14      0.73      0.00
  -21    7   14      1.44      0.00
  -22    8   14     -2.67      0.00
  -23    9   14      2.51      0.00
  -24   10   14     -2.00      0.00
  -25   11   14     -0.65      0.00
  -16    0   14     -5.47      0.00
  -17    1   14      1.33      0.00
  -18    2   14      0.35      0.00
  -19    3   14      0.82      0.00
  -20    4   14      1.75      0.00
  -21    5   14     -1.09      0.00
  -22    6   14     -1.16      0.00
  -23    7   14      1.46      0.00
  -24    8   14     -2.19      0.00
  -25    9   14      3.31      0.00
  -26   10   14     -0.43      0.00
  -18    0   14     -5.63      0.00
  -19    1   14      3.29      0.00
  -20    2   14      1.60      0.00
  -21    3   14      0.68      0.00
  -22    4   14     -0.09      0.00
  -23    5   14     -2.78      0.00
  -24    6   14      2.43      0.00
  -25    7   14      0.39      0.00
  -26    8   14     -1.21      0.00
  -27    9   14      1.02      0.00
  -20    0   14      1.03      0.00
  -21    1   14      0.46      0.00
  -22    2   14     -2.69      0.00
  -23    3   14     -1.98      0.00
  -24    4   14      4.26      0.00
  -25    5   14     -4.30      0.00
  -26    6   14      4.18      0.00
  -27    7   14     -1.57      0.00
  -28    8   14      0.59      0.00
  -22    0   14     -1.25      0.00
  -23    1   14     -1.55      0.00
  -24    2   14     -0.80      0.00
  -25    3   14     -0.21      0.00
  -26    4   14      4.20      0.00
  -27    5   14     -5.30      0.00
  -28    6   14      3.60      0.00
  -24    0   14      1.73      0.00
  -25    1   14      2.65      0.00
  -26    2   14     -1.47      0.00
  -27    3   14     -1.78      0.00
  -28    4   14      1.83      0.00
  -29    5   14     -1.58      0.00
  -26    0   14      3.24      0.00
  -27    1   14     -1.80      0.00
  -28    2   14     -1.38      0.00
  -29    3   14     -0.28      0.00
  -28    0   14      5.33      0.00
  -29    1   14     -3.50      0.00
  -30    2   14      0.25      0.00
  -30    0   14      7.03      0.00
   13   13   15     -1.37      0.00
   12   14   15      4.14      0.00
   17    7   15     -0.33      0.00
   16    8   15     -0.05      0.00
   15    9   15      1.53      0.00
   14   10   15     -5.52      0.00
   13   11   15      9.18      0.00
   12   12   15     -2.13      0.00
   11   13   15     -2.22      0.00
   10   14   15      2.21      0.00
    9   15   15      1.11      0.00
    8   16   15     -5.79      0.00
    7   17   15      2.76      0.00
    6   18   15     -1.73      0.00
   18    4   15      1.98      0.00
   17    5   15     -0.69      0.00
   16    6   15     -0.88      0.00
   15    7   15      0.68      0.00
   14    8   15      1.08      0.00
   13    9   15      1.01      0.00
   12   10   15     -4.81      0.00
   11   11   15      4.97      0.00
   10   12   15     -0.64      0.00
    9   13   15     -0.31      0.00
    8   14   15     -0.30      0.00
    7   15   15      3.17      0.00
    6   16   15     -4.33      0.00
    5   17   15      1.15      0.00
    4   18   15     -2.53      0.00
    3   19   15      5.46      0.00
   18    2   15     -4.91      0.00
   17    3   15     -1.16      0.00
   16    4   15      1.55      0.00
   15    5   15      1.09      0.00
   14    6   15     -0.50      0.00
   13    7   15     -1.24      0.00
   12    8   15      1.63      0.00
   11    9   15      1.28      0.00
   10   10   15     -2.90      0.00
    9   11   15      0.70      0.00
    8   12   15     -1.59      0.00
    7   13   15      4.07      0.00
    6   14   15      0.01      0.00
    5   15   15     -0.07      0.00
    4   16   15     -1.88      0.00
    3   17   15     -0.09      0.00
    2   18   15     -1.83      0.00
    1   19   15      2.61      0.00
   17    1   15      5.96      0.00
   16    2   15     -4.82      0.00
   15    3   15      2.38      0.00
   14    4   15      1.57      0.00
   13    5   15     -1.61      0.00
   12    6   15     -1.55      0.00
   11    7   15     -0.33      0.00
   10    8   15      1.28      0.00
    9    9   15      0.09      0.00
    8   10   15     -1.15      0.00
    7   11   15      1.47      0.00
    6   12   15     -0.91      0.00
    5   13   15      0.77      0.00
    4   14   15      1.66      0.00
    3   15   15     -3.49      0.00
    2   16   15      2.59      0.00
    1   17   15      0.14      0.00
    0   18   15     -2.28      0.00
   -1   19   15      0.39      0.00
   -2   20   15      3.05      0.00
   15    1   15      4.86      0.00
   14    2   15     -3.78      0.00
   13    3   15      0.71      0.00
   12    4   15      0.89      0.00
   11    5   15     -0.54      0.00
   10    6   15     -2.26      0.00
    9    7   15     -0.94      0.00
    8    8   15      0.47      0.00
    7    9   15      3.73      0.00
    6   10   15      0.65      0.00
    5   11   15     -3.82      0.00
    4   12   15      0.54      0.00
    3   13   15     -1.52      0.00
    2   14   15      5.94      0.00
    1   15   15     -5.65      0.00
    0   16   15      2.77      0.00
   -1   17   15      1.53      0.00
   -2   18   15     -2.98      0.00
   -3   19   15      0.61      0.00
   -4   20   15      1.00      0.00
   13    1   15      1.05      0.00
   12    2   15     -1.25      0.00
   11    3   15     -0.77      0.00
   10    4   15      0.23      0.00
    9    5   15      1.19      0.00
    8    6   15     -0.63      0.00
    7    7   15     -0.32      0.00
    6    8   15     -0.26      0.00
    5    9   15      2.05      0.00
    4   10   15      1.02      0.00
    3   11   15     -6.81      0.00
    2   12   15      4.16      0.00
    1   13   15     -0.67      0.00
    0   14   15      4.80      0.00
   -1   15   15     -6.17      0.00
   -2   16   15      0.81      0.00
   -3   17   15      2.08      0.00
   -4   18   15     -0.99      0.00
   -5   19   15      2.10      0.00
   -6   20   15     -1.96      0.00
   18    6   15     -2.22      0.00
   11    1   15     -3.50      0.00
   10    2   15      3.02      0.00
    9    3   15      1.03      0.00
    8    4   15     -2.88      0.00
    7    5   15      2.26      0.00
    6    6   15      2.02      0.00
    5    7   15     -2.18      0.00
    4    8   15     -2.82      0.00
    3    9   15      0.46      0.00
    2   10   15      3.52      0.00
    1   11   15     -3.52      0.00
    0   12   15      0.28      0.00
   -1   13   15      0.50      0.00
   -2   14   15      1.28      0.00
   -3   15   15     -2.60      0.00
   -4   16   15      0.95      0.00
   -5   17   15      0.69      0.00
   -6   18   15      0.47      0.00
   -7   19   15      2.09      0.00
   -8   20   15     -2.73      0.00
    9    1   15     -5.89      0.00
    8    2   15      2.34      0.00
    7    3   15      5.22      0.00
    6    4   15     -5.38      0.00
    5    5   15      1.61      0.00
    4    6   15      0.29      0.00
    3    7   15     -3.02      0.00
    2    8   15      0.17      0.00
    1    9   15      2.75      0.00
    0   10   15     -0.99      0.00
   -1   11   15     -0.89      0.00
   -2   12   15     -2.75      0.00
   -3   13   15      3.30      0.00
   -4   14   15     -0.61      0.00
   -5   15   15      0.46      0.00
   -6   16   15      0.40      0.00
   -7   17   15     -1.00      0.00
   -8   18   15     -0.81      0.00
   -9   19   15      3.00      0.00
    7    1   15     -5.59      0.00
    6    2   15     -0.06      0.00
    5    3   15      5.68      0.00
    4    4   15     -5.12      0.00
    3    5   15      1.27      0.00
    2    6   15      2.67      0.00
    1    7   15     -4.00      0.00
    0    8   15      0.24      0.00
   -1    9   15      3.34      0.00
   -2   10   15     -2.51      0.00
   -3   11   15     -1.19      0.00
   -4   12   15     -0.49      0.00
   -5   13   15      3.07      0.00
   -6   14   15     -0.83      0.00
   -7   15   15     -1.09      0.00
   -8   16   15     -2.05      0.00
   -9   17   15      2.61      0.00
  -10   18   15     -0.80      0.00
  -11   19   15      1.72      0.00
    5    1   15     -5.97      0.00
    4    2   15      1.16      0.00
    3    3   15      2.53      0.00
    2    4   15      0.26      0.00
    1    5   15     -0.55      0.00
    0    6   15      5.11      0.00
   -1    7   15     -5.75      0.00
   -2    8   15     -2.05      0.00
   -3    9   15      2.26      0.00
   -4   10   15      1.92      0.00
   -5   11   15     -4.10      0.00
   -6   12   15      1.41      0.00
   -7   13   15      0.13      0.00
   -8   14   15      0.16      0.00
   -9   15   15     -1.01      0.00
  -10   16   15     -2.88      0.00
  -11   17   15      4.73      0.00
  -12   18   15     -0.56      0.00
  -13   19   15     -0.84      0.00
   15   11   15     11.66      0.00
    3    1   15     -6.58      0.00
    2    2   15      2.40      0.00
    1    3   15      0.46      0.00
    0    4   15      5.09      0.00
   -1    5   15     -2.77      0.00
   -2    6   15      1.90      0.00
   -3    7   15     -2.65      0.00
   -4    8   15     -3.32      0.00
   -5    9   15      0.21      0.00
   -6   10   15      3.44      0.00
   -7   11   15     -3.39      0.00
   -8   12   15      0.25      0.00
   -9   13   15      0.74      0.00
  -10   14   15      1.36      0.00
  -11   15   15     -0.17      0.00
  -12   16   15     -3.89      0.00
  -13   17   15      2.28      0.00
  -14   18   15      1.25      0.00
   14   12   15     -7.01      0.00
    1    1   15     -3.81      0.00
    0    2   15     -0.55      0.00
   -1    3   15     -1.50      0.00
   -2    4   15      6.71      0.00
   -3    5   15      0.26      0.00
   -4    6   15     -3.30      0.00
   -5    7   15     -0.13      0.00
   -6    8   15     -2.28      0.00
   -7    9   15      0.78      0.00
   -8   10   15      0.59      0.00
   -9   11   15     -0.76      0.00
  -10   12   15     -1.24      0.00
  -11   13   15      3.49      0.00
  -12   14   15      0.74      0.00
  -13   15   15     -2.40      0.00
  -14   16   15     -2.62      0.00
  -15   17   15      1.10      0.00
  -16   18   15      0.74      0.00
   -1    1   15     -0.10      0.00
   -2    2   15     -2.22      0.00
   -3    3   15     -4.68      0.00
   -4    4   15      6.94      0.00
   -5    5   15      5.33      0.00
   -6    6   15     -2.70      0.00
   -7    7   15     -2.93      0.00
   -8    8   15     -1.84      0.00
   -9    9   15      1.49      0.00
  -10   10   15     -0.23      0.00
  -11   11   15     -0.09      0.00
  -12   12   15     -1.78      0.00
  -13   13   15      2.05      0.00
  -14   14   15      2.22      0.00
  -15   15   15     -4.28      0.00
  -16   16   15     -0.59      0.00
  -17   17   15      0.96      0.00
   -3    1   15      1.06      0.00
   -4    2   15     -0.75      0.00
   -5    3   15     -4.67      0.00
   -6    4   15      6.53      0.00
   -7    5   15      5.62      0.00
   -8    6   15     -1.08      0.00
   -9    7   15     -5.23      0.00
  -10    8   15     -2.90      0.00
  -11    9   15      1.51      0.00
  -12   10   15      1.22      0.00
  -13   11   15      0.08      0.00
  -14   12   15     -1.92      0.00
  -15   13   15     -2.12      0.00
  -16   14   15      5.88      0.00
  -17   15   15     -3.43      0.00
  -18   16   15      0.44      0.00
   -5    1   15      2.80      0.00
   -6    2   15     -1.42      0.00
   -7    3   15     -3.34      0.00
   -8    4   15      3.32      0.00
   -9    5   15      4.47      0.00
  -10    6   15     -1.11      0.00
  -11    7   15     -1.45      0.00
  -12    8   15     -3.65      0.00
  -13    9   15      0.69      0.00
  -14   10   15     -0.64      0.00
  -15   11   15      1.87      0.00
  -16   12   15      0.40      0.00
  -17   13   15     -2.83      0.00
  -18   14   15      5.34      0.00
  -19   15   15     -3.62      0.00
  -20   16   15      1.44      0.00
   -7    1   15      4.80      0.00
   -8    2   15     -4.00      0.00
   -9    3   15     -3.74      0.00
  -10    4   15      3.41      0.00
  -11    5   15      6.51      0.00
  -12    6   15     -1.42      0.00
  -13    7   15     -0.55      0.00
  -14    8   15     -3.29      0.00
  -15    9   15     -0.13      0.00
  -16   10   15     -1.31      0.00
  -17   11   15      3.21      0.00
  -18   12   15      1.84      0.00
  -19   13   15     -1.87      0.00
  -20   14   15      0.22      0.00
  -21   15   15     -3.94      0.00
   -9    1   15      3.86      0.00
  -10    2   15     -1.18      0.00
  -11    3   15     -2.12      0.00
  -12    4   15      3.50      0.00
  -13    5   15      3.84      0.00
  -14    6   15     -1.38      0.00
  -15    7   15     -1.79      0.00
  -16    8   15      0.17      0.00
  -17    9   15     -0.77      0.00
  -18   10   15      0.63      0.00
  -19   11   15     -1.14      0.00
  -20   12   15     -0.44      0.00
  -21   13   15      1.79      0.00
  -22   14   15     -0.50      0.00
  -11    1   15      2.26      0.00
  -12    2   15      0.31      0.00
  -13    3   15     -0.98      0.00
  -14    4   15     -0.42      0.00
  -15    5   15      2.13      0.00
  -16    6   15      1.01      0.00
  -17    7   15     -0.49      0.00
  -18    8   15      0.81      0.00
  -19    9   15     -4.17      0.00
  -20   10   15      2.76      0.00
  -21   11   15     -2.87      0.00
  -22   12   15      0.51      0.00
  -23   13   15      4.34      0.00
  -13    1   15      0.71      0.00
  -14    2   15     -2.47      0.00
  -15    3   15      0.99      0.00
  -16    4   15      0.09      0.00
  -17    5   15      3.81      0.00
  -18    6   15     -0.63      0.00
  -19    7   15     -1.68      0.00
  -20    8   15      0.89      0.00
  -21    9   15     -3.05      0.00
  -22   10   15      4.82      0.00
  -23   11   15     -2.17      0.00
  -24   12   15      1.43      0.00
  -15    1   15     -1.16      0.00
  -16    2   15      1.04      0.00
  -17    3   15      1.40      0.00
  -18    4   15      0.28      0.00
  -19    5   15      0.41      0.00
  -20    6   15     -1.00      0.00
  -21    7   15     -0.88      0.00
  -22    8   15      3.50      0.00
  -23    9   15     -1.11      0.00
  -24   10   15      1.10      0.00
  -25   11   15     -3.27      0.00
  -17    1   15     -3.63      0.00
  -18    2   15      4.24      0.00
  -19    3   15     -2.14      0.00
  -20    4   15     -0.33      0.00
  -21    5   15     -0.21      0.00
  -22    6   15      2.52      0.00
  -23    7   15     -1.64      0.00
  -24    8   15      0.68      0.00
  -25    9   15     -0.18      0.00
  -26   10   15     -0.81      0.00
  -19    1   15     -4.50      0.00
  -20    2   15      1.21      0.00
  -21    3   15      0.11      0.00
  -22    4   15      1.49      0.00
  -23    5   15     -0.82      0.00
  -24    6   15     -0.01      0.00
  -25    7   15     -1.45      0.00
  -26    8   15      0.09      0.00
  -27    9   15      1.81      0.00
  -21    1   15     -0.65      0.00
  -22    2   15     -1.13      0.00
  -23    3   15      2.06      0.00
  -24    4   15      0.48      0.00
  -25    5   15     -3.20      0.00
  -26    6   15     -0.53      0.00
  -27    7   15      2.37      0.00
  -23    1   15      1.49      0.00
  -24    2   15     -1.30      0.00
  -25    3   15     -0.44      0.00
  -26    4   15      2.40      0.00
  -27    5   15     -3.31      0.00
  -28    6   15     -0.40      0.00
  -25    1   15     -0.70      0.00
  -26    2   15      0.93      0.00
  -27    3   15     -0.73      0.00
  -28    4   15      3.95      0.00
  -29    5   15     -4.11      0.00
  -27    1   15     -2.13      0.00
  -28    2   15      1.72      0.00
  -29    3   15      0.04      0.00
  -29    1   15     -1.93      0.00
   14   10   16     -2.83      0.00
   13   11   16      1.79      0.00
   12   12   16     -0.61      0.00
   11   13   16      1.20      0.00
   10   14   16     -0.01      0.00
    9   15   16      0.34      0.00
    8   16   16      1.34      0.00
   16    6   16     -2.38      0.00
   15    7   16     -3.89      0.00
   14    8   16      1.89      0.00
   13    9   16      3.96      0.00
   12   10   16     -4.60      0.00
   11   11   16      0.88      0.00
   10   12   16     -1.48      0.00
    9   13   16      1.12      0.00
    8   14   16      3.64      0.00
    7   15   16     -2.31      0.00
    6   16   16      0.46      0.00
    5   17   16     -2.09      0.00
   17    3   16      3.77      0.00
   16    4   16     -7.19      0.00
   15    5   16      4.26      0.00
   14    6   16     -0.01      0.00
   13    7   16     -3.30      0.00
   12    8   16     -0.65      0.00
   11    9   16      4.38      0.00
   10   10   16     -4.12      0.00
    9   11   16      4.12      0.00
    8   12   16     -3.20      0.00
    7   13   16     -0.88      0.00
    6   14   16      3.61      0.00
    5   15   16     -2.71      0.00
    4   16   16      0.26      0.00
    3   17   16      1.02      0.00
    2   18   16      1.17      0.00
   17    1   16     -5.23      0.00
   16    2   16     -3.38      0.00
   15    3   16      5.12      0.00
   14    4   16     -1.18      0.00
   13    5   16      2.36      0.00
   12    6   16     -1.36      0.00
   11    7   16     -2.45      0.00
   10    8   16     -0.46      0.00
    9    9   16      3.69      0.00
    8   10   16     -3.66      0.00
    7   11   16      5.21      0.00
    6   12   16     -5.51      0.00
    5   13   16     -1.16      0.00
    4   14   16      3.24      0.00
    3   15   16      1.74      0.00
    2   16   16     -2.52      0.00
    1   17   16      1.48      0.00
    0   18   16     -1.98      0.00
   -1   19   16      0.93      0.00
   16    0   16      2.68      0.00
   15    1   16     -1.07      0.00
   14    2   16     -1.92      0.00
   13    3   16      2.29      0.00
   12    4   16      1.61      0.00
   11    5   16      0.66      0.00
   10    6   16     -1.22      0.00
    9    7   16     -0.95      0.00
    8    8   16     -0.53      0.00
    7    9   16      0.68      0.00
    6   10   16     -3.47      0.00
    5   11   16      4.50      0.00
    4   12   16     -2.73      0.00
    3   13   16      1.89      0.00
    2   14   16     -0.26      0.00
    1   15   16      1.02      0.00
    0   16   16     -5.01      0.00
   -1   17   16      2.72      0.00
   -2   18   16     -1.04      0.00
   -3   19   16      1.10      0.00
   14    0   16      3.19      0.00
   13    1   16      4.18      0.00
   12    2   16     -3.69      0.00
   11    3   16     -5.06      0.00
   10    4   16      4.66      0.00
    9    5   16      3.57      0.00
    8    6   16     -2.33      0.00
    7    7   16     -3.36      0.00
    6    8   16     -1.00      0.00
    5    9   16      1.93      0.00
    4   10   16      0.92      0.00
    3   11   16      2.32      0.00
    2   12   16     -3.36      0.00
    1   13   16      0.22      0.00
    0   14   16     -1.49      0.00
   -1   15   16      1.60      0.00
   -2   16   16     -1.14      0.00
   -3   17   16      1.57      0.00
   -4   18   16     -2.77      0.00
   -5   19   16      0.50      0.00
   12    0   16     -4.98      0.00
   11    1   16      2.58      0.00
   10    2   16      0.91      0.00
    9    3   16     -3.38      0.00
    8    4   16      1.86      0.00
    7    5   16     -1.13      0.00
    6    6   16      0.69      0.00
    5    7   16      0.14      0.00
    4    8   16      1.76      0.00
    3    9   16     -1.38      0.00
    2   10   16      1.26      0.00
    1   11   16     -1.13      0.00
    0   12   16     -3.55      0.00
   -1   13   16      0.89      0.00
   -2   14   16      4.03      0.00
   -3   15   16     -1.22      0.00
   -4   16   16     -0.93      0.00
   -5   17   16     -0.34      0.00
   -6   18   16     -3.49      0.00
   -7   19   16      1.30      0.00
   10    0   16     -3.57      0.00
    9    1   16      5.15      0.00
    8    2   16      0.50      0.00
    7    3   16     -6.50      0.00
    6    4   16      1.68      0.00
    5    5   16      0.38      0.00
    4    6   16      7.23      0.00
    3    7   16     -3.40      0.00
    2    8   16      0.51      0.00
    1    9   16     -6.61      0.00
    0   10   16      2.50      0.00
   -1   11   16      2.63      0.00
   -2   12   16      0.48      0.00
   -3   13   16     -2.38      0.00
   -4   14   16      2.26      0.00
   -5   15   16     -4.48      0.00
   -6   16   16      2.14      0.00
   -7   17   16      1.72      0.00
   -8   18   16     -5.26      0.00
   -9   19   16      0.37      0.00
    8    0   16     -1.75      0.00
    7    1   16     -0.34      0.00
    6    2   16     -3.14      0.00
    5    3   16      0.44      0.00
    4    4   16      5.85      0.00
    3    5   16     -2.68      0.00
    2    6   16      2.16      0.00
    1    7   16     -5.65      0.00
    0    8   16      2.84      0.00
   -1    9   16     -1.98      0.00
   -2   10   16      4.02      0.00
   -3   11   16      0.93      0.00
   -4   12   16     -3.21      0.00
   -5   13   16     -4.32      0.00
   -6   14   16      4.86      0.00
   -7   15   16     -0.93      0.00
   -8   16   16     -0.11      0.00
   -9   17   16      0.76      0.00
  -10   18   16     -3.51      0.00
  -11   19   16      1.33      0.00
   15    9   16     -0.02      0.00
    6    0   16     -3.04      0.00
    5    1   16      5.90      0.00
    4    2   16      0.18      0.00
    3    3   16     -0.26      0.00
    2    4   16     -4.10      0.00
    1    5   16     -2.72      0.00
    0    6   16      3.40      0.00
   -1    7   16      4.63      0.00
   -2    8   16      1.14      0.00
   -3    9   16     -3.41      0.00
   -4   10   16     -0.90      0.00
   -5   11   16     -2.54      0.00
   -6   12   16      1.85      0.00
   -7   13   16      0.39      0.00
   -8   14   16      2.88      0.00
   -9   15   16     -2.11      0.00
  -10   16   16     -1.99      0.00
  -11   17   16      1.44      0.00
  -12   18   16     -1.62      0.00
    4    0   16      4.06      0.00
    3    1   16      1.35      0.00
    2    2   16     -6.77      0.00
    1    3   16     -3.55      0.00
    0    4   16      0.11      0.00
   -1    5   16      5.73      0.00
   -2    6   16      2.21      0.00
   -3    7   16      4.83      0.00
   -4    8   16     -6.19      0.00
   -5    9   16     -5.62      0.00
   -6   10   16      5.18      0.00
   -7   11   16     -0.44      0.00
   -8   12   16      3.39      0.00
   -9   13   16     -4.94      0.00
  -10   14   16      0.27      0.00
  -11   15   16      1.72      0.00
  -12   16   16      1.30      0.00
  -13   17   16     -3.78      0.00
  -14   18   16     -1.77      0.00
    2    0   16      1.01      0.00
    1    1   16     -6.65      0.00
    0    2   16      1.59      0.00
   -1    3   16      1.56      0.00
   -2    4   16      3.38      0.00
   -3    5   16      0.56      0.00
   -4    6   16     -4.17      0.00
   -5    7   16      2.85      0.00
   -6    8   16     -0.55      0.00
   -7    9   16      1.03      0.00
   -8   10   16      3.89      0.00
   -9   11   16     -7.99      0.00
  -10   12   16      1.26      0.00
  -11   13   16     -0.19      0.00
  -12   14   16      2.38      0.00
  -13   15   16     -0.60      0.00
  -14   16   16      2.69      0.00
  -15   17   16     -5.87      0.00
    0    0   16      9.23      0.00
   -1    1   16      1.06      0.00
   -2    2   16      4.71      0.00
   -3    3   16     -6.27      0.00
   -4    4   16     -5.22      0.00
   -5    5   16      0.70      0.00
   -6    6   16      4.75      0.00
   -7    7   16      6.16      0.00
   -8    8   16     -3.56      0.00
   -9    9   16     -0.77      0.00
  -10   10   16     -2.09      0.00
  -11   11   16     -2.44      0.00
  -12   12   16      3.56      0.00
  -13   13   16      1.38      0.00
  -14   14   16     -2.44      0.00
  -15   15   16     -0.86      0.00
  -16   16   16      6.98      0.00
  -17   17   16     -6.91      0.00
   -2    0   16      8.17      0.00
   -3    1   16     -5.06      0.00
   -4    2   16     -3.80      0.00
   -5    3   16     -3.12      0.00
   -6    4   16     -0.81      0.00
   -7    5   16      4.77      0.00
   -8    6   16      6.70      0.00
   -9    7   16     -0.04      0.00
  -10    8   16     -8.57      0.00
  -11    9   16      4.14      0.00
  -12   10   16      1.67      0.00
  -13   11   16     -0.51      0.00
  -14   12   16     -1.30      0.00
  -15   13   16     -0.83      0.00
  -16   14   16     -0.64      0.00
  -17   15   16      2.54      0.00
  -18   16   16      4.14      0.00
   -4    0   16     -2.41      0.00
   -5    1   16     -3.18      0.00
   -6    2   16      3.18      0.00
   -7    3   16      4.22      0.00
   -8    4   16     -2.11      0.00
   -9    5   16     -4.13      0.00
  -10    6   16      4.74      0.00
  -11    7   16      2.50      0.00
  -12    8   16     -0.99      0.00
  -13    9   16      1.41      0.00
  -14   10   16     -1.75      0.00
  -15   11   16     -4.48      0.00
  -16   12   16      4.58      0.00
  -17   13   16     -0.37      0.00
  -18   14   16     -2.22      0.00
  -19   15   16      1.17      0.00
   -6    0   16      4.06      0.00
   -7    1   16      5.19      0.00
   -8    2   16     -0.56      0.00
   -9    3   16     -4.43      0.00
  -10    4   16     -3.81      0.00
  -11    5   16      0.69      0.00
  -12    6   16      7.05      0.00
  -13    7   16      0.34      0.00
  -14    8   16     -1.00      0.00
  -15    9   16     -2.22      0.00
  -16   10   16      1.13      0.00
  -17   11   16     -3.86      0.00
  -18   12   16      6.41      0.00
  -19   13   16     -2.50      0.00
  -20   14   16     -2.26      0.00
   -8    0   16     -4.07      0.00
   -9    1   16     -0.89      0.00
  -10    2   16     -2.85      0.00
  -11    3   16      0.17      0.00
  -12    4   16     -1.82      0.00
  -13    5   16      3.20      0.00
  -14    6   16      2.32      0.00
  -15    7   16     -1.54      0.00
  -16    8   16      0.76      0.00
  -17    9   16      0.63      0.00
  -18   10   16      2.01      0.00
  -19   11   16     -4.64      0.00
  -20   12   16      1.63      0.00
  -21   13   16      0.60      0.00
  -22   14   16      1.57      0.00
  -10    0   16     -8.54      0.00
  -11    1   16      2.85      0.00
  -12    2   16      3.36      0.00
  -13    3   16      1.02      0.00
  -14    4   16     -5.90      0.00
  -15    5   16      2.17      0.00
  -16    6   16      3.47      0.00
  -17    7   16      0.02      0.00
  -18    8   16      0.23      0.00
  -19    9   16     -1.65      0.00
  -20   10   16      1.36      0.00
  -21   11   16     -0.62      0.00
  -22   12   16     -1.42      0.00
  -23   13   16      1.05      0.00
  -12    0   16      0.64      0.00
  -13    1   16      0.13      0.00
  -14    2   16      0.31      0.00
  -15    3   16     -0.54      0.00
  -16    4   16     -3.01      0.00
  -17    5   16      0.77      0.00
  -18    6   16      1.87      0.00
  -19    7   16     -0.74      0.00
  -20    8   16      2.01      0.00
  -21    9   16     -2.95      0.00
  -22   10   16      0.89      0.00
  -23   11   16      1.90      0.00
  -24   12   16     -2.48      0.00
  -14    0   16     -0.94      0.00
  -15    1   16     -1.81      0.00
  -16    2   16      0.08      0.00
  -17    3   16     -0.66      0.00
  -18    4   16     -2.23      0.00
  -19    5   16      1.31      0.00
  -20    6   16      1.23      0.00
  -21    7   16     -1.83      0.00
  -22    8   16      3.36      0.00
  -23    9   16     -1.56      0.00
  -24   10   16     -0.99      0.00
  -25   11   16      1.00      0.00
  -16    0   16     -1.91      0.00
  -17    1   16     -0.70      0.00
  -18    2   16      0.80      0.00
  -19    3   16      1.13      0.00
  -20    4   16     -0.72      0.00
  -21    5   16      1.19      0.00
  -22    6   16      0.51      0.00
  -23    7   16     -4.38      0.00
  -24    8   16      2.99      0.00
  -25    9   16      1.35      0.00
  -18    0   16     -0.05      0.00
  -19    1   16      1.21      0.00
  -20    2   16      2.82      0.00
  -21    3   16     -1.48      0.00
  -22    4   16     -2.01      0.00
  -23    5   16     -0.09      0.00
  -24    6   16      2.95      0.00
  -25    7   16     -5.19      0.00
  -26    8   16      1.27      0.00
  -20    0   16      1.89      0.00
  -21    1   16     -2.05      0.00
  -22    2   16     -0.77      0.00
  -23    3   16     -1.30      0.00
  -24    4   16      0.59      0.00
  -25    5   16      0.63      0.00
  -26    6   16      1.69      0.00
  -27    7   16     -3.32      0.00
  -22    0   16     -3.69      0.00
  -23    1   16     -0.22      0.00
  -24    2   16      1.80      0.00
  -25    3   16      2.01      0.00
  -26    4   16     -1.07      0.00
  -27    5   16      1.19      0.00
  -28    6   16     -1.05      0.00
  -24    0   16      0.45      0.00
  -25    1   16      2.62      0.00
  -26    2   16     -1.77      0.00
  -27    3   16      0.32      0.00
  -28    4   16      0.70      0.00
  -26    0   16     -0.67      0.00
  -27    1   16     -0.80      0.00
  -28    2   16     -1.59      0.00
  -28    0   16      0.32      0.00
  -29    1   16      1.15      0.00
  -29    3   16     -0.28      0.00
   13    9   17     -1.87      0.00
   12   10   17      5.64      0.00
   11   11   17     -6.47      0.00
   10   12   17      0.99      0.00
    9   13   17      1.97      0.00
    8   14   17     -1.12      0.00
    7   15   17      1.30      0.00
   15    5   17     -1.37      0.00
   14    6   17      4.93      0.00
   13    7   17      0.72      0.00
   12    8   17     -4.46      0.00
   11    9   17     -1.42      0.00
   10   10   17      5.53      0.00
    9   11   17     -4.81      0.00
    8   12   17     -0.23      0.00
    7   13   17      1.55      0.00
    6   14   17      0.76      0.00
    5   15   17      1.15      0.00
    4   16   17     -4.07      0.00
    3   17   17     -1.72      0.00
   16    2   17     -1.71      0.00
   15    3   17      5.81      0.00
   14    4   17      0.06      0.00
   13    5   17     -7.05      0.00
   12    6   17      4.64      0.00
   11    7   17      2.56      0.00
   10    8   17     -2.15      0.00
    9    9   17     -2.42      0.00
    8   10   17      2.45      0.00
    7   11   17     -0.64      0.00
    6   12   17     -0.77      0.00
    5   13   17     -1.05      0.00
    4   14   17      3.11      0.00
    3   15   17      0.71      0.00
    2   16   17     -4.95      0.00
    1   17   17     -1.83      0.00
    0   18   17      9.18      0.00
   15    1   17      0.51      0.00
   14    2   17     -4.23      0.00
   13    3   17      1.99      0.00
   12    4   17      2.12      0.00
   11    5   17     -5.59      0.00
   10    6   17      4.06      0.00
    9    7   17      1.04      0.00
    8    8   17      0.40      0.00
    7    9   17     -1.38      0.00
    6   10   17      0.39      0.00
    5   11   17     -0.08      0.00
    4   12   17     -1.68      0.00
    3   13   17     -1.68      0.00
    2   14   17      5.15      0.00
    1   15   17      1.67      0.00
    0   16   17     -6.42      0.00
   -1   17   17     -0.55      0.00
   -2   18   17      5.04      0.00
   13    1   17      1.59      0.00
   12    2   17     -3.32      0.00
   11    3   17      1.32      0.00
   10    4   17      2.58      0.00
    9    5   17     -3.13      0.00
    8    6   17      1.26      0.00
    7    7   17      0.07      0.00
    6    8   17      3.09      0.00
    5    9   17     -2.38      0.00
    4   10   17      0.14      0.00
    3   11   17     -0.45      0.00
    2   12   17     -1.69      0.00
    1   13   17     -0.15      0.00
    0   14   17      4.28      0.00
   -1   15   17      1.55      0.00
   -2   16   17     -6.68      0.00
   -3   17   17      0.77      0.00
   -4   18   17      2.94      0.00
   11    1   17      1.60      0.00
   10    2   17     -0.56      0.00
    9    3   17      1.83      0.00
    8    4   17     -1.59      0.00
    7    5   17     -1.08      0.00
    6    6   17      0.35      0.00
    5    7   17      0.94      0.00
    4    8   17      2.35      0.00
    3    9   17     -3.57      0.00
    2   10   17      1.00      0.00
    1   11   17      2.48      0.00
    0   12   17     -3.38      0.00
   -1   13   17     -0.19      0.00
   -2   14   17      1.91      0.00
   -3   15   17      1.65      0.00
   -4   16   17     -2.22      0.00
   -5   17   17     -0.92      0.00
   -6   18   17      2.74      0.00
    9    1   17      2.31      0.00
    8    2   17     -3.48      0.00
    7    3   17      3.17      0.00
    6    4   17     -1.37      0.00
    5    5   17      0.60      0.00
    4    6   17     -2.64      0.00
    3    7   17      0.46      0.00
    2    8   17      2.99      0.00
    1    9   17      0.58      0.00
    0   10   17     -2.69      0.00
   -1   11   17      4.04      0.00
   -2   12   17     -4.62      0.00
   -3   13   17      0.99      0.00
   -4   14   17      1.57      0.00
   -5   15   17      0.37      0.00
   -6   16   17      1.00      0.00
   -7   17   17     -4.07      0.00
   -8   18   17      4.65      0.00
    7    1   17      4.68      0.00
    6    2   17     -4.11      0.00
    5    3   17      2.68      0.00
    4    4   17     -0.11      0.00
    3    5   17     -2.28      0.00
    2    6   17     -0.73      0.00
    1    7   17     -0.37      0.00
    0    8   17      3.88      0.00
   -1    9   17      4.10      0.00
   -2   10   17     -6.64      0.00
   -3   11   17      2.47      0.00
   -4   12   17     -2.55      0.00
   -5   13   17      2.97      0.00
   -6   14   17      0.19      0.00
   -7   15   17     -2.44      0.00
   -8   16   17      3.17      0.00
   -9   17   17     -4.01      0.00
  -10   18   17      5.44      0.00
    5    1   17      4.54      0.00
    4    2   17     -0.49      0.00
    3    3   17     -1.65      0.00
    2    4   17      0.99      0.00
    1    5   17     -4.35      0.00
    0    6   17      5.59      0.00
   -1    7   17     -3.13      0.00
   -2    8   17      1.05      0.00
   -3    9   17      3.94      0.00
   -4   10   17     -3.17      0.00
   -5   11   17      0.59      0.00
   -6   12   17     -2.57      0.00
   -7   13   17      3.05      0.00
   -8   14   17     -0.48      0.00
   -9   15   17     -1.53      0.00
  -10   16   17      3.70      0.00
  -11   17   17     -4.93      0.00
    3    1   17     -0.11      0.00
    2    2   17      2.26      0.00
    1    3   17      0.19      0.00
    0    4   17      2.04      0.00
   -1    5   17     -5.91      0.00
   -2    6   17      3.45      0.00
   -3    7   17     -3.22      0.00
   -4    8   17      1.13      0.00
   -5    9   17      3.64      0.00
   -6   10   17      1.00      0.00
   -7   11   17     -1.09      0.00
   -8   12   17     -4.16      0.00
   -9   13   17      3.86      0.00
  -10   14   17     -0.59      0.00
  -11   15   17     -0.79      0.00
  -12   16   17      2.98      0.00
  -13   17   17     -3.96      0.00
    1    1   17     -2.29      0.00
    0    2   17      2.22      0.00
   -1    3   17      2.69      0.00
   -2    4   17     -1.70      0.00
   -3    5   17     -4.95      0.00
   -4    6   17      0.84      0.00
   -5    7   17      0.73      0.00
   -6    8   17      3.07      0.00
   -7    9   17      1.52      0.00
   -8   10   17      0.86      0.00
   -9   11   17     -1.96      0.00
  -10   12   17     -2.86      0.00
  -11   13   17      3.78      0.00
  -12   14   17     -1.15      0.00
  -13   15   17     -0.65      0.00
  -14   16   17      1.92      0.00
   -1    1   17     -2.64      0.00
   -2    2   17      0.32      0.00
   -3    3   17      0.73      0.00
   -4    4   17     -1.28      0.00
   -5    5   17     -0.41      0.00
   -6    6   17      1.50      0.00
   -7    7   17     -1.25      0.00
   -8    8   17      1.88      0.00
   -9    9   17      0.76      0.00
  -10   10   17      1.73      0.00
  -11   11   17     -2.85      0.00
  -12   12   17     -0.59      0.00
  -13   13   17      2.24      0.00
  -14   14   17     -1.51      0.00
  -15   15   17      0.25      0.00
  -16   16   17     -0.68      0.00
   -3    1   17     -3.37      0.00
   -4    2   17      1.67      0.00
   -5    3   17      0.86      0.00
   -6    4   17      0.30      0.00
   -7    5   17     -2.44      0.00
   -8    6   17     -0.66      0.00
   -9    7   17     -0.91      0.00
  -10    8   17      1.71      0.00
  -11    9   17      2.51      0.00
  -12   10   17      1.90      0.00
  -13   11   17     -3.61      0.00
  -14   12   17     -0.33      0.00
  -15   13   17      0.72      0.00
  -16   14   17     -1.43      0.00
  -17   15   17      4.12      0.00
   -5    1   17     -1.31      0.00
   -6    2   17      1.07      0.00
   -7    3   17     -2.11      0.00
   -8    4   17     -1.17      0.00
   -9    5   17     -1.17      0.00
  -10    6   17     -1.87      0.00
  -11    7   17      3.05      0.00
  -12    8   17      0.64      0.00
  -13    9   17      3.01      0.00
  -14   10   17     -0.50      0.00
  -15   11   17     -3.00      0.00
  -16   12   17      1.29      0.00
  -17   13   17      0.56      0.00
  -18   14   17     -2.11      0.00
  -19   15   17      4.90      0.00
   -7    1   17     -0.09      0.00
   -8    2   17     -0.22      0.00
   -9    3   17     -4.36      0.00
  -10    4   17      2.30      0.00
  -11    5   17      2.15      0.00
  -12    6   17     -4.32      0.00
  -13    7   17      1.14      0.00
  -14    8   17      0.49      0.00
  -15    9   17      3.59      0.00
  -16   10   17     -0.98      0.00
  -17   11   17     -1.66      0.00
  -18   12   17      2.51      0.00
  -19   13   17     -2.41      0.00
  -20   14   17     -2.76      0.00
   -9    1   17     -0.57      0.00
  -10    2   17      4.36      0.00
  -11    3   17     -4.91      0.00
  -12    4   17      1.91      0.00
  -13    5   17     -2.07      0.00
  -14    6   17     -2.16      0.00
  -15    7   17     -0.10      0.00
  -16    8   17      1.72      0.00
  -17    9   17      3.39      0.00
  -18   10   17     -1.41      0.00
  -19   11   17     -1.29      0.00
  -20   12   17      0.33      0.00
  -21   13   17     -2.16      0.00
  -11    1   17     -0.79      0.00
  -12    2   17      2.23      0.00
  -13    3   17     -5.07      0.00
  -14    4   17      1.59      0.00
  -15    5   17     -2.82      0.00
  -16    6   17      1.76      0.00
  -17    7   17     -0.49      0.00
  -18    8   17      0.25      0.00
  -19    9   17      1.51      0.00
  -20   10   17     -2.28      0.00
  -21   11   17      2.94      0.00
  -22   12   17     -2.16      0.00
  -13    1   17      0.65      0.00
  -14    2   17     -3.41      0.00
  -15    3   17      0.55      0.00
  -16    4   17      4.04      0.00
  -17    5   17     -2.60      0.00
  -18    6   17     -1.58      0.00
  -19    7   17     -1.28      0.00
  -20    8   17      2.32      0.00
  -21    9   17      0.36      0.00
  -22   10   17     -1.74      0.00
  -23   11   17      5.10      0.00
  -15    1   17      3.49      0.00
  -16    2   17     -2.71      0.00
  -17    3   17      1.11      0.00
  -18    4   17      0.34      0.00
  -19    5   17     -1.23      0.00
  -20    6   17     -1.80      0.00
  -21    7   17     -0.79      0.00
  -22    8   17      4.05      0.00
  -23    9   17     -2.67      0.00
  -24   10   17      0.28      0.00
  -17    1   17      1.35      0.00
  -18    2   17     -1.16      0.00
  -19    3   17     -1.09      0.00
  -20    4   17     -1.55      0.00
  -21    5   17      4.12      0.00
  -22    6   17     -1.61      0.00
  -23    7   17     -1.50      0.00
  -24    8   17      0.92      0.00
  -25    9   17     -2.93      0.00
  -19    1   17     -2.71      0.00
  -20    2   17      1.33      0.00
  -21    3   17      2.04      0.00
  -22    4   17     -2.09      0.00
  -23    5   17      2.85      0.00
  -24    6   17     -3.08      0.00
  -25    7   17      2.96      0.00
  -26    8   17     -2.41      0.00
  -21    1   17     -3.10      0.00
  -22    2   17      2.31      0.00
  -23    3   17      1.46      0.00
  -24    4   17     -1.21      0.00
  -25    5   17     -0.94      0.00
  -26    6   17     -1.07      0.00
  -23    1   17     -3.02      0.00
  -24    2   17      0.13      0.00
  -25    3   17      0.28      0.00
  -26    4   17      4.11      0.00
  -27    5   17     -4.30      0.00
  -25    1   17     -1.30      0.00
  -26    2   17     -2.34      0.00
  -27    3   17      1.27      0.00
  -28    4   17      5.45      0.00
  -27    1   17      1.85      0.00
  -28    2   17     -5.11      0.00
   12    8   18     -0.26      0.00
   11    9   18      1.50      0.00
   10   10   18      2.31      0.00
    9   11   18     -2.90      0.00
    8   12   18     -1.13      0.00
    7   13   18      1.37      0.00
    6   14   18      1.01      0.00
    5   15   18     -2.23      0.00
   14    4   18     -0.35      0.00
   13    5   18      1.34      0.00
   12    6   18     -3.28      0.00
   11    7   18      2.87      0.00
   10    8   18     -1.82      0.00
    9    9   18      1.53      0.00
    8   10   18      4.03      0.00
    7   11   18     -3.14      0.00
    6   12   18     -4.28      0.00
    5   13   18      1.37      0.00
    4   14   18      5.60      0.00
    3   15   18     -2.56      0.00
    2   16   18     -1.32      0.00
   14    2   18      1.50      0.00
   13    3   18      0.20      0.00
   12    4   18     -1.37      0.00
   11    5   18      1.16      0.00
   10    6   18     -3.34      0.00
    9    7   18      4.29      0.00
    8    8   18     -4.11      0.00
    7    9   18      0.25      0.00
    6   10   18      5.54      0.00
    5   11   18     -1.19      0.00
    4   12   18     -4.67      0.00
    3   13   18      0.29      0.00
    2   14   18      6.27      0.00
    1   15   18     -3.94      0.00
    0   16   18     -0.51      0.00
   -1   17   18     -1.32      0.00
   14    0   18     -1.27      0.00
   13    1   18      0.76      0.00
   12    2   18     -0.19      0.00
   11    3   18     -1.23      0.00
   10    4   18      1.72      0.00
    9    5   18      1.12      0.00
    8    6   18     -4.45      0.00
    7    7   18      2.79      0.00
    6    8   18     -1.99      0.00
    5    9   18     -0.90      0.00
    4   10   18      7.02      0.00
    3   11   18     -0.10      0.00
    2   12   18     -5.82      0.00
    1   13   18     -2.32      0.00
    0   14   18      5.25      0.00
   -1   15   18      0.02      0.00
   -2   16   18      1.06      0.00
   -3   17   18     -3.77      0.00
   12    0   18     -2.82      0.00
   11    1   18     -2.91      0.00
   10    2   18      4.43      0.00
    9    3   18     -0.87      0.00
    8    4   18      0.19      0.00
    7    5   18     -0.98      0.00
    6    6   18     -0.77      0.00
    5    7   18      2.36      0.00
    4    8   18      1.18      0.00
    3    9   18     -5.94      0.00
    2   10   18      6.15      0.00
    1   11   18     -0.42      0.00
    0   12   18     -3.02      0.00
   -1   13   18     -0.99      0.00
   -2   14   18      4.13      0.00
   -3   15   18      0.95      0.00
   -4   16   18     -0.89      0.00
   -5   17   18     -4.73      0.00
   10    0   18      3.95      0.00
    9    1   18     -2.90      0.00
    8    2   18      2.21      0.00
    7    3   18     -5.18      0.00
    6    4   18      4.53      0.00
    5    5   18      1.96      0.00
    4    6   18     -0.44      0.00
    3    7   18     -3.78      0.00
    2    8   18      3.04      0.00
    1    9   18     -6.42      0.00
    0   10   18      6.08      0.00
   -1   11   18      0.75      0.00
   -2   12   18      1.55      0.00
   -3   13   18     -3.98      0.00
   -4   14   18      0.08      0.00
   -5   15   18      1.11      0.00
   -6   16   18      1.67      0.00
   -7   17   18     -4.31      0.00
    8    0   18     -0.17      0.00
    7    1   18     -3.61      0.00
    6    2   18      4.29      0.00
    5    3   18     -2.65      0.00
    4    4   18      4.61      0.00
    3    5   18     -1.11      0.00
    2    6   18     -2.34      0.00
    1    7   18     -3.47      0.00
    0    8   18      3.06      0.00
   -1    9   18      0.00      0.00
   -2   10   18      4.74      0.00
   -3   11   18     -3.23      0.00
   -4   12   18     -0.65      0.00
   -5   13   18     -3.14      0.00
   -6   14   18      3.68      0.00
   -7   15   18      1.12      0.00
   -8   16   18      0.11      0.00
   -9   17   18     -2.73      0.00
    6    0   18     -4.07      0.00
    5    1   18      5.36      0.00
    4    2   18      4.21      0.00
    3    3   18     -6.22      0.00
    2    4   18     -0.09      0.00
    1    5   18     -0.53      0.00
    0    6   18      1.26      0.00
   -1    7   18      2.45      0.00
   -2    8   18     -2.38      0.00
   -3    9   18     -0.39      0.00
   -4   10   18      0.67      0.00
   -5   11   18     -1.28      0.00
   -6   12   18      2.37      0.00
   -7   13   18     -0.55      0.00
   -8   14   18      1.22      0.00
   -9   15   18     -0.90      0.00
  -10   16   18     -1.25      0.00
  -11   17   18      2.98      0.00
    4    0   18     -5.47      0.00
    3    1   18      0.53      0.00
    2    2   18     -1.62      0.00
    1    3   18     -3.22      0.00
    0    4   18      6.11      0.00
   -1    5   18     -0.90      0.00
   -2    6   18      0.12      0.00
   -3    7   18      1.28      0.00
   -4    8   18     -6.35      0.00
   -5    9   18     -1.17      0.00
   -6   10   18      5.91      0.00
   -7   11   18      3.25      0.00
   -8   12   18     -1.53      0.00
   -9   13   18     -4.92      0.00
  -10   14   18      1.24      0.00
  -11   15   18      2.78      0.00
  -12   16   18     -3.58      0.00
    2    0   18     -6.67      0.00
    1    1   18      0.05      0.00
    0    2   18      1.79      0.00
   -1    3   18      0.37      0.00
   -2    4   18      7.13      0.00
   -3    5   18     -6.32      0.00
   -4    6   18     -4.26      0.00
   -5    7   18      0.51      0.00
   -6    8   18      2.43      0.00
   -7    9   18      1.52      0.00
   -8   10   18      0.78      0.00
   -9   11   18     -2.38      0.00
  -10   12   18      0.10      0.00
  -11   13   18     -0.37      0.00
  -12   14   18      2.55      0.00
  -13   15   18     -1.26      0.00
  -14   16   18     -4.11      0.00
    0    0   18      0.86      0.00
   -1    1   18      5.53      0.00
   -2    2   18     -1.24      0.00
   -3    3   18     -3.75      0.00
   -4    4   18      0.46      0.00
   -5    5   18     -2.66      0.00
   -6    6   18      2.00      0.00
   -7    7   18      1.21      0.00
   -8    8   18     -1.08      0.00
   -9    9   18     -0.91      0.00
  -10   10   18     -1.16      0.00
  -11   11   18      2.33      0.00
  -12   12   18      2.49      0.00
  -13   13   18     -2.92      0.00
  -14   14   18      1.80      0.00
  -15   15   18     -2.58      0.00
   -2    0   18     -2.01      0.00
   -3    1   18      0.89      0.00
   -4    2   18     -5.76      0.00
   -5    3   18      1.24      0.00
   -6    4   18      2.77      0.00
   -7    5   18      0.81      0.00
   -8    6   18      0.83      0.00
   -9    7   18     -5.77      0.00
  -10    8   18     -3.76      0.00
  -11    9   18      6.94      0.00
  -12   10   18      1.44      0.00
  -13   11   18      0.95      0.00
  -14   12   18     -3.52      0.00
  -15   13   18     -2.63      0.00
  -16   14   18      5.48      0.00
  -17   15   18     -2.25      0.00
   -4    0   18     -5.19      0.00
   -5    1   18      1.87      0.00
   -6    2   18      1.64      0.00
   -7    3   18      4.83      0.00
   -8    4   18     -0.68      0.00
   -9    5   18     -6.53      0.00
  -10    6   18      1.61      0.00
  -11    7   18     -2.35      0.00
  -12    8   18      0.28      0.00
  -13    9   18      4.00      0.00
  -14   10   18     -3.90      0.00
  -15   11   18      3.31      0.00
  -16   12   18     -0.49      0.00
  -17   13   18     -1.45      0.00
  -18   14   18     -0.38      0.00
   -6    0   18      3.61      0.00
   -7    1   18      3.76      0.00
   -8    2   18     -1.57      0.00
   -9    3   18     -3.05      0.00
  -10    4   18     -0.58      0.00
  -11    5   18     -0.12      0.00
  -12    6   18      4.06      0.00
  -13    7   18     -5.81      0.00
  -14    8   18     -1.81      0.00
  -15    9   18      2.94      0.00
  -16   10   18     -1.30      0.00
  -17   11   18      4.42      0.00
  -18   12   18      0.45      0.00
  -19   13   18     -2.77      0.00
   -8    0   18     -2.44      0.00
   -9    1   18     -2.49      0.00
  -10    2   18      0.97      0.00
  -11    3   18      1.31      0.00
  -12    4   18      0.33      0.00
  -13    5   18      0.60      0.00
  -14    6   18      0.35      0.00
  -15    7   18     -5.02      0.00
  -16    8   18      0.33      0.00
  -17    9   18      2.84      0.00
  -18   10   18     -0.39      0.00
  -19   11   18     -2.22      0.00
  -20   12   18      4.77      0.00
  -21   13   18     -1.12      0.00
  -10    0   18     -2.17      0.00
  -11    1   18      2.18      0.00
  -12    2   18      6.76      0.00
  -13    3   18     -2.90      0.00
  -14    4   18     -2.18      0.00
  -15    5   18      0.60      0.00
  -16    6   18      1.65      0.00
  -17    7   18     -2.09      0.00
  -18    8   18     -1.73      0.00
  -19    9   18     -0.57      0.00
  -20   10   18      2.42      0.00
  -21   11   18     -4.51      0.00
  -22   12   18      8.46      0.00
  -12    0   18      2.53      0.00
  -13    1   18     -2.50      0.00
  -14    2   18      4.70      0.00
  -15    3   18     -5.22      0.00
  -16    4   18      2.07      0.00
  -17    5   18     -0.55      0.00
  -18    6   18     -1.01      0.00
  -19    7   18      1.07      0.00
  -20    8   18     -1.86      0.00
  -21    9   18      0.56      0.00
  -22   10   18      1.25      0.00
  -23   11   18     -3.67      0.00
  -14    0   18     -2.40      0.00
  -15    1   18     -2.35      0.00
  -16    2   18      6.63      0.00
  -17    3   18     -4.54      0.00
  -18    4   18      1.12      0.00
  -19    5   18      0.99      0.00
  -20    6   18     -1.36      0.00
  -21    7   18      3.54      0.00
  -22    8   18     -4.03      0.00
  -23    9   18      3.39      0.00
  -24   10   18     -3.37      0.00
  -16    0   18     -0.57      0.00
  -17    1   18     -1.92      0.00
  -18    2   18      5.44      0.00
  -19    3   18     -0.63      0.00
  -20    4   18      0.13      0.00
  -21    5   18      0.31      0.00
  -22    6   18     -2.59      0.00
  -23    7   18      3.65      0.00
  -24    8   18     -4.75      0.00
  -18    0   18      3.49      0.00
  -19    1   18     -3.14      0.00
  -20    2   18      3.00      0.00
  -21    3   18     -0.84      0.00
  -22    4   18     -1.26      0.00
  -23    5   18     -0.17      0.00
  -24    6   18     -1.78      0.00
  -25    7   18      4.26      0.00
  -20    0   18      4.69      0.00
  -21    1   18     -5.34      0.00
  -22    2   18     -0.66      0.00
  -23    3   18      0.76      0.00
  -24    4   18      1.10      0.00
  -25    5   18      1.98      0.00
  -26    6   18     -4.09      0.00
  -22    0   18      0.45      0.00
  -23    1   18      0.62      0.00
  -24    2   18      1.29      0.00
  -25    3   18      0.39      0.00
  -26    4   18     -1.06      0.00
  -24    0   18      1.12      0.00
  -25    1   18      1.87      0.00
  -26    2   18     -2.06      0.00
  -27    3   18     -1.47      0.00
  -26    0   18     -3.06      0.00
  -27    1   18      0.90      0.00
  -27    5   18      3.86      0.00
   11    7   19     -0.29      0.00
   10    8   19     -0.07      0.00
    9    9   19     -2.81      0.00
    8   10   19      4.49      0.00
    7   11   19     -1.44      0.00
    6   12   19     -0.19      0.00
    5   13   19      0.79      0.00
    4   14   19     -1.40      0.00
   12    4   19      0.11      0.00
   11    5   19     -0.51      0.00
   10    6   19      0.16      0.00
    9    7   19      1.58      0.00
    8    8   19     -2.78      0.00
    7    9   19     -0.81      0.00
    6   10   19      3.74      0.00
    5   11   19     -0.76      0.00
    4   12   19     -0.77      0.00
    3   13   19     -0.72      0.00
    2   14   19      0.25      0.00
    1   15   19      0.56      0.00
   13    1   19     -1.44      0.00
   12    2   19     -1.38      0.00
   11    3   19      2.77      0.00
   10    4   19      0.22      0.00
    9    5   19     -0.17      0.00
    8    6   19     -3.47      0.00
    7    7   19      4.61      0.00
    6    8   19     -2.97      0.00
    5    9   19      1.56      0.00
    4   10   19     -0.73      0.00
    3   11   19     -0.75      0.00
    2   12   19      0.31      0.00
    1   13   19      1.01      0.00
    0   14   19      0.35      0.00
   -1   15   19     -0.98      0.00
   -2   16   19     -1.42      0.00
   11    1   19     -0.01      0.00
   10    2   19     -1.83      0.00
    9    3   19      1.89      0.00
    8    4   19     -2.77      0.00
    7    5   19      1.93      0.00
    6    6   19     -1.11      0.00
    5    7   19      4.32      0.00
    4    8   19     -5.42      0.00
    3    9   19      1.22      0.00
    2   10   19     -0.68      0.00
    1   11   19      2.27      0.00
    0   12   19     -1.29      0.00
   -1   13   19     -0.20      0.00
   -2   14   19     -0.08      0.00
   -3   15   19      1.53      0.00
   -4   16   19     -2.78      0.00
    9    1   19      0.87      0.00
    8    2   19     -4.52      0.00
    7    3   19      3.56      0.00
    6    4   19     -0.58      0.00
    5    5   19      1.60      0.00
    4    6   19     -2.56      0.00
    3    7   19     -0.26      0.00
    2    8   19     -1.44      0.00
    1    9   19      3.47      0.00
    0   10   19     -0.31      0.00
   -1   11   19      0.44      0.00
   -2   12   19     -3.23      0.00
   -3   13   19     -0.16      0.00
   -4   14   19      2.46      0.00
   -5   15   19      3.02      0.00
   -6   16   19     -5.62      0.00
    7    1   19      2.37      0.00
    6    2   19     -2.92      0.00
    5    3   19      2.33      0.00
    4    4   19     -1.11      0.00
    3    5   19     -2.85      0.00
    2    6   19      1.13      0.00
    1    7   19      0.53      0.00
    0    8   19      2.34      0.00
   -1    9   19     -0.93      0.00
   -2   10   19     -1.45      0.00
   -3   11   19     -0.05      0.00
   -4   12   19      1.29      0.00
   -5   13   19     -3.13      0.00
   -6   14   19      2.80      0.00
   -7   15   19      1.69      0.00
   -8   16   19     -4.53      0.00
    5    1   19      2.01      0.00
    4    2   19     -2.52      0.00
    3    3   19     -2.53      0.00
    2    4   19      2.57      0.00
    1    5   19     -0.15      0.00
    0    6   19      3.32      0.00
   -1    7   19     -2.84      0.00
   -2    8   19     -0.50      0.00
   -3    9   19     -2.90      0.00
   -4   10   19      2.43      0.00
   -5   11   19      1.07      0.00
   -6   12   19      2.49      0.00
   -7   13   19     -7.63      0.00
   -8   14   19      4.69      0.00
   -9   15   19      0.88      0.00
  -10   16   19     -2.62      0.00
    3    1   19      0.71      0.00
    2    2   19     -1.68      0.00
    1    3   19      0.14      0.00
    0    4   19      4.73      0.00
   -1    5   19     -0.82      0.00
   -2    6   19     -4.43      0.00
   -3    7   19     -1.77      0.00
   -4    8   19      2.91      0.00
   -5    9   19     -0.62      0.00
   -6   10   19      0.17      0.00
   -7   11   19      0.60      0.00
   -8   12   19      1.84      0.00
   -9   13   19     -4.97      0.00
  -10   14   19      4.01      0.00
  -11   15   19     -0.79      0.00
  -12   16   19     -1.06      0.00
    1    1   19      2.60      0.00
    0    2   19     -0.67      0.00
   -1    3   19     -2.12      0.00
   -2    4   19     -1.04      0.00
   -3    5   19      2.99      0.00
   -4    6   19     -3.06      0.00
   -5    7   19      0.46      0.00
   -6    8   19      2.68      0.00
   -7    9   19     -2.00      0.00
   -8   10   19     -2.31      0.00
   -9   11   19      1.95      0.00
  -10   12   19      0.62      0.00
  -11   13   19      0.17      0.00
  -12   14   19      0.89      0.00
  -13   15   19     -1.67      0.00
   -1    1   19     -0.06      0.00
   -2    2   19      0.82      0.00
   -3    3   19     -3.82      0.00
   -4    4   19      0.76      0.00
   -5    5   19      7.49      0.00
   -6    6   19     -1.57      0.00
   -7    7   19     -5.55      0.00
   -8    8   19      0.40      0.00
   -9    9   19     -0.50      0.00
  -10   10   19      0.88      0.00
  -11   11   19      0.81      0.00
  -12   12   19     -1.51      0.00
  -13   13   19      2.57      0.00
  -14   14   19     -0.19      0.00
  -15   15   19     -2.42      0.00
   -3    1   19     -4.58      0.00
   -4    2   19      6.81      0.00
   -5    3   19     -1.23      0.00
   -6    4   19     -0.58      0.00
   -7    5   19      1.95      0.00
   -8    6   19     -0.89      0.00
   -9    7   19     -3.42      0.00
  -10    8   19     -0.14      0.00
  -11    9   19      0.28      0.00
  -12   10   19      1.71      0.00
  -13   11   19     -0.87      0.00
  -14   12   19     -1.57      0.00
  -15   13   19      1.81      0.00
  -16   14   19      1.97      0.00
   -5    1   19     -4.53      0.00
   -6    2   19      4.13      0.00
   -7    3   19     -2.79      0.00
   -8    4   19     -0.62      0.00
   -9    5   19      3.48      0.00
  -10    6   19      0.91      0.00
  -11    7   19     -1.11      0.00
  -12    8   19     -3.53      0.00
  -13    9   19      1.25      0.00
  -14   10   19     -0.79      0.00
  -15   11   19      0.01      0.00
  -16   12   19      1.11      0.00
  -17   13   19      1.22      0.00
   -7    1   19     -2.24      0.00
   -8    2   19      0.27      0.00
   -9    3   19     -0.82      0.00
  -10    4   19      3.47      0.00
  -11    5   19      2.86      0.00
  -12    6   19     -1.13      0.00
  -13    7   19     -2.65      0.00
  -14    8   19     -3.23      0.00
  -15    9   19      4.39      0.00
  -16   10   19     -3.39      0.00
  -17   11   19      0.79      0.00
  -18   12   19      1.09      0.00
  -19   13   19      1.16      0.00
   -9    1   19      1.22      0.00
  -10    2   19      1.75      0.00
  -11    3   19     -2.03      0.00
  -12    4   19      0.29      0.00
  -13    5   19      0.32      0.00
  -14    6   19      2.37      0.00
  -15    7   19     -1.70      0.00
  -16    8   19     -2.79      0.00
  -17    9   19      4.57      0.00
  -18   10   19     -4.47      0.00
  -19   11   19      0.16      0.00
  -20   12   19     -0.52      0.00
  -11    1   19      0.99      0.00
  -12    2   19     -0.65      0.00
  -13    3   19     -1.70      0.00
  -14    4   19      0.89      0.00
  -15    5   19      3.29      0.00
  -16    6   19      1.43      0.00
  -17    7   19     -2.24      0.00
  -18    8   19     -2.42      0.00
  -19    9   19      3.55      0.00
  -20   10   19     -3.42      0.00
  -21   11   19      0.20      0.00
  -13    1   19     -0.46      0.00
  -14    2   19      0.49      0.00
  -15    3   19      2.72      0.00
  -16    4   19      0.19      0.00
  -17    5   19      1.69      0.00
  -18    6   19     -2.43      0.00
  -19    7   19     -1.42      0.00
  -20    8   19      1.69      0.00
  -21    9   19      2.13      0.00
  -22   10   19     -2.76      0.00
  -15    1   19     -1.27      0.00
  -16    2   19      2.02      0.00
  -17    3   19      0.15      0.00
  -18    4   19     -2.31      0.00
  -19    5   19      1.98      0.00
  -20    6   19      1.28      0.00
  -21    7   19     -3.75      0.00
  -22    8   19      2.65      0.00
  -23    9   19      1.92      0.00
  -17    1   19     -3.66      0.00
  -18    2   19     -0.71      0.00
  -19    3   19      1.71      0.00
  -20    4   19      0.47      0.00
  -21    5   19      1.70      0.00
  -22    6   19      2.08      0.00
  -23    7   19     -6.36      0.00
  -24    8   19      2.52      0.00
  -19    1   19     -1.56      0.00
  -20    2   19     -2.48      0.00
  -21    3   19      5.11      0.00
  -22    4   19     -1.80      0.00
  -23    5   19     -0.02      0.00
  -24    6   19      2.22      0.00
  -25    7   19     -3.84      0.00
  -21    1   19      1.45      0.00
  -22    2   19     -3.98      0.00
  -23    3   19      3.48      0.00
  -24    4   19     -4.43      0.00
  -25    5   19      2.80      0.00
  -23    1   19     -0.41      0.00
  -24    2   19     -1.91      0.00
  -25    3   19      4.34      0.00
  -26    4   19     -5.91      0.00
  -25    1   19     -2.28      0.00
  -26    2   19      0.25      0.00
   10    6   20      1.77      0.00
    9    7   20     -6.97      0.00
    8    8   20      5.29      0.00
    7    9   20     -1.83      0.00
    6   10   20      2.56      0.00
    5   11   20     -4.86      0.00
    4   12   20      5.28      0.00
    3   13   20     -2.07      0.00
   11    3   20     -0.78      0.00
   10    4   20      2.47      0.00
    9    5   20      0.11      0.00
    8    6   20      2.75      0.00
    7    7   20     -8.91      0.00
    6    8   20      4.83      0.00
    5    9   20      0.01      0.00
    4   10   20      5.01      0.00
    3   11   20     -8.84      0.00
    2   12   20      5.87      0.00
    1   13   20     -3.68      0.00
    0   14   20      1.38      0.00
   11    1   20     -0.64      0.00
   10    2   20      1.65      0.00
    9    3   20     -1.43      0.00
    8    4   20     -1.23      0.00
    7    5   20     -0.20      0.00
    6    6   20      7.11      0.00
    5    7   20     -6.83      0.00
    4    8   20     -0.95      0.00
    3    9   20      0.23      0.00
    2   10   20      6.48      0.00
    1   11   20     -7.08      0.00
    0   12   20      3.85      0.00
   -1   13   20     -3.63      0.00
   -2   14   20      3.73      0.00
   -3   15   20      0.87      0.00
   10    0   20      4.51      0.00
    9    1   20     -2.50      0.00
    8    2   20     -1.75      0.00
    7    3   20     -0.20      0.00
    6    4   20      2.35      0.00
    5    5   20     -0.82      0.00
    4    6   20      4.20      0.00
    3    7   20     -4.46      0.00
    2    8   20     -3.19      0.00
    1    9   20      0.70      0.00
    0   10   20      4.76      0.00
   -1   11   20      0.68      0.00
   -2   12   20     -1.45      0.00
   -3   13   20     -5.51      0.00
   -4   14   20      2.84      0.00
   -5   15   20      3.03      0.00
    8    0   20      1.46      0.00
    7    1   20     -1.13      0.00
    6    2   20      0.83      0.00
    5    3   20      0.96      0.00
    4    4   20      0.41      0.00
    3    5   20     -2.27      0.00
    2    6   20      1.41      0.00
    1    7   20      0.40      0.00
    0    8   20     -2.69      0.00
   -1    9   20      1.05      0.00
   -2   10   20     -0.77      0.00
   -3   11   20      5.07      0.00
   -4   12   20     -5.71      0.00
   -5   13   20     -1.29      0.00
   -6   14   20      2.71      0.00
   -7   15   20      3.30      0.00
    6    0   20      3.08      0.00
    5    1   20      3.91      0.00
    4    2   20     -1.46      0.00
    3    3   20     -4.88      0.00
    2    4   20     -0.01      0.00
    1    5   20      2.48      0.00
    0    6   20     -0.02      0.00
   -1    7   20      3.25      0.00
   -2    8   20     -3.30      0.00
   -3    9   20     -2.09      0.00
   -4   10   20     -4.29      0.00
   -5   11   20     10.03      0.00
   -6   12   20     -3.19      0.00
   -7   13   20     -0.38      0.00
   -8   14   20     -1.97      0.00
   -9   15   20      3.08      0.00
    4    0   20     -1.81      0.00
    3    1   20     -0.76      0.00
    2    2   20      0.13      0.00
    1    3   20     -4.00      0.00
    0    4   20      3.37      0.00
   -1    5   20      3.31      0.00
   -2    6   20     -3.23      0.00
   -3    7   20      2.52      0.00
   -4    8   20     -3.22      0.00
   -5    9   20     -1.00      0.00
   -6   10   20     -0.94      0.00
   -7   11   20      7.74      0.00
   -8   12   20     -5.67      0.00
   -9   13   20     -1.70      0.00
  -10   14   20     -0.08      0.00
  -11   15   20      4.84      0.00
    2    0   20     -3.22      0.00
    1    1   20      2.55      0.00
    0    2   20      4.90      0.00
   -1    3   20     -4.58      0.00
   -2    4   20      2.09      0.00
   -3    5   20      0.91      0.00
   -4    6   20     -6.00      0.00
   -5    7   20      5.47      0.00
   -6    8   20      1.51      0.00
   -7    9   20     -0.92      0.00
   -8   10   20     -6.37      0.00
   -9   11   20      3.34      0.00
  -10   12   20     -1.23      0.00
  -11   13   20      2.42      0.00
  -12   14   20     -1.56      0.00
    0    0   20     -0.98      0.00
   -1    1   20      5.11      0.00
   -2    2   20      0.75      0.00
   -3    3   20     -6.28      0.00
   -4    4   20     -1.56      0.00
   -5    5   20      5.14      0.00
   -6    6   20     -1.69      0.00
   -7    7   20      4.96      0.00
   -8    8   20     -3.61      0.00
   -9    9   20     -1.96      0.00
  -10   10   20     -3.46      0.00
  -11   11   20      6.18      0.00
  -12   12   20     -1.90      0.00
  -13   13   20      0.85      0.00
  -14   14   20     -3.67      0.00
   -2    0   20     -5.56      0.00
   -3    1   20      1.30      0.00
   -4    2   20     -2.50      0.00
   -5    3   20      0.16      0.00
   -6    4   20      0.56      0.00
   -7    5   20      5.49      0.00
   -8    6   20     -3.54      0.00
   -9    7   20     -0.48      0.00
  -10    8   20     -0.54      0.00
  -11    9   20      2.96      0.00
  -12   10   20     -1.52      0.00
  -13   11   20     -0.94      0.00
  -14   12   20     -2.98      0.00
  -15   13   20      3.56      0.00
   -4    0   20     -4.26      0.00
   -5    1   20      2.67      0.00
   -6    2   20      1.87      0.00
   -7    3   20      1.36      0.00
   -8    4   20     -4.24      0.00
   -9    5   20      0.75      0.00
  -10    6   20      1.56      0.00
  -11    7   20      2.17      0.00
  -12    8   20      0.38      0.00
  -13    9   20     -2.04      0.00
  -14   10   20     -1.25      0.00
  -15   11   20     -2.04      0.00
  -16   12   20      2.49      0.00
  -17   13   20      1.29      0.00
   -6    0   20      3.87      0.00
   -7    1   20      0.86      0.00
   -8    2   20     -3.24      0.00
   -9    3   20     -1.76      0.00
  -10    4   20     -1.86      0.00
  -11    5   20      5.11      0.00
  -12    6   20      1.83      0.00
  -13    7   20     -0.81      0.00
  -14    8   20     -2.85      0.00
  -15    9   20      1.20      0.00
  -16   10   20      2.17      0.00
  -17   11   20     -3.80      0.00
  -18   12   20      2.08      0.00
   -8    0   20     -1.72      0.00
   -9    1   20     -2.13      0.00
  -10    2   20      0.02      0.00
  -11    3   20      3.34      0.00
  -12    4   20     -2.24      0.00
  -13    5   20      1.60      0.00
  -14    6   20     -0.75      0.00
  -15    7   20      2.45      0.00
  -16    8   20     -1.52      0.00
  -17    9   20      2.15      0.00
  -18   10   20     -1.00      0.00
  -19   11   20     -3.98      0.00
  -10    0   20      2.02      0.00
  -11    1   20      2.45      0.00
  -12    2   20     -0.83      0.00
  -13    3   20     -2.37      0.00
  -14    4   20     -0.82      0.00
  -15    5   20      2.71      0.00
  -16    6   20      0.71      0.00
  -17    7   20     -0.24      0.00
  -18    8   20     -0.95      0.00
  -19    9   20      1.40      0.00
  -20   10   20     -0.71      0.00
  -12    0   20      1.82      0.00
  -13    1   20     -2.63      0.00
  -14    2   20     -1.95      0.00
  -15    3   20     -2.35      0.00
  -16    4   20      3.03      0.00
  -17    5   20      1.61      0.00
  -18    6   20     -0.16      0.00
  -19    7   20     -2.72      0.00
  -20    8   20      2.50      0.00
  -21    9   20      1.95      0.00
  -14    0   20     -0.81      0.00
  -15    1   20      1.81      0.00
  -16    2   20      1.07      0.00
  -17    3   20     -4.07      0.00
  -18    4   20     -0.23      0.00
  -19    5   20      4.21      0.00
  -20    6   20      1.67      0.00
  -21    7   20     -3.87      0.00
  -22    8   20      0.21      0.00
  -16    0   20      1.32      0.00
  -17    1   20      0.85      0.00
  -18    2   20     -0.13      0.00
  -19    3   20     -2.27      0.00
  -20    4   20     -1.34      0.00
  -21    5   20      2.72      0.00
  -22    6   20      1.38      0.00
  -23    7   20     -2.98      0.00
  -18    0   20      0.60      0.00
  -19    1   20     -0.61      0.00
  -20    2   20      0.79      0.00
  -21    3   20     -2.29      0.00
  -22    4   20     -2.05      0.00
  -23    5   20      0.34      0.00
  -24    6   20      3.55      0.00
  -20    0   20      0.89      0.00
  -21    1   20     -1.54      0.00
  -22    2   20      1.02      0.00
  -23    3   20      0.56      0.00
  -24    4   20     -0.86      0.00
  -22    0   20      0.74      0.00
  -23    1   20      0.44      0.00
  -24    2   20      1.07      0.00
  -25    3   20      2.26      0.00
  -24    0   20      2.56      0.00
  -25    1   20     -2.26      0.00
  -25    5   20     -1.24      0.00
    8    6   21      3.76      0.00
    7    7   21      0.10      0.00
    6    8   21     -2.23      0.00
    5    9   21      1.80      0.00
    4   10   21     -2.58      0.00
    3   11   21      0.13      0.00
    9    3   21     -0.80      0.00
    8    4   21     -1.82      0.00
    7    5   21     -0.91      0.00
    6    6   21      4.65      0.00
    5    7   21      2.26      0.00
    4    8   21     -6.66      0.00
    3    9   21     -1.82      0.00
    2   10   21      4.96      0.00
    1   11   21     -0.66      0.00
    0   12   21      0.24      0.00
   -1   13   21     -2.49      0.00
    9    1   21     -3.86      0.00
    8    2   21      2.14      0.00
    7    3   21      0.58      0.00
    6    4   21      2.62      0.00
    5    5   21     -3.93      0.00
    4    6   21     -2.53      0.00
    3    7   21      5.38      0.00
    2    8   21     -1.93      0.00
    1    9   21     -1.54      0.00
    0   10   21      4.54      0.00
   -1   11   21     -4.17      0.00
   -2   12   21      0.96      0.00
   -3   13   21     -1.23      0.00
    7    1   21     -0.91      0.00
    6    2   21      2.92      0.00
    5    3   21     -3.71      0.00
    4    4   21      2.15      0.00
    3    5   21     -4.20      0.00
    2    6   21     -0.15      0.00
    1    7   21      8.88      0.00
    0    8   21     -1.82      0.00
   -1    9   21     -4.67      0.00
   -2   10   21      0.17      0.00
   -3   11   21     -0.43      0.00
   -4   12   21      3.18      0.00
   -5   13   21     -2.49      0.00
   -6   14   21     -0.56      0.00
    5    1   21     -1.34      0.00
    4    2   21      3.14      0.00
    3    3   21     -5.66      0.00
    2    4   21      6.62      0.00
    1    5   21     -0.95      0.00
    0    6   21     -0.55      0.00
   -1    7   21      1.76      0.00
   -2    8   21     -3.61      0.00
   -3    9   21      0.41      0.00
   -4   10   21      0.46      0.00
   -5   11   21      0.59      0.00
   -6   12   21      0.35      0.00
   -7   13   21     -2.84      0.00
   -8   14   21      0.12      0.00
    3    1   21     -2.63      0.00
    2    2   21      5.47      0.00
    1    3   21     -0.25      0.00
    0    4   21      4.36      0.00
   -1    5   21     -7.36      0.00
   -2    6   21     -2.59      0.00
   -3    7   21      3.57      0.00
   -4    8   21      2.31      0.00
   -5    9   21      1.11      0.00
   -6   10   21     -2.51      0.00
   -7   11   21     -1.32      0.00
   -8   12   21      2.05      0.00
   -9   13   21     -1.26      0.00
  -10   14   21     -1.70      0.00
    1    1   21     -0.82      0.00
    0    2   21      1.55      0.00
   -1    3   21     -2.23      0.00
   -2    4   21      1.70      0.00
   -3    5   21     -3.48      0.00
   -4    6   21      2.86      0.00
   -5    7   21      1.74      0.00
   -6    8   21      2.04      0.00
   -7    9   21     -2.76      0.00
   -8   10   21      0.66      0.00
   -9   11   21     -2.95      0.00
  -10   12   21      3.52      0.00
  -11   13   21     -1.20      0.00
   -1    1   21     -1.19      0.00
   -2    2   21     -1.01      0.00
   -3    3   21      0.13      0.00
   -4    4   21      5.75      0.00
   -5    5   21     -1.36      0.00
   -6    6   21      0.29      0.00
   -7    7   21     -4.19      0.00
   -8    8   21      3.87      0.00
   -9    9   21     -1.55      0.00
  -10   10   21      4.64      0.00
  -11   11   21     -6.74      0.00
  -12   12   21      2.20      0.00
  -13   13   21      0.54      0.00
   -3    1   21      0.07      0.00
   -4    2   21      2.08      0.00
   -5    3   21      0.99      0.00
   -6    4   21     -1.14      0.00
   -7    5   21     -2.81      0.00
   -8    6   21      1.66      0.00
   -9    7   21     -0.52      0.00
  -10    8   21      3.32      0.00
  -11    9   21     -2.59      0.00
  -12   10   21      5.11      0.00
  -13   11   21     -6.07      0.00
  -14   12   21      0.56      0.00
   -5    1   21      0.76      0.00
   -6    2   21     -1.74      0.00
   -7    3   21      0.37      0.00
   -8    4   21     -2.69      0.00
   -9    5   21      2.71      0.00
  -10    6   21      1.14      0.00
  -11    7   21     -0.58      0.00
  -12    8   21      1.74      0.00
  -13    9   21     -2.65      0.00
  -14   10   21      4.84      0.00
  -15   11   21     -3.83      0.00
  -16   12   21      0.86      0.00
   -7    1   21      0.36      0.00
   -8    2   21     -0.70      0.00
   -9    3   21      3.00      0.00
  -10    4   21     -1.84      0.00
  -11    5   21      0.45      0.00
  -12    6   21     -1.57      0.00
  -13    7   21     -1.13      0.00
  -14    8   21      5.36      0.00
  -15    9   21     -2.04      0.00
  -16   10   21      2.55      0.00
  -17   11   21     -4.72      0.00
   -9    1   21      0.38      0.00
  -10    2   21      2.14      0.00
  -11    3   21     -2.06      0.00
  -12    4   21     -2.80      0.00
  -13    5   21      0.77      0.00
  -14    6   21      1.81      0.00
  -15    7   21     -2.18      0.00
  -16    8   21      3.58      0.00
  -17    9   21     -0.05      0.00
  -18   10   21      1.04      0.00
  -11    1   21     -1.96      0.00
  -12    2   21      1.31      0.00
  -13    3   21     -2.11      0.00
  -14    4   21      1.42      0.00
  -15    5   21      1.62      0.00
  -16    6   21     -0.66      0.00
  -17    7   21     -3.35      0.00
  -18    8   21      0.81      0.00
  -19    9   21      4.58      0.00
  -13    1   21     -1.32      0.00
  -14    2   21      3.03      0.00
  -15    3   21     -0.72      0.00
  -16    4   21     -0.45      0.00
  -17    5   21     -2.53      0.00
  -18    6   21      0.51      0.00
  -19    7   21     -0.22      0.00
  -20    8   21     -0.26      0.00
  -15    1   21     -0.74      0.00
  -16    2   21      1.20      0.00
  -17    3   21     -3.39      0.00
  -18    4   21      1.01      0.00
  -19    5   21     -2.08      0.00
  -20    6   21      4.03      0.00
  -21    7   21     -2.27      0.00
  -17    1   21     -2.28      0.00
  -18    2   21     -0.10      0.00
  -19    3   21      0.62      0.00
  -20    4   21      4.66      0.00
  -21    5   21     -4.89      0.00
  -22    6   21      1.11      0.00
  -19    1   21     -0.58      0.00
  -20    2   21     -0.11      0.00
  -21    3   21      0.87      0.00
  -22    4   21      2.39      0.00
  -23    5   21     -4.46      0.00
  -21    1   21     -0.87      0.00
  -22    2   21     -1.50      0.00
  -23    3   21     -0.83      0.00
  -24    4   21      3.71      0.00
  -23    1   21     -2.84      0.00
  -24    2   21      0.37      0.00
    5    7   22      3.77      0.00
    4    8   22     -4.34      0.00
    7    3   22      5.17      0.00
    6    4   22      1.47      0.00
    5    5   22     -0.51      0.00
    4    6   22     -2.60      0.00
    3    7   22      0.82      0.00
    2    8   22      0.75      0.00
    1    9   22     -1.93      0.00
    0   10   22      3.40      0.00
   -1   11   22      1.41      0.00
    7    1   22     -1.01      0.00
    6    2   22     -2.00      0.00
    5    3   22      3.72      0.00
    4    4   22     -3.03      0.00
    3    5   22      2.51      0.00
    2    6   22     -1.02      0.00
    1    7   22     -2.95      0.00
    0    8   22      4.87      0.00
   -1    9   22     -3.61      0.00
   -2   10   22      2.49      0.00
   -3   11   22      0.27      0.00
   -4   12   22     -1.93      0.00
    6    0   22      5.50      0.00
    5    1   22      0.38      0.00
    4    2   22     -6.07      0.00
    3    3   22      2.68      0.00
    2    4   22     -4.22      0.00
    1    5   22      5.95      0.00
    0    6   22      1.34      0.00
   -1    7   22     -5.70      0.00
   -2    8   22      5.02      0.00
   -3    9   22     -3.01      0.00
   -4   10   22      1.59      0.00
   -5   11   22      0.64      0.00
   -6   12   22      3.71      0.00
    4    0   22     -0.45      0.00
    3    1   22     -1.84      0.00
    2    2   22     -3.59      0.00
    1    3   22      5.75      0.00
    0    4   22     -3.85      0.00
   -1    5   22      4.24      0.00
   -2    6   22      2.31      0.00
   -3    7   22     -6.51      0.00
   -4    8   22      2.81      0.00
   -5    9   22      1.85      0.00
   -6   10   22      0.75      0.00
   -7   11   22     -3.58      0.00
   -8   12   22      5.21      0.00
    2    0   22      1.72      0.00
    1    1   22      1.90      0.00
    0    2   22     -2.06      0.00
   -1    3   22      3.95      0.00
   -2    4   22     -4.70      0.00
   -3    5   22      1.37      0.00
   -4    6   22      1.89      0.00
   -5    7   22     -2.19      0.00
   -6    8   22      1.06      0.00
   -7    9   22      2.28      0.00
   -8   10   22     -1.95      0.00
   -9   11   22     -3.56      0.00
  -10   12   22      7.83      0.00
    0    0   22      0.80      0.00
   -1    1   22      2.08      0.00
   -2    2   22     -4.31      0.00
   -3    3   22      2.01      0.00
   -4    4   22     -5.04      0.00
   -5    5   22      2.74      0.00
   -6    6   22      3.33      0.00
   -7    7   22     -0.80      0.00
   -8    8   22     -3.61      0.00
   -9    9   22      2.05      0.00
  -10   10   22      3.24      0.00
  -11   11   22     -0.42      0.00
  -12   12   22      0.62      0.00
   -2    0   22     -4.71      0.00
   -3    1   22     -0.02      0.00
   -4    2   22     -2.88      0.00
   -5    3   22      5.31      0.00
   -6    4   22     -0.94      0.00
   -7    5   22     -1.54      0.00
   -8    6   22     -0.35      0.00
   -9    7   22      0.20      0.00
  -10    8   22      1.65      0.00
  -11    9   22      0.49      0.00
  -12   10   22      0.58      0.00
  -13   11   22      1.24      0.00
   -4    0   22     -2.47      0.00
   -5    1   22      2.16      0.00
   -6    2   22     -0.29      0.00
   -7    3   22      1.48      0.00
   -8    4   22      0.17      0.00
   -9    5   22     -3.87      0.00
  -10    6   22      0.96      0.00
  -11    7   22      0.51      0.00
  -12    8   22      2.82      0.00
  -13    9   22     -3.26      0.00
  -14   10   22     -2.09      0.00
  -15   11   22      8.02      0.00
   -6    0   22      0.46      0.00
   -7    1   22      0.96      0.00
   -8    2   22     -4.56      0.00
   -9    3   22     -1.05      0.00
  -10    4   22      4.89      0.00
  -11    5   22      0.38      0.00
  -12    6   22     -2.96      0.00
  -13    7   22     -4.83      0.00
  -14    8   22      4.38      0.00
  -15    9   22      2.69      0.00
  -16   10   22     -3.18      0.00
   -8    0   22     -6.01      0.00
   -9    1   22      4.10      0.00
  -10    2   22     -0.97      0.00
  -11    3   22      0.23      0.00
  -12    4   22     -0.91      0.00
  -13    5   22      1.61      0.00
  -14    6   22     -0.69      0.00
  -15    7   22     -4.35      0.00
  -16    8   22      2.79      0.00
  -17    9   22      2.44      0.00
  -10    0   22     -2.43      0.00
  -11    1   22      4.72      0.00
  -12    2   22     -4.15      0.00
  -13    3   22     -0.62      0.00
  -14    4   22     -1.98      0.00
  -15    5   22      4.58      0.00
  -16    6   22      1.43      0.00
  -17    7   22     -6.02      0.00
  -18    8   22     -0.66      0.00
  -12    0   22     -2.56      0.00
  -13    1   22     -1.38      0.00
  -14    2   22     -1.77      0.00
  -15    3   22      4.95      0.00
  -16    4   22     -3.13      0.00
  -17    5   22      0.59      0.00
  -18    6   22      0.59      0.00
  -19    7   22     -1.26      0.00
  -14    0   22      4.74      0.00
  -15    1   22      1.14      0.00
  -16    2   22     -3.07      0.00
  -17    3   22      2.45      0.00
  -18    4   22     -2.90      0.00
  -19    5   22      1.77      0.00
  -20    6   22      0.10      0.00
  -16    0   22      7.13      0.00
  -17    1   22     -2.80      0.00
  -18    2   22     -5.43      0.00
  -19    3   22      2.65      0.00
  -20    4   22      1.73      0.00
  -21    5   22     -0.64      0.00
  -18    0   22      4.49      0.00
  -19    1   22      0.30      0.00
  -20    2   22     -2.57      0.00
  -21    3   22     -1.38      0.00
  -22    4   22      2.79      0.00
  -20    0   22      3.37      0.00
  -21    1   22      1.77      0.00
  -22    2   22     -1.40      0.00
  -22    0   22      0.66      0.00
  -23    1   22      1.07      0.00
    4    4   23     -2.87      0.00
    3    5   23      3.59      0.00
    2    6   23      0.21      0.00
    1    7   23      2.52      0.00
    0    8   23      2.00      0.00
    4    2   23     -3.89      0.00
    3    3   23      0.87      0.00
    2    4   23     -0.32      0.00
    1    5   23      3.74      0.00
    0    6   23     -2.79      0.00
   -1    7   23     -3.16      0.00
   -2    8   23      2.57      0.00
   -3    9   23     -1.76      0.00
   -4   10   23     -0.18      0.00
    3    1   23      4.66      0.00
    2    2   23     -2.15      0.00
    1    3   23      2.50      0.00
    0    4   23     -4.83      0.00
   -1    5   23     -1.69      0.00
   -2    6   23     -0.65      0.00
   -3    7   23      1.75      0.00
   -4    8   23      3.07      0.00
   -5    9   23     -0.90      0.00
   -6   10   23     -3.17      0.00
    1    1   23      3.35      0.00
    0    2   23     -3.90      0.00
   -1    3   23     -0.82      0.00
   -2    4   23     -2.21      0.00
   -3    5   23      1.75      0.00
   -4    6   23      3.25      0.00
   -5    7   23     -1.02      0.00
   -6    8   23     -1.07      0.00
   -7    9   23     -1.28      0.00
   -8   10   23     -0.58      0.00
   -1    1   23     -1.32      0.00
   -2    2   23      0.37      0.00
   -3    3   23      2.16      0.00
   -4    4   23      1.05      0.00
   -5    5   23     -2.87      0.00
   -6    6   23      0.84      0.00
   -7    7   23     -3.14      0.00
   -8    8   23      1.22      0.00
   -9    9   23     -0.56      0.00
  -10   10   23     -0.83      0.00
   -3    1   23     -2.93      0.00
   -4    2   23      2.34      0.00
   -5    3   23      1.16      0.00
   -6    4   23     -3.97      0.00
   -7    5   23     -3.18      0.00
   -8    6   23      4.21      0.00
   -9    7   23     -1.90      0.00
  -10    8   23      0.35      0.00
  -11    9   23     -0.12      0.00
  -12   10   23     -2.66      0.00
   -5    1   23     -2.75      0.00
   -6    2   23     -3.91      0.00
   -7    3   23      3.82      0.00
   -8    4   23     -2.36      0.00
   -9    5   23      1.65      0.00
  -10    6   23      2.61      0.00
  -11    7   23     -4.90      0.00
  -12    8   23     -0.93      0.00
  -13    9   23      4.26      0.00
   -7    1   23      0.97      0.00
   -8    2   23     -3.77      0.00
   -9    3   23      5.59      0.00
  -10    4   23     -4.61      0.00
  -11    5   23      0.61      0.00
  -12    6   23      2.95      0.00
  -13    7   23     -4.45      0.00
  -14    8   23     -1.80      0.00
  -15    9   23      6.16      0.00
   -9    1   23      3.43      0.00
  -10    2   23     -3.38      0.00
  -11    3   23      1.14      0.00
  -12    4   23     -5.33      0.00
  -13    5   23      3.38      0.00
  -14    6   23      5.22      0.00
  -15    7   23     -4.52      0.00
  -16    8   23     -5.52      0.00
   -1    9   23     -8.95      0.00
  -11    1   23      2.68      0.00
  -12    2   23     -3.18      0.00
  -13    3   23      3.66      0.00
  -14    4   23     -2.91      0.00
  -15    5   23      2.39      0.00
  -16    6   23      0.21      0.00
  -17    7   23     -1.93      0.00
  -13    1   23      4.95      0.00
  -14    2   23     -2.56      0.00
  -15    3   23      2.70      0.00
  -16    4   23     -4.94      0.00
  -17    5   23      2.06      0.00
  -18    6   23     -0.08      0.00
  -15    1   23      5.07      0.00
  -16    2   23     -4.04      0.00
  -17    3   23     -0.45      0.00
  -18    4   23     -0.77      0.00
  -19    5   23      5.69      0.00
  -17    1   23      2.81      0.00
  -18    2   23      0.28      0.00
  -19    3   23      0.25      0.00
  -20    4   23     -0.23      0.00
  -19    1   23      1.05      0.00
  -20    2   23      3.40      0.00
  -21    1   23     -2.87      0.00
    0    4   24      5.40      0.00
   -1    5   24     -3.55      0.00
   -2    6   24     -1.90      0.00
   -3    7   24      3.38      0.00
    1    1   24      4.66      0.00
    0    2   24     -1.46      0.00
   -1    3   24     -3.80      0.00
   -2    4   24      5.48      0.00
   -3    5   24     -2.62      0.00
   -4    6   24     -7.06      0.00
   -5    7   24      8.73      0.00
   -6    8   24     -2.17      0.00
    0    0   24     -1.15      0.00
   -1    1   24      3.11      0.00
   -2    2   24     -1.62      0.00
   -3    3   24     -5.70      0.00
   -4    4   24      4.25      0.00
   -5    5   24      3.21      0.00
   -6    6   24     -8.74      0.00
   -7    7   24      7.93      0.00
   -8    8   24     -1.89      0.00
    1    3   24     -0.89      0.00
   -2    0   24     -2.27      0.00
   -3    1   24      1.23      0.00
   -4    2   24      2.51      0.00
   -5    3   24     -3.83      0.00
   -6    4   24      3.23      0.00
   -7    5   24      2.76      0.00
   -8    6   24     -8.12      0.00
   -9    7   24      5.28      0.00
  -10    8   24      0.69      0.00
   -4    0   24      1.23      0.00
   -5    1   24      0.98      0.00
   -6    2   24      4.76      0.00
   -7    3   24     -5.42      0.00
   -8    4   24      1.03      0.00
   -9    5   24      1.69      0.00
  -10    6   24     -3.15      0.00
  -11    7   24      2.64      0.00
  -12    8   24     -1.56      0.00
   -6    0   24      1.28      0.00
   -7    1   24     -1.94      0.00
   -8    2   24      3.37      0.00
   -9    3   24     -2.67      0.00
  -10    4   24      1.91      0.00
  -11    5   24      0.63      0.00
  -12    6   24     -3.60      0.00
  -13    7   24      3.10      0.00
   -8    0   24     -0.75      0.00
   -9    1   24      0.09      0.00
  -10    2   24      3.91      0.00
  -11    3   24     -2.35      0.00
  -12    4   24      0.34      0.00
  -13    5   24      0.80      0.00
  -14    6   24     -1.91      0.00
  -10    0   24      2.10      0.00
  -11    1   24     -2.27      0.00
  -12    2   24     -0.13      0.00
  -13    3   24     -2.82      0.00
  -14    4   24      6.11      0.00
  -15    5   24      0.88      0.00
  -12    0   24     -0.76      0.00
  -13    1   24      0.31      0.00
  -14    2   24      2.08      0.00
  -15    3   24     -4.18      0.00
  -16    4   24      5.54      0.00
  -17    5   24     -0.33      0.00
  -14    0   24     -0.35      0.00
  -15    1   24      6.18      0.00
  -16    2   24     -3.17      0.00
  -17    3   24     -7.49      0.00
  -16    0   24     -8.02      0.00
  -17    1   24      4.57      0.00
  -18    2   24     -3.22      0.00
  -18    0   24     -6.22      0.00
   -4    2   25     -1.11      0.00
   -5    3   25     -2.21      0.00
   -6    4   25      2.80      0.00
   -5    1   25     -0.24      0.00
   -6    2   25      0.73      0.00
   -7    3   25     -1.21      0.00
   -8    4   25      4.78      0.00
   -9    5   25      0.95      0.00
   -7    1   25     -1.97      0.00
   -8    2   25      5.22      0.00
   -9    3   25     -2.96      0.00
  -10    4   25      2.42      0.00
   -9    1   25     -3.38      0.00
  -10    2   25      4.30      0.00
  -11    3   25     -4.76      0.00
  -12    4   25      2.43      0.00
  -11    1   25     -2.83      0.00
  -12    2   25      3.24      0.00
  -13    3   25     -1.39      0.00
  -13    1   25      0.28      0.00
  -14    2   25      2.44      0.00
    1    1    0   -202.72      0.00
   31    1    0      0.29      0.00
   31    3    0      3.52      0.00
   30    4    0      4.44      0.00
   31    5    0     -4.50      0.00
   30    6    0      1.59      0.00
   29    7    0      3.10      0.00
   31    7    0      1.68      0.00
   30    8    0      1.44      0.00
   29    9    0     -0.12      0.00
   28   10    0     -1.47      0.00
   29   11    0      1.34      0.00
   28   12    0     -0.03      0.00
   27   13    0     -1.46      0.00
   26   14    0      1.47      0.00
   25   15    0     -0.42      0.00
   24   16    0     -0.38      0.00
   23   17    0      0.73      0.00
   22   18    0     -5.92      0.00
   21   19    0      1.60      0.00
   20   20    0      5.00      0.00
   17   21    0     -2.03      0.00
   19   21    0     -1.21      0.00
   16   22    0      0.86      0.00
   18   22    0     -0.53      0.00
   13   23    0      3.34      0.00
   15   23    0      3.45      0.00
   10   24    0     -1.93      0.00
   12   24    0     -4.52      0.00
   14   24    0     -2.21      0.00
    5   25    0     -2.49      0.00
    7   25    0     -3.65      0.00
    9   25    0     -0.71      0.00
   11   25    0     -0.12      0.00
  -31    1    1     -1.92      0.00
   -1    1    1     73.80      0.00
    1    1    1     25.01      0.00
    3    1    1    -27.65      0.00
   31    1    1      1.47      0.00
    2    2    1     70.83      0.00
   30    2    1     -2.32      0.00
  -31    3    1      0.48      0.00
   31    3    1     -1.54      0.00
   30    4    1      1.36      0.00
  -31    5    1      3.02      0.00
   31    5    1     -1.19      0.00
  -30    6    1     -1.99      0.00
   30    6    1     -0.03      0.00
  -31    7    1      0.01      0.00
   29    7    1     -0.38      0.00
  -30    8    1      3.72      0.00
   30    8    1      2.60      0.00
  -29    9    1     -3.08      0.00
   29    9    1     -1.64      0.00
  -30   10    1      2.00      0.00
   28   10    1     -0.83      0.00
  -29   11    1      0.28      0.00
   27   11    1     -2.06      0.00
  -28   12    1     -1.58      0.00
   28   12    1      3.10      0.00
  -27   13    1     -1.85      0.00
   27   13    1     -3.24      0.00
  -26   14    1      4.49      0.00
   26   14    1      0.31      0.00
  -25   15    1     -0.57      0.00
   25   15    1     -1.55      0.00
  -26   16    1      0.35      0.00
  -24   16    1     -0.37      0.00
   24   16    1      4.63      0.00
  -25   17    1     -1.12      0.00
  -23   17    1     -2.03      0.00
   23   17    1     -0.56      0.00
  -24   18    1      1.12      0.00
  -22   18    1      2.19      0.00
   22   18    1     -4.70      0.00
  -21   19    1     -1.02      0.00
   21   19    1      1.71      0.00
  -20   20    1     -1.51      0.00
   20   20    1     -0.50      0.00
  -19   21    1     -0.94      0.00
   17   21    1     -1.77      0.00
   19   21    1     -1.93      0.00
  -18   22    1      2.67      0.00
  -16   22    1      3.66      0.00
   16   22    1      1.25      0.00
  -15   23    1     -2.44      0.00
  -13   23    1     -5.23      0.00
   13   23    1     -0.02      0.00
   15   23    1     -0.04      0.00
  -14   24    1      2.00      0.00
  -12   24    1      6.31      0.00
  -10   24    1      6.40      0.00
   10   24    1      2.09      0.00
   12   24    1      0.19      0.00
  -11   25    1     -3.66      0.00
   -9   25    1     -4.59      0.00
   -7   25    1     -1.77      0.00
   -5   25    1      0.36      0.00
    3   25    1      0.48      0.00
    5   25    1     -0.82      0.00
    7   25    1     -1.23      0.00
    9   25    1      0.22      0.00
   30    0    2      1.13      0.00
  -31    1    2     -2.44      0.00
   -7    1    2    -39.40      0.00
   -5    1    2     64.24      0.00
   31    1    2      0.84      0.00
   -6    2    2    -70.43      0.00
   -4    2    2    -35.14      0.00
   30    2    2      3.68      0.00
  -31    3    2      0.58      0.00
   31    3    2      2.93      0.00
   30    4    2     -1.29      0.00
  -31    5    2     -1.52      0.00
   29    5    2      1.32      0.00
  -30    6    2      0.25      0.00
   30    6    2     -1.09      0.00
  -31    7    2     -1.98      0.00
   29    7    2     -1.53      0.00
  -30    8    2      3.15      0.00
   28    8    2      3.38      0.00
  -29    9    2      1.47      0.00
   29    9    2      0.79      0.00
  -30   10    2     -3.10      0.00
   28   10    2     -3.85      0.00
  -29   11    2      3.23      0.00
   27   11    2     -1.51      0.00
  -28   12    2     -3.05      0.00
   26   12    2      2.85      0.00
  -27   13    2      3.09      0.00
   25   13    2     -0.48      0.00
   27   13    2     -0.72      0.00
  -28   14    2     -0.76      0.00
  -26   14    2     -2.30      0.00
   26   14    2      1.10      0.00
  -27   15    2      0.67      0.00
  -25   15    2      1.40      0.00
   25   15    2     -0.89      0.00
  -26   16    2      3.42      0.00
  -24   16    2      4.01      0.00
   24   16    2      2.59      0.00
  -25   17    2     -3.37      0.00
  -23   17    2     -2.23      0.00
   23   17    2     -0.80      0.00
  -24   18    2     -0.64      0.00
  -22   18    2     -3.20      0.00
   22   18    2      0.17      0.00
  -23   19    2      4.19      0.00
  -21   19    2      2.77      0.00
   21   19    2     -1.55      0.00
  -20   20    2      0.45      0.00
   18   20    2      4.16      0.00
   20   20    2      4.52      0.00
  -19   21    2      0.84      0.00
  -17   21    2     -3.43      0.00
   17   21    2     -3.79      0.00
   19   21    2     -2.39      0.00
  -18   22    2     -0.25      0.00
  -16   22    2      1.52      0.00
   16   22    2      3.51      0.00
  -15   23    2     -2.44      0.00
   13   23    2     -1.53      0.00
   15   23    2     -0.32      0.00
  -14   24    2      2.88      0.00
  -12   24    2      1.95      0.00
  -10   24    2      4.26      0.00
   10   24    2     -0.86      0.00
   12   24    2     -1.78      0.00
  -11   25    2     -1.23      0.00
   -9   25    2      0.65      0.00
   -7   25    2     -1.53      0.00
   -5   25    2      2.34      0.00
    3   25    2      0.67      0.00
    5   25    2      4.18      0.00
    7   25    2      1.71      0.00
    9   25    2     -1.42      0.00
   29    1    3      1.35      0.00
   30    2    3      1.26      0.00
  -31    3    3      3.02      0.00
   29    3    3     -0.74      0.00
   30    4    3     -0.04      0.00
  -31    5    3     -1.95      0.00
   29    5    3      4.74      0.00
   28    6    3     -6.47      0.00
   30    6    3     -2.41      0.00
  -31    7    3     -1.20      0.00
   29    7    3      2.09      0.00
  -30    8    3     -2.69      0.00
   28    8    3     -1.65      0.00
  -31    9    3      2.93      0.00
   27    9    3     -1.30      0.00
  -30   10    3      1.56      0.00
   28   10    3      0.74      0.00
  -29   11    3      0.67      0.00
   27   11    3      0.20      0.00
  -28   12    3     -4.70      0.00
   26   12    3     -1.86      0.00
  -27   13    3     -0.66      0.00
   25   13    3     -0.16      0.00
  -28   14    3      2.70      0.00
  -26   14    3      2.77      0.00
   24   14    3      0.31      0.00
   26   14    3      1.29      0.00
  -27   15    3     -1.58      0.00
  -25   15    3      1.46      0.00
   25   15    3     -0.93      0.00
  -26   16    3     -2.19      0.00
  -24   16    3     -5.27      0.00
   24   16    3      0.03      0.00
  -25   17    3      2.25      0.00
  -23   17    3      2.36      0.00
   23   17    3      2.17      0.00
  -24   18    3      0.93      0.00
  -22   18    3      3.48      0.00
   22   18    3     -3.45      0.00
  -23   19    3     -1.31      0.00
  -21   19    3     -3.14      0.00
   19   19    3      2.79      0.00
   21   19    3      3.69      0.00
  -22   20    3      1.18      0.00
  -20   20    3      0.67      0.00
   18   20    3     -2.92      0.00
  -19   21    3      2.73      0.00
  -17   21    3      2.23      0.00
   17   21    3      3.16      0.00
  -18   22    3     -3.47      0.00
  -16   22    3     -3.98      0.00
   14   22    3      2.01      0.00
   16   22    3      0.23      0.00
  -17   23    3      4.02      0.00
  -15   23    3      6.53      0.00
  -13   23    3      4.60      0.00
   11   23    3      0.27      0.00
   13   23    3      0.60      0.00
  -14   24    3     -2.56      0.00
  -12   24    3     -2.35      0.00
  -10   24    3      1.47      0.00
    8   24    3      0.21      0.00
   10   24    3      1.59      0.00
   12   24    3     -0.50      0.00
  -11   25    3     -0.91      0.00
   -9   25    3      0.20      0.00
   -7   25    3      0.09      0.00
   -5   25    3      2.09      0.00
   -3   25    3      1.15      0.00
   -1   25    3      2.44      0.00
    1   25    3      2.05      0.00
    3   25    3      2.11      0.00
    5   25    3     -0.28      0.00
    7   25    3     -3.07      0.00
    9   25    3     -1.33      0.00
   30    0    4     -1.55      0.00
   -1    1    4    -30.04      0.00
   29    1    4      1.39      0.00
   30    2    4     -0.94      0.00
   29    3    4      1.12      0.00
   28    4    4      1.87      0.00
  -31    5    4     -6.37      0.00
   29    5    4     -3.93      0.00
   28    6    4     -3.17      0.00
  -31    7    4      2.25      0.00
   29    7    4      2.74      0.00
  -30    8    4     -3.69      0.00
   28    8    4      2.19      0.00
  -31    9    4      3.02      0.00
   27    9    4     -3.12      0.00
  -30   10    4     -2.42      0.00
   26   10    4     -0.06      0.00
   28   10    4     -0.15      0.00
  -29   11    4      0.89      0.00
   27   11    4      1.04      0.00
  -28   12    4      0.26      0.00
   26   12    4      0.51      0.00
  -29   13    4     -0.71      0.00
  -27   13    4     -0.52      0.00
   25   13    4      0.24      0.00
  -28   14    4     -3.38      0.00
  -26   14    4     -4.99      0.00
   24   14    4     -0.42      0.00
  -27   15    4      5.64      0.00
   23   15    4     -2.34      0.00
  -26   16    4     -2.01      0.00
   22   16    4      0.06      0.00
  -25   17    4     -3.99      0.00
   21   17    4      2.87      0.00
  -24   18    4      1.96      0.00
  -22   18    4     -1.21      0.00
   20   18    4     -4.30      0.00
  -23   19    4      0.31      0.00
  -21   19    4     -1.12      0.00
   19   19    4      1.74      0.00
  -22   20    4      2.13      0.00
  -20   20    4      2.91      0.00
   18   20    4     -5.56      0.00
  -19   21    4     -0.87      0.00
  -17   21    4     -0.01      0.00
   15   21    4      9.12      0.00
   17   21    4      8.03      0.00
  -18   22    4      1.16      0.00
  -16   22    4     -0.99      0.00
   14   22    4     -4.28      0.00
   16   22    4     -2.87      0.00
  -17   23    4      0.67      0.00
  -15   23    4     -1.25      0.00
  -13   23    4     -1.06      0.00
   11   23    4      1.66      0.00
   13   23    4      0.45      0.00
  -14   24    4      3.56      0.00
  -12   24    4      2.43      0.00
  -10   24    4      0.00      0.00
    8   24    4     -4.15      0.00
   10   24    4     -4.37      0.00
  -11   25    4     -0.22      0.00
   -9   25    4      4.93      0.00
   -7   25    4      5.31      0.00
   -5   25    4      5.47      0.00
   -3   25    4      2.01      0.00
   -1   25    4     -2.37      0.00
    1   25    4     -0.76      0.00
    3   25    4     -5.16      0.00
    5   25    4     -4.46      0.00
    7   25    4      0.03      0.00
    1    1    5      6.43      0.00
   29    1    5     -1.11      0.00
   28    2    5     -1.06      0.00
   29    3    5      1.55      0.00
   28    4    5     -4.66      0.00
  -31    5    5      3.52      0.00
   29    5    5      3.21      0.00
   28    6    5     -2.70      0.00
  -31    7    5      1.04      0.00
   27    7    5     -0.30      0.00
  -30    8    5      0.67      0.00
   28    8    5     -1.21      0.00
  -31    9    5     -0.56      0.00
   27    9    5      0.53      0.00
  -30   10    5      1.75      0.00
   26   10    5      4.69      0.00
  -29   11    5      0.05      0.00
   25   11    5     -4.60      0.00
  -28   12    5      0.38      0.00
   26   12    5      4.39      0.00
  -29   13    5      0.44      0.00
  -27   13    5      1.91      0.00
   25   13    5     -1.09      0.00
  -28   14    5     -4.04      0.00
   24   14    5      2.61      0.00
  -27   15    5      6.41      0.00
   23   15    5     -3.52      0.00
  -26   16    5     -2.14      0.00
   22   16    5      0.37      0.00
  -25   17    5     -1.92      0.00
   21   17    5      2.32      0.00
  -24   18    5      1.13      0.00
  -22   18    5      2.19      0.00
   20   18    5      1.05      0.00
  -23   19    5     -0.85      0.00
  -21   19    5     -1.88      0.00
   19   19    5     -2.84      0.00
  -22   20    5     -1.16      0.00
  -20   20    5     -3.15      0.00
   16   20    5     -4.07      0.00
   18   20    5     -0.23      0.00
  -19   21    5      2.31      0.00
  -17   21    5      0.41      0.00
   15   21    5     -3.70      0.00
   17   21    5     -0.96      0.00
  -18   22    5     -1.24      0.00
  -16   22    5     -1.01      0.00
   14   22    5      6.49      0.00
  -17   23    5      1.50      0.00
  -15   23    5      4.78      0.00
  -13   23    5      2.97      0.00
   11   23    5      3.87      0.00
   13   23    5     -0.96      0.00
  -14   24    5     -1.85      0.00
  -12   24    5     -2.28      0.00
  -10   24    5      1.25      0.00
   -8   24    5     -1.71      0.00
    6   24    5      4.84      0.00
    8   24    5     -3.15      0.00
   10   24    5     -4.12      0.00
  -11   25    5     -0.69      0.00
   -9   25    5      1.78      0.00
   -7   25    5      0.85      0.00
   -5   25    5      0.69      0.00
   -3   25    5     -3.54      0.00
   -1   25    5     -7.56      0.00
    1   25    5    -12.62      0.00
    3   25    5    -13.87      0.00
    5   25    5    -10.23      0.00
    7   25    5     -5.43      0.00
   28    0    6     -1.63      0.00
   29    1    6     -1.28      0.00
   28    2    6      1.19      0.00
   27    3    6      0.57      0.00
   28    4    6     -2.66      0.00
  -31    5    6     -1.41      0.00
   27    5    6      0.50      0.00
   28    6    6     -2.06      0.00
  -31    7    6     -0.77      0.00
   27    7    6      1.12      0.00
  -30    8    6     -1.04      0.00
   26    8    6      2.90      0.00
  -31    9    6     -1.66      0.00
   27    9    6     -1.11      0.00
  -30   10    6     -0.31      0.00
   26   10    6      0.69      0.00
  -29   11    6      1.05      0.00
   25   11    6     -1.74      0.00
  -30   12    6      1.84      0.00
  -28   12    6      1.01      0.00
   24   12    6     -0.77      0.00
  -29   13    6     -1.51      0.00
  -27   13    6     -3.31      0.00
   23   13    6      0.31      0.00
   25   13    6      0.87      0.00
  -28   14    6      2.46      0.00
   24   14    6     -0.67      0.00
  -27   15    6     -1.66      0.00
   23   15    6      1.52      0.00
  -26   16    6     -0.81      0.00
   22   16    6     -3.01      0.00
  -25   17    6      2.70      0.00
   21   17    6      3.71      0.00
  -24   18    6     -1.72      0.00
  -22   18    6     -0.58      0.00
   20   18    6     -0.10      0.00
  -23   19    6      1.98      0.00
  -21   19    6      0.65      0.00
   17   19    6      3.08      0.00
   19   19    6     -0.35      0.00
  -22   20    6     -1.07      0.00
  -20   20    6     -3.30      0.00
   16   20    6      4.00      0.00
  -19   21    6      1.06      0.00
  -17   21    6      1.08      0.00
   15   21    6     -5.64      0.00
  -18   22    6      1.37      0.00
  -16   22    6     -1.10      0.00
   12   22    6      0.85      0.00
   14   22    6      0.62      0.00
  -15   23    6     -0.38      0.00
  -13   23    6      1.97      0.00
    9   23    6     -0.72      0.00
   11   23    6     -1.19      0.00
  -14   24    6     -0.54      0.00
  -12   24    6     -2.51      0.00
  -10   24    6     -4.06      0.00
   -8   24    6     -1.29      0.00
    2   24    6      9.63      0.00
    4   24    6      4.97      0.00
    6   24    6      1.86      0.00
    8   24    6      1.93      0.00
   10   24    6     -0.11      0.00
  -11   25    6      3.58      0.00
   -9   25    6      3.78      0.00
   -7   25    6      0.17      0.00
   -5   25    6     -1.36      0.00
   -3   25    6      0.33      0.00
   -1   25    6     -1.55      0.00
    1   25    6      0.03      0.00
    3   25    6     -0.48      0.00
    5   25    6     -1.40      0.00
   27    1    7      2.56      0.00
   28    2    7     -1.29      0.00
   27    3    7     -0.48      0.00
   28    4    7      4.12      0.00
  -31    5    7     -0.41      0.00
   27    5    7     -1.20      0.00
   26    6    7      3.65      0.00
  -31    7    7     -1.68      0.00
   27    7    7     -2.39      0.00
  -30    8    7     -1.43      0.00
   26    8    7      1.72      0.00
  -31    9    7     -1.04      0.00
   25    9    7     -0.98      0.00
  -30   10    7      1.47      0.00
   24   10    7      0.81      0.00
   26   10    7      3.13      0.00
  -29   11    7      0.80      0.00
   25   11    7     -1.14      0.00
  -30   12    7     -0.26      0.00
  -28   12    7      0.78      0.00
   24   12    7     -3.80      0.00
  -29   13    7     -3.63      0.00
  -27   13    7     -4.64      0.00
   23   13    7      0.50      0.00
  -28   14    7      4.67      0.00
   22   14    7      0.19      0.00
  -27   15    7      0.64      0.00
   21   15    7     -0.99      0.00
  -26   16    7     -3.20      0.00
   20   16    7      2.64      0.00
  -25   17    7      1.30      0.00
   19   17    7     -2.56      0.00
  -24   18    7     -0.24      0.00
  -22   18    7     -0.04      0.00
   18   18    7      1.85      0.00
  -23   19    7      0.11      0.00
  -21   19    7     -0.33      0.00
   17   19    7     -2.14      0.00
  -22   20    7      1.46      0.00
  -20   20    7      3.04      0.00
   14   20    7      2.39      0.00
   16   20    7     -1.07      0.00
  -19   21    7     -3.85      0.00
  -17   21    7     -4.62      0.00
   13   21    7      0.40      0.00
   15   21    7      1.77      0.00
  -18   22    7      2.60      0.00
  -16   22    7      2.31      0.00
   10   22    7      5.52      0.00
   12   22    7      2.89      0.00
  -15   23    7     -1.41      0.00
  -13   23    7     -2.98      0.00
  -11   23    7     -3.89      0.00
    7   23    7     -2.70      0.00
    9   23    7     -2.03      0.00
   11   23    7     -2.25      0.00
  -14   24    7      3.18      0.00
  -12   24    7      0.62      0.00
  -10   24    7     -0.43      0.00
   -8   24    7     -2.45      0.00
   -6   24    7     -4.88      0.00
   -4   24    7     -2.70      0.00
   -2   24    7     -2.52      0.00
    0   24    7     -2.32      0.00
    2   24    7     -3.37      0.00
    4   24    7     -1.07      0.00
    6   24    7     -1.65      0.00
    8   24    7     -2.71      0.00
   -9   25    7      3.47      0.00
   -7   25    7      3.21      0.00
   -5   25    7      2.13      0.00
   -3   25    7      1.21      0.00
   -1   25    7      2.21      0.00
    1   25    7      1.43      0.00
    3   25    7     -0.22      0.00
    5   25    7      0.38      0.00
   26    0    8      1.47      0.00
   27    1    8      0.70      0.00
   26    2    8     -1.02      0.00
   27    3    8      2.96      0.00
   26    4    8      2.31      0.00
  -31    5    8     -1.95      0.00
   27    5    8     -1.48      0.00
   26    6    8      3.54      0.00
  -31    7    8     -2.24      0.00
   25    7    8     -2.49      0.00
  -30    8    8     -1.52      0.00
   26    8    8      2.60      0.00
  -31    9    8      1.10      0.00
   25    9    8     -3.00      0.00
  -30   10    8     -3.97      0.00
   24   10    8      1.16      0.00
  -29   11    8      2.50      0.00
   23   11    8     -0.28      0.00
  -30   12    8      0.48      0.00
  -28   12    8     -0.26      0.00
   22   12    8      2.45      0.00
   24   12    8      0.00      0.00
  -29   13    8      0.14      0.00
  -27   13    8      1.68      0.00
   23   13    8     -1.83      0.00
  -28   14    8     -2.65      0.00
   22   14    8      3.84      0.00
  -27   15    8      4.53      0.00
   21   15    8     -0.69      0.00
  -26   16    8      0.45      0.00
   20   16    8     -2.24      0.00
  -25   17    8     -6.18      0.00
  -23   17    8     -4.74      0.00
   19   17    8     -2.61      0.00
  -24   18    8      2.74      0.00
  -22   18    8      1.32      0.00
   18   18    8      5.12      0.00
  -23   19    8      1.98      0.00
  -21   19    8      0.06      0.00
   15   19    8     -2.46      0.00
   17   19    8     -1.89      0.00
  -22   20    8     -0.74      0.00
  -20   20    8     -0.20      0.00
   14   20    8     -3.40      0.00
   16   20    8     -3.21      0.00
  -19   21    8     -2.03      0.00
  -17   21    8     -0.65      0.00
   11   21    8      2.23      0.00
   13   21    8      1.58      0.00
  -18   22    8      0.20      0.00
  -16   22    8     -1.99      0.00
  -14   22    8     -3.58      0.00
    8   22    8     -4.39      0.00
   10   22    8     -2.68      0.00
   12   22    8     -0.09      0.00
  -15   23    8      2.07      0.00
  -13   23    8      3.37      0.00
  -11   23    8      2.91      0.00
    5   23    8      2.94      0.00
    7   23    8      5.13      0.00
    9   23    8      5.87      0.00
  -12   24    8      1.33      0.00
  -10   24    8      0.67      0.00
   -8   24    8      3.04      0.00
   -6   24    8      1.99      0.00
   -4   24    8      0.82      0.00
   -2   24    8     -4.08      0.00
    0   24    8     -7.79      0.00
    2   24    8     -3.70      0.00
    4   24    8     -0.88      0.00
    6   24    8     -2.64      0.00
   -9   25    8     -0.32      0.00
   -7   25    8      0.29      0.00
   -5   25    8      0.70      0.00
   -3   25    8      4.10      0.00
   -1   25    8      4.18      0.00
    1   25    8      3.67      0.00
    3   25    8      2.09      0.00
   27    1    9     -1.42      0.00
   26    2    9     -1.16      0.00
   25    3    9     -1.88      0.00
   26    4    9      1.63      0.00
  -31    5    9      1.67      0.00
   25    5    9     -2.72      0.00
   26    6    9      1.49      0.00
  -31    7    9      0.37      0.00
   25    7    9     -1.17      0.00
  -30    8    9     -1.74      0.00
   24    8    9     -2.09      0.00
  -31    9    9      3.17      0.00
   23    9    9      2.59      0.00
   25    9    9      0.32      0.00
  -30   10    9     -0.22      0.00
   24   10    9     -0.58      0.00
  -29   11    9     -0.19      0.00
   23   11    9      4.58      0.00
  -28   12    9     -1.63      0.00
   22   12    9     -3.16      0.00
  -29   13    9     -1.47      0.00
  -27   13    9      2.86      0.00
   21   13    9     -2.74      0.00
  -28   14    9     -0.99      0.00
  -26   14    9     -2.21      0.00
   20   14    9      1.76      0.00
   22   14    9      4.24      0.00
  -27   15    9      0.63      0.00
  -25   15    9     -0.41      0.00
   19   15    9      7.79      0.00
   21   15    9      3.47      0.00
  -26   16    9      3.14      0.00
  -24   16    9      0.35      0.00
   18   16    9     -7.38      0.00
   20   16    9     -5.33      0.00
  -25   17    9      0.05      0.00
  -23   17    9      3.37      0.00
   17   17    9     -0.05      0.00
   19   17    9      1.02      0.00
  -24   18    9     -3.58      0.00
  -22   18    9     -2.47      0.00
   16   18    9      1.52      0.00
   18   18    9      1.28      0.00
  -23   19    9      2.34      0.00
  -21   19    9      1.03      0.00
   15   19    9      2.37      0.00
  -20   20    9     -3.15      0.00
  -18   20    9     -5.14      0.00
   12   20    9     -2.38      0.00
   14   20    9     -0.49      0.00
  -19   21    9      2.40      0.00
  -17   21    9      3.38      0.00
    9   21    9      1.93      0.00
   11   21    9     -0.86      0.00
   13   21    9     -1.24      0.00
  -18   22    9     -0.78      0.00
  -16   22    9     -3.11      0.00
  -14   22    9     -2.99      0.00
    8   22    9     -2.48      0.00
   10   22    9     -1.22      0.00
  -15   23    9      0.01      0.00
  -13   23    9      1.44      0.00
  -11   23    9     -2.51      0.00
   -9   23    9     -4.95      0.00
    3   23    9      1.42      0.00
    5   23    9      2.71      0.00
    7   23    9      2.22      0.00
    9   23    9      3.54      0.00
  -12   24    9      1.13      0.00
  -10   24    9      0.74      0.00
   -8   24    9      2.71      0.00
   -6   24    9      2.05      0.00
   -4   24    9      2.66      0.00
   -2   24    9      1.95      0.00
    0   24    9      0.80      0.00
    2   24    9     -1.23      0.00
    4   24    9      0.77      0.00
    6   24    9      1.56      0.00
   -7   25    9      2.83      0.00
   -5   25    9      0.71      0.00
   -3   25    9     -1.54      0.00
   -1   25    9     -0.65      0.00
   26    0   10      1.15      0.00
   25    1   10      0.87      0.00
   26    2   10     -0.84      0.00
   25    3   10     -1.61      0.00
   24    4   10      4.34      0.00
  -31    5   10      3.77      0.00
   25    5   10     -4.79      0.00
   24    6   10      1.75      0.00
  -31    7   10      2.56      0.00
   23    7   10     -0.75      0.00
   25    7   10     -0.43      0.00
  -30    8   10     -1.13      0.00
   24    8   10      2.50      0.00
  -31    9   10     -4.15      0.00
   23    9   10     -3.02      0.00
  -30   10   10      1.37      0.00
   22   10   10     -0.01      0.00
  -29   11   10      1.61      0.00
   21   11   10      1.46      0.00
   23   11   10      0.61      0.00
  -28   12   10     -0.49      0.00
   22   12   10      1.83      0.00
  -29   13   10     -0.09      0.00
  -27   13   10      0.77      0.00
   21   13   10     -4.36      0.00
  -28   14   10     -1.49      0.00
  -26   14   10     -1.83      0.00
   20   14   10      1.43      0.00
  -27   15   10      1.63      0.00
  -25   15   10      1.03      0.00
   19   15   10     -1.06      0.00
  -26   16   10     -2.47      0.00
  -24   16   10     -3.47      0.00
   18   16   10      0.65      0.00
  -25   17   10      2.40      0.00
  -23   17   10      3.54      0.00
   17   17   10      1.75      0.00
  -24   18   10     -0.44      0.00
  -22   18   10      1.17      0.00
   14   18   10     -1.43      0.00
   16   18   10     -1.01      0.00
  -21   19   10      1.08      0.00
   13   19   10      3.21      0.00
   15   19   10      1.10      0.00
  -20   20   10     -1.00      0.00
  -18   20   10     -0.21      0.00
   10   20   10     -2.36      0.00
   12   20   10     -1.71      0.00
   14   20   10     -0.09      0.00
  -19   21   10     -4.55      0.00
  -17   21   10     -2.27      0.00
    9   21   10      2.87      0.00
   11   21   10      2.34      0.00
  -16   22   10      1.79      0.00
  -14   22   10     -1.30      0.00
  -12   22   10     -1.84      0.00
    6   22   10     -2.17      0.00
    8   22   10     -3.91      0.00
   10   22   10     -2.65      0.00
  -13   23   10     -0.34      0.00
  -11   23   10      1.84      0.00
   -9   23   10      2.99      0.00
   -7   23   10      1.59      0.00
   -5   23   10     -3.79      0.00
   -1   23   10     -2.98      0.00
    1   23   10     -2.96      0.00
    3   23   10     -3.64      0.00
    5   23   10     -2.63      0.00
    7   23   10     -2.06      0.00
  -10   24   10     -3.27      0.00
   -8   24   10     -3.14      0.00
   -6   24   10     -0.28      0.00
   -4   24   10      3.52      0.00
   -2   24   10      4.08      0.00
    0   24   10      1.75      0.00
    2   24   10      1.70      0.00
    4   24   10      3.38      0.00
   25    1   11      4.86      0.00
   24    2   11     -4.87      0.00
  -31    3   11      1.14      0.00
   25    3   11      2.29      0.00
   24    4   11      2.42      0.00
  -31    5   11      0.16      0.00
   23    5   11      0.47      0.00
   24    6   11     -1.34      0.00
  -31    7   11     -0.87      0.00
   23    7   11      1.36      0.00
  -30    8   11      3.10      0.00
   22    8   11     -3.46      0.00
  -31    9   11     -1.97      0.00
  -29    9   11     -1.64      0.00
   23    9   11      1.64      0.00
  -30   10   11      1.65      0.00
   22   10   11      1.98      0.00
  -29   11   11     -0.31      0.00
   21   11   11     -2.15      0.00
  -28   12   11      2.67      0.00
   20   12   11      1.77      0.00
  -27   13   11     -3.00      0.00
   19   13   11     -2.41      0.00
  -28   14   11     -0.17      0.00
  -26   14   11      1.69      0.00
   18   14   11      0.73      0.00
   20   14   11      0.36      0.00
  -27   15   11      0.61      0.00
  -25   15   11      0.64      0.00
   17   15   11      0.58      0.00
   19   15   11      1.57      0.00
  -26   16   11     -0.40      0.00
  -24   16   11     -0.85      0.00
   16   16   11     -0.31      0.00
   18   16   11     -3.19      0.00
  -25   17   11     -1.57      0.00
  -23   17   11     -3.27      0.00
   15   17   11     -3.08      0.00
   17   17   11     -1.82      0.00
  -22   18   11      3.38      0.00
   14   18   11      3.28      0.00
  -21   19   11     -1.05      0.00
  -19   19   11     -0.69      0.00
   11   19   11     -0.92      0.00
   13   19   11     -2.76      0.00
  -20   20   11      1.14      0.00
  -18   20   11      2.74      0.00
   10   20   11      3.95      0.00
   12   20   11      1.48      0.00
  -19   21   11     -0.30      0.00
  -17   21   11      1.11      0.00
  -15   21   11      2.01      0.00
    7   21   11     -1.11      0.00
    9   21   11     -1.21      0.00
   11   21   11     -1.31      0.00
  -16   22   11     -2.15      0.00
  -14   22   11     -1.42      0.00
  -12   22   11     -1.20      0.00
    4   22   11      4.56      0.00
    6   22   11      3.53      0.00
    8   22   11      1.61      0.00
  -13   23   11     -1.46      0.00
  -11   23   11     -1.79      0.00
   -9   23   11      0.23      0.00
   -7   23   11      2.51      0.00
   -5   23   11      2.24      0.00
   -3   23   11      2.86      0.00
   -1   23   11      2.94      0.00
    1   23   11      1.78      0.00
    3   23   11     -0.99      0.00
    5   23   11     -0.01      0.00
   -8   24   11     -1.26      0.00
   -6   24   11     -2.56      0.00
   -4   24   11     -3.03      0.00
   -2   24   11     -3.08      0.00
    0   24   11     -2.45      0.00
   24    0   12     -1.46      0.00
  -31    1   12      0.13      0.00
   23    1   12      1.81      0.00
   24    2   12     -0.54      0.00
  -31    3   12     -2.72      0.00
   23    3   12     -3.51      0.00
   22    4   12      4.59      0.00
   24    4   12      2.58      0.00
  -31    5   12      0.06      0.00
   23    5   12     -0.01      0.00
  -30    6   12      0.68      0.00
   22    6   12     -0.19      0.00
  -31    7   12     -0.92      0.00
   23    7   12     -1.56      0.00
  -30    8   12     -0.01      0.00
   22    8   12      0.46      0.00
  -31    9   12     -1.69      0.00
  -29    9   12      0.75      0.00
   21    9   12      1.08      0.00
  -30   10   12     -1.66      0.00
   20   10   12     -2.96      0.00
  -29   11   12     -0.84      0.00
   19   11   12      2.09      0.00
   21   11   12      2.34      0.00
  -28   12   12      5.34      0.00
   18   12   12     -0.54      0.00
   20   12   12     -1.39      0.00
  -27   13   12     -5.35      0.00
   19   13   12      1.73      0.00
  -26   14   12      2.56      0.00
   18   14   12     -2.43      0.00
  -25   15   12      0.73      0.00
   17   15   12      4.64      0.00
  -24   16   12      1.78      0.00
   14   16   12      2.04      0.00
   16   16   12     -1.43      0.00
  -23   17   12     -5.31      0.00
   13   17   12     -2.90      0.00
   15   17   12     -1.56      0.00
  -22   18   12      4.36      0.00
  -20   18   12      2.43      0.00
   12   18   12      2.71      0.00
   14   18   12      1.66      0.00
  -21   19   12      0.46      0.00
  -19   19   12     -1.53      0.00
   11   19   12     -3.56      0.00
   13   19   12     -3.69      0.00
  -20   20   12     -1.78      0.00
  -18   20   12      0.36      0.00
  -16   20   12      2.26      0.00
    8   20   12     -0.44      0.00
   10   20   12      0.97      0.00
  -17   21   12      0.39      0.00
  -15   21   12     -0.91      0.00
  -13   21   12     -1.01      0.00
    5   21   12     -3.67      0.00
    7   21   12     -3.06      0.00
    9   21   12     -1.89      0.00
  -14   22   12     -0.82      0.00
  -12   22   12     -1.50      0.00
  -10   22   12     -4.77      0.00
   -8   22   12     -5.17      0.00
    0   22   12     -3.25      0.00
    2   22   12      0.61      0.00
    4   22   12      4.18      0.00
    6   22   12      5.95      0.00
  -11   23   12      3.55      0.00
   -9   23   12      4.97      0.00
   -7   23   12      5.32      0.00
   -5   23   12      2.04      0.00
   -3   23   12      1.49      0.00
   -1   23   12      1.94      0.00
    1   23   12      2.33      0.00
    3   23   12     -0.40      0.00
   -4   24   12      2.30      0.00
  -31    1   13     -2.45      0.00
   23    1   13      0.11      0.00
   22    2   13     -0.09      0.00
  -31    3   13     -0.24      0.00
   23    3   13     -2.30      0.00
   22    4   13      0.56      0.00
  -31    5   13      0.67      0.00
   21    5   13     -1.54      0.00
  -30    6   13     -3.32      0.00
   22    6   13      2.15      0.00
  -31    7   13      0.04      0.00
   21    7   13     -0.66      0.00
  -30    8   13      0.33      0.00
   20    8   13      0.13      0.00
  -29    9   13     -1.75      0.00
   21    9   13     -0.64      0.00
  -30   10   13      2.93      0.00
  -28   10   13      6.52      0.00
   20   10   13      1.66      0.00
  -29   11   13     -4.68      0.00
   19   11   13      0.71      0.00
  -28   12   13      0.59      0.00
   18   12   13     -1.35      0.00
  -27   13   13      2.82      0.00
   17   13   13     -3.02      0.00
  -26   14   13     -2.24      0.00
   16   14   13      3.76      0.00
   18   14   13      3.81      0.00
  -25   15   13     -1.21      0.00
   15   15   13     -0.25      0.00
   17   15   13     -0.67      0.00
  -24   16   13      3.82      0.00
   14   16   13      0.26      0.00
   16   16   13      0.00      0.00
  -23   17   13     -1.07      0.00
  -21   17   13     -0.03      0.00
   13   17   13     -1.92      0.00
  -22   18   13     -0.01      0.00
  -20   18   13      0.03      0.00
   10   18   13      3.03      0.00
   12   18   13      2.24      0.00
  -21   19   13     -0.33      0.00
  -19   19   13     -3.87      0.00
  -17   19   13     -4.19      0.00
    9   19   13      0.90      0.00
   11   19   13      0.97      0.00
  -18   20   13      4.12      0.00
  -16   20   13      4.88      0.00
    6   20   13     -2.60      0.00
    8   20   13     -2.95      0.00
   10   20   13     -0.70      0.00
  -17   21   13     -0.84      0.00
  -15   21   13     -0.83      0.00
  -13   21   13      1.84      0.00
  -11   21   13      4.82      0.00
    3   21   13      2.90      0.00
    5   21   13      0.49      0.00
    7   21   13     -0.16      0.00
  -14   22   13     -1.86      0.00
  -12   22   13     -2.59      0.00
  -10   22   13     -3.39      0.00
   -8   22   13     -0.33      0.00
   -6   22   13      5.14      0.00
   -4   22   13      6.66      0.00
   -2   22   13      3.70      0.00
    0   22   13     -0.03      0.00
    2   22   13     -0.71      0.00
    4   22   13     -0.80      0.00
   -9   23   13      0.51      0.00
   -7   23   13     -1.55      0.00
   -5   23   13     -3.86      0.00
   -3   23   13     -3.73      0.00
   -1   23   13     -1.94      0.00
    1   23   13     -0.03      0.00
   22    0   14      2.43      0.00
  -31    1   14     -3.23      0.00
   21    1   14     -1.30      0.00
   22    2   14     -1.80      0.00
  -31    3   14     -0.54      0.00
   21    3   14      1.07      0.00
  -30    4   14     -0.29      0.00
   20    4   14     -2.07      0.00
   22    4   14     -2.46      0.00
  -31    5   14     -0.15      0.00
   21    5   14      2.45      0.00
  -30    6   14      1.40      0.00
   20    6   14     -4.90      0.00
  -31    7   14     -0.89      0.00
  -29    7   14     -1.42      0.00
   19    7   14      1.95      0.00
   21    7   14      1.17      0.00
  -30    8   14      1.07      0.00
   20    8   14      2.22      0.00
  -29    9   14     -1.56      0.00
   19    9   14     -2.05      0.00
  -28   10   14      1.02      0.00
   18   10   14      1.89      0.00
  -29   11   14     -0.71      0.00
  -27   11   14     -0.57      0.00
   17   11   14     -0.78      0.00
   19   11   14      0.59      0.00
  -28   12   14      0.40      0.00
  -26   12   14      2.59      0.00
   16   12   14      0.62      0.00
   18   12   14     -0.75      0.00
  -27   13   14     -0.21      0.00
  -25   13   14     -3.05      0.00
   15   13   14     -3.85      0.00
   17   13   14      0.31      0.00
  -26   14   14      0.20      0.00
  -24   14   14      0.05      0.00
   14   14   14      1.70      0.00
   16   14   14     -2.06      0.00
  -25   15   14     -3.12      0.00
  -23   15   14     -0.66      0.00
   13   15   14      1.07      0.00
   15   15   14      1.02      0.00
  -24   16   14      1.06      0.00
  -22   16   14      2.09      0.00
   12   16   14     -4.19      0.00
   14   16   14     -2.46      0.00
  -23   17   14      0.71      0.00
  -21   17   14      0.83      0.00
   11   17   14      4.77      0.00
   13   17   14      4.31      0.00
  -22   18   14      0.91      0.00
  -20   18   14     -0.43      0.00
  -18   18   14     -0.78      0.00
    8   18   14      2.71      0.00
   10   18   14     -1.30      0.00
   12   18   14     -1.69      0.00
  -19   19   14     -1.98      0.00
  -17   19   14     -0.57      0.00
    7   19   14     -6.32      0.00
    9   19   14     -3.86      0.00
  -18   20   14      1.38      0.00
  -16   20   14      3.13      0.00
  -14   20   14      0.03      0.00
    4   20   14      4.97      0.00
    6   20   14      5.77      0.00
    8   20   14      4.59      0.00
  -15   21   14     -1.23      0.00
  -13   21   14     -1.89      0.00
  -11   21   14     -0.21      0.00
   -9   21   14     -2.09      0.00
   -7   21   14     -2.40      0.00
   -3   21   14     -0.68      0.00
   -1   21   14     -1.83      0.00
    1   21   14     -3.55      0.00
    3   21   14     -3.66      0.00
    5   21   14     -1.27      0.00
  -12   22   14      1.72      0.00
  -10   22   14      1.62      0.00
   -8   22   14      0.69      0.00
   -6   22   14     -0.38      0.00
   -4   22   14     -2.13      0.00
   -2   22   14     -0.54      0.00
    0   22   14      1.77      0.00
    2   22   14      2.84      0.00
  -31    1   15     -1.03      0.00
   19    1   15      6.16      0.00
   21    1   15      4.21      0.00
  -30    2   15      0.30      0.00
   20    2   15     -1.47      0.00
  -31    3   15      1.04      0.00
   19    3   15     -2.98      0.00
   21    3   15     -3.11      0.00
  -30    4   15      2.03      0.00
   20    4   15      5.13      0.00
  -31    5   15     -2.56      0.00
   19    5   15     -0.85      0.00
  -30    6   15     -2.07      0.00
   20    6   15     -0.26      0.00
  -29    7   15      1.99      0.00
   19    7   15      0.32      0.00
  -30    8   15     -0.07      0.00
  -28    8   15      0.74      0.00
   18    8   15     -3.49      0.00
  -29    9   15     -0.09      0.00
   17    9   15      0.46      0.00
   19    9   15      1.67      0.00
  -28   10   15     -0.10      0.00
   16   10   15     -2.67      0.00
   18   10   15     -1.72      0.00
  -27   11   15     -1.78      0.00
   17   11   15      6.96      0.00
  -28   12   15      3.11      0.00
  -26   12   15      2.30      0.00
   16   12   15     -6.78      0.00
  -27   13   15     -0.54      0.00
  -25   13   15      1.00      0.00
   15   13   15      2.26      0.00
  -26   14   15     -1.73      0.00
  -24   14   15     -0.54      0.00
   14   14   15      2.50      0.00
  -25   15   15     -0.69      0.00
  -23   15   15     -1.99      0.00
   11   15   15      0.17      0.00
   13   15   15     -1.90      0.00
  -24   16   15      1.96      0.00
  -22   16   15      3.43      0.00
   10   16   15     -5.36      0.00
   12   16   15     -3.83      0.00
  -21   17   15     -1.88      0.00
  -19   17   15     -0.29      0.00
    9   17   15      2.99      0.00
   11   17   15      4.47      0.00
  -20   18   15     -2.04      0.00
  -18   18   15     -1.45      0.00
    8   18   15     -1.74      0.00
   10   18   15     -2.09      0.00
  -19   19   15      2.03      0.00
  -17   19   15      0.62      0.00
  -15   19   15     -0.55      0.00
    5   19   15      4.87      0.00
    7   19   15      2.04      0.00
  -16   20   15      0.07      0.00
  -14   20   15      0.18      0.00
  -12   20   15     -0.53      0.00
  -10   20   15     -0.83      0.00
    0   20   15      1.47      0.00
    2   20   15     -2.25      0.00
    4   20   15     -4.63      0.00
    6   20   15     -3.58      0.00
  -13   21   15      0.18      0.00
  -11   21   15      0.34      0.00
   -9   21   15      1.48      0.00
   -7   21   15      2.61      0.00
   -5   21   15      2.70      0.00
   -3   21   15      0.71      0.00
   -1   21   15     -0.10      0.00
    1   21   15      1.08      0.00
    3   21   15      3.16      0.00
  -10   22   15      0.67      0.00
   -8   22   15     -1.36      0.00
   -6   22   15     -1.92      0.00
   -4   22   15     -1.37      0.00
   -2   22   15     -1.41      0.00
  -30    0   16     -0.14      0.00
   18    0   16      5.40      0.00
   20    0   16      3.37      0.00
  -31    1   16      0.83      0.00
   19    1   16     -2.79      0.00
  -30    2   16     -1.28      0.00
   18    2   16      1.98      0.00
   20    2   16      2.45      0.00
  -31    3   16     -1.91      0.00
   19    3   16      3.50      0.00
  -30    4   16      1.98      0.00
   18    4   16     -5.98      0.00
  -31    5   16      0.92      0.00
  -29    5   16      2.08      0.00
   17    5   16      5.88      0.00
   19    5   16      5.91      0.00
  -30    6   16     -3.54      0.00
   18    6   16     -1.21      0.00
  -29    7   16     -0.68      0.00
   17    7   16     -1.97      0.00
  -28    8   16      0.22      0.00
   16    8   16      1.42      0.00
   18    8   16      1.17      0.00
  -29    9   16      0.96      0.00
  -27    9   16      2.48      0.00
   17    9   16     -1.60      0.00
  -28   10   16     -1.55      0.00
  -26   10   16     -1.71      0.00
   16   10   16     -0.99      0.00
  -27   11   16     -0.09      0.00
   15   11   16      0.56      0.00
  -26   12   16     -0.63      0.00
   14   12   16     -0.63      0.00
  -25   13   16      0.05      0.00
   13   13   16      3.27      0.00
   15   13   16      3.23      0.00
  -24   14   16      1.59      0.00
   12   14   16     -1.29      0.00
   14   14   16     -0.80      0.00
  -23   15   16     -0.50      0.00
  -21   15   16      1.96      0.00
   11   15   16     -0.31      0.00
   13   15   16     -0.44      0.00
  -22   16   16      3.27      0.00
  -20   16   16      3.01      0.00
   10   16   16      0.80      0.00
  -21   17   16     -3.90      0.00
  -19   17   16     -8.56      0.00
    7   17   16     -0.59      0.00
    9   17   16      1.02      0.00
  -20   18   16      2.66      0.00
  -18   18   16      1.45      0.00
  -16   18   16      1.55      0.00
    4   18   16      1.81      0.00
    6   18   16     -0.08      0.00
    8   18   16     -0.71      0.00
  -17   19   16      1.87      0.00
  -15   19   16      3.38      0.00
  -13   19   16      0.91      0.00
    1   19   16     -0.80      0.00
    3   19   16     -1.50      0.00
    5   19   16     -2.21      0.00
  -14   20   16     -2.63      0.00
  -12   20   16      0.32      0.00
  -10   20   16      3.36      0.00
   -8   20   16      4.00      0.00
   -6   20   16      4.56      0.00
   -4   20   16      1.20      0.00
   -2   20   16     -1.84      0.00
    0   20   16     -2.63      0.00
    2   20   16      0.89      0.00
    4   20   16      0.96      0.00
  -11   21   16      0.72      0.00
   -9   21   16     -2.25      0.00
   -7   21   16     -3.50      0.00
   -5   21   16     -1.70      0.00
   -3   21   16      1.87      0.00
   -1   21   16      3.17      0.00
  -31    1   17      1.83      0.00
  -29    1   17      2.88      0.00
   17    1   17     -3.20      0.00
   19    1   17     -4.94      0.00
  -30    2   17     -5.15      0.00
   18    2   17     -0.14      0.00
  -31    3   17      1.51      0.00
  -29    3   17      1.87      0.00
   17    3   17      4.46      0.00
  -30    4   17      3.56      0.00
   16    4   17     -2.34      0.00
   18    4   17     -4.49      0.00
  -29    5   17     -4.86      0.00
   17    5   17     -0.16      0.00
  -30    6   17     -0.68      0.00
  -28    6   17     -0.63      0.00
   16    6   17      4.51      0.00
  -29    7   17      4.43      0.00
  -27    7   17      6.13      0.00
   15    7   17      1.28      0.00
   17    7   17     -0.58      0.00
  -28    8   17     -4.27      0.00
   14    8   17     -3.19      0.00
   16    8   17     -0.71      0.00
  -27    9   17     -1.88      0.00
   15    9   17     -0.78      0.00
  -28   10   17      5.24      0.00
  -26   10   17      4.15      0.00
   14   10   17      4.64      0.00
  -27   11   17     -1.69      0.00
  -25   11   17      1.87      0.00
   13   11   17     -6.30      0.00
   15   11   17     -3.04      0.00
  -26   12   17     -5.51      0.00
  -24   12   17     -5.62      0.00
   12   12   17      0.90      0.00
   14   12   17     -0.17      0.00
  -25   13   17      1.95      0.00
  -23   13   17      0.87      0.00
   11   13   17      1.77      0.00
   13   13   17      0.63      0.00
  -24   14   17      0.08      0.00
  -22   14   17      0.41      0.00
   10   14   17     -0.69      0.00
   12   14   17     -0.47      0.00
  -23   15   17      2.66      0.00
  -21   15   17      3.85      0.00
    9   15   17     -0.49      0.00
   11   15   17     -0.60      0.00
  -22   16   17     -0.21      0.00
  -20   16   17     -3.06      0.00
  -18   16   17     -2.54      0.00
    6   16   17     -1.96      0.00
    8   16   17      0.51      0.00
   10   16   17      2.12      0.00
  -19   17   17      1.43      0.00
  -17   17   17      1.42      0.00
  -15   17   17     -1.66      0.00
    5   17   17     -0.24      0.00
    7   17   17     -0.42      0.00
  -18   18   17      1.65      0.00
  -16   18   17      3.16      0.00
  -14   18   17      5.60      0.00
  -12   18   17      5.53      0.00
    2   18   17      8.97      0.00
    4   18   17      4.95      0.00
    6   18   17      1.47      0.00
  -15   19   17     -4.92      0.00
  -13   19   17     -3.76      0.00
  -11   19   17     -3.91      0.00
   -9   19   17     -3.61      0.00
   -7   19   17     -3.98      0.00
   -5   19   17     -2.14      0.00
   -3   19   17     -2.49      0.00
   -1   19   17     -5.61      0.00
    1   19   17     -6.99      0.00
    3   19   17     -4.32      0.00
  -12   20   17     -2.48      0.00
  -10   20   17     -1.52      0.00
   -8   20   17     -0.43      0.00
   -6   20   17     -1.50      0.00
   -4   20   17     -1.44      0.00
   -2   20   17     -0.56      0.00
    0   20   17      0.12      0.00
  -30    0   18     -1.74      0.00
  -28    0   18     -1.09      0.00
   16    0   18     -3.56      0.00
  -29    1   18      3.06      0.00
   15    1   18      3.29      0.00
   17    1   18     -0.26      0.00
  -30    2   18     -2.65      0.00
  -28    2   18     -0.89      0.00
   16    2   18     -1.82      0.00
  -29    3   18     -1.55      0.00
   15    3   18      1.69      0.00
   17    3   18     -1.12      0.00
  -30    4   18      0.53      0.00
  -28    4   18      0.25      0.00
   16    4   18     -2.10      0.00
  -29    5   18      2.99      0.00
   15    5   18      0.96      0.00
  -28    6   18     -4.97      0.00
   14    6   18      0.34      0.00
   16    6   18      0.21      0.00
  -29    7   18      1.64      0.00
  -27    7   18      4.15      0.00
   13    7   18      0.17      0.00
   15    7   18     -0.90      0.00
  -28    8   18     -1.32      0.00
  -26    8   18     -3.31      0.00
   14    8   18      1.92      0.00
  -27    9   18      3.45      0.00
  -25    9   18      5.10      0.00
   13    9   18      2.29      0.00
   15    9   18      2.65      0.00
  -26   10   18     -4.06      0.00
   12   10   18     -1.28      0.00
   14   10   18     -1.98      0.00
  -25   11   18     -0.52      0.00
   11   11   18     -2.21      0.00
   13   11   18      0.65      0.00
  -24   12   18      6.23      0.00
   10   12   18      0.94      0.00
   12   12   18      0.06      0.00
  -23   13   18     -3.43      0.00
    9   13   18      0.96      0.00
   11   13   18     -1.05      0.00
  -22   14   18     -4.85      0.00
  -20   14   18     -4.69      0.00
    8   14   18     -0.76      0.00
   10   14   18     -1.51      0.00
  -21   15   18      5.01      0.00
  -19   15   18     -0.08      0.00
    7   15   18     -0.73      0.00
    9   15   18      1.67      0.00
  -20   16   18      0.34      0.00
  -18   16   18     -1.13      0.00
  -16   16   18     -0.13      0.00
    4   16   18     -0.64      0.00
    6   16   18     -0.96      0.00
    8   16   18     -0.17      0.00
  -19   17   18      0.57      0.00
  -17   17   18      4.08      0.00
  -15   17   18      7.20      0.00
  -13   17   18      4.93      0.00
    1   17   18      0.51      0.00
    3   17   18      3.48      0.00
    5   17   18      1.90      0.00
  -16   18   18     -2.47      0.00
  -14   18   18     -4.21      0.00
  -12   18   18     -1.70      0.00
  -10   18   18      3.12      0.00
   -8   18   18      4.85      0.00
   -6   18   18      6.62      0.00
   -4   18   18      5.32      0.00
   -2   18   18      3.30      0.00
    0   18   18     -0.98      0.00
    2   18   18     -1.83      0.00
    4   18   18     -0.82      0.00
  -13   19   18      1.03      0.00
  -11   19   18      0.86      0.00
   -9   19   18     -0.37      0.00
   -7   19   18     -1.74      0.00
   -5   19   18     -2.11      0.00
   -3   19   18     -0.58      0.00
   -1   19   18      1.66      0.00
    1   19   18      1.52      0.00
   -8   20   18     -2.69      0.00
   -6   20   18     -1.66      0.00
   -4   20   18     -0.89      0.00
  -29    1   19     -1.66      0.00
  -27    1   19     -2.38      0.00
   15    1   19     -0.90      0.00
  -28    2   19     -0.15      0.00
   14    2   19     -1.28      0.00
   16    2   19      0.37      0.00
  -29    3   19      4.14      0.00
  -27    3   19      5.29      0.00
   13    3   19      1.26      0.00
   15    3   19      2.07      0.00
  -28    4   19     -6.75      0.00
   14    4   19     -0.98      0.00
  -29    5   19      2.69      0.00
  -27    5   19      3.41      0.00
   13    5   19     -3.06      0.00
   15    5   19      0.28      0.00
  -28    6   19     -0.17      0.00
  -26    6   19      1.37      0.00
   12    6   19      2.25      0.00
   14    6   19      1.62      0.00
  -27    7   19     -2.64      0.00
   13    7   19     -4.06      0.00
  -26    8   19      0.95      0.00
   12    8   19      0.27      0.00
   14    8   19      0.74      0.00
  -27    9   19      1.37      0.00
  -25    9   19      3.07      0.00
   11    9   19     -0.22      0.00
   13    9   19     -0.70      0.00
  -26   10   19     -1.49      0.00
  -24   10   19     -1.94      0.00
   10   10   19      3.53      0.00
   12   10   19      0.15      0.00
  -25   11   19     -2.76      0.00
  -23   11   19     -1.06      0.00
    9   11   19     -1.77      0.00
   11   11   19      1.31      0.00
  -24   12   19      2.24      0.00
  -22   12   19      0.51      0.00
    8   12   19     -0.98      0.00
   10   12   19      0.20      0.00
  -23   13   19      3.25      0.00
  -21   13   19      3.83      0.00
    7   13   19      2.17      0.00
    9   13   19      0.83      0.00
  -22   14   19     -0.58      0.00
  -20   14   19     -0.49      0.00
  -18   14   19      1.63      0.00
    6   14   19     -1.41      0.00
    8   14   19     -1.97      0.00
  -21   15   19     -4.18      0.00
  -19   15   19     -5.01      0.00
  -17   15   19     -2.56      0.00
    3   15   19     -0.07      0.00
    5   15   19      0.43      0.00
    7   15   19      0.64      0.00
  -18   16   19      0.02      0.00
  -16   16   19     -1.27      0.00
  -14   16   19     -1.40      0.00
    0   16   19      1.55      0.00
    2   16   19      3.16      0.00
    4   16   19      1.89      0.00
  -17   17   19      2.19      0.00
  -15   17   19     -0.12      0.00
  -13   17   19     -0.81      0.00
  -11   17   19     -0.20      0.00
   -9   17   19      2.03      0.00
   -7   17   19      2.31      0.00
   -5   17   19      2.93      0.00
   -3   17   19      2.75      0.00
   -1   17   19     -0.67      0.00
    1   17   19     -2.67      0.00
    3   17   19     -3.57      0.00
  -14   18   19      2.91      0.00
  -12   18   19      2.77      0.00
  -10   18   19      0.33      0.00
   -8   18   19     -0.31      0.00
   -6   18   19     -1.53      0.00
   -4   18   19     -1.72      0.00
   -2   18   19     -1.98      0.00
    0   18   19      0.16      0.00
   -9   19   19      1.34      0.00
   -7   19   19      1.26      0.00
   -5   19   19      1.34      0.00
  -28    0   20      2.86      0.00
  -26    0   20      1.59      0.00
   12    0   20      0.65      0.00
   14    0   20      2.78      0.00
  -29    1   20     -0.02      0.00
  -27    1   20     -1.12      0.00
   13    1   20     -1.13      0.00
  -28    2   20     -1.68      0.00
  -26    2   20     -2.33      0.00
   12    2   20     -2.16      0.00
   14    2   20     -1.34      0.00
  -27    3   20      3.52      0.00
   13    3   20      0.16      0.00
  -28    4   20      0.02      0.00
  -26    4   20     -2.02      0.00
   12    4   20      1.34      0.00
   14    4   20      0.74      0.00
  -27    5   20     -1.98      0.00
   11    5   20     -0.11      0.00
   13    5   20     -1.21      0.00
  -26    6   20      3.30      0.00
   12    6   20      0.31      0.00
  -27    7   20     -1.65      0.00
  -25    7   20     -1.28      0.00
   11    7   20     -2.60      0.00
   13    7   20     -1.44      0.00
  -26    8   20     -1.61      0.00
  -24    8   20     -1.71      0.00
   10    8   20      3.47      0.00
   12    8   20     -0.12      0.00
  -25    9   20      3.51      0.00
  -23    9   20      2.61      0.00
    9    9   20     -1.78      0.00
   11    9   20     -0.28      0.00
  -24   10   20     -1.28      0.00
  -22   10   20     -1.29      0.00
    8   10   20      0.85      0.00
   10   10   20      1.44      0.00
  -23   11   20     -1.29      0.00
  -21   11   20     -1.13      0.00
    7   11   20     -1.85      0.00
    9   11   20     -1.55      0.00
  -22   12   20      1.23      0.00
  -20   12   20      2.86      0.00
    6   12   20      2.00      0.00
    8   12   20      1.22      0.00
  -21   13   20      0.29      0.00
  -19   13   20     -1.24      0.00
    5   13   20     -0.65      0.00
    7   13   20     -0.46      0.00
  -20   14   20     -0.59      0.00
  -18   14   20     -3.61      0.00
  -16   14   20     -2.50      0.00
    2   14   20     -2.24      0.00
    4   14   20     -2.23      0.00
    6   14   20     -1.72      0.00
  -19   15   20      3.34      0.00
  -17   15   20      4.54      0.00
  -15   15   20      5.43      0.00
  -13   15   20      3.01      0.00
   -1   15   20      2.19      0.00
    1   15   20      2.01      0.00
    3   15   20      3.21      0.00
    5   15   20      2.30      0.00
  -16   16   20     -0.30      0.00
  -14   16   20     -0.82      0.00
  -12   16   20     -1.63      0.00
  -10   16   20     -0.96      0.00
   -8   16   20     -2.83      0.00
   -6   16   20     -3.22      0.00
   -4   16   20     -5.50      0.00
   -2   16   20     -3.57      0.00
    0   16   20     -1.55      0.00
    2   16   20     -1.09      0.00
  -15   17   20     -2.93      0.00
  -13   17   20     -3.98      0.00
  -11   17   20     -2.65      0.00
   -9   17   20     -1.82      0.00
   -7   17   20      0.26      0.00
   -5   17   20      2.98      0.00
   -3   17   20      3.09      0.00
   -1   17   20      2.05      0.00
  -10   18   20      1.26      0.00
   -8   18   20      0.12      0.00
   -6   18   20     -0.89      0.00
   -4   18   20     -1.74      0.00
  -27    1   21     -1.48      0.00
  -25    1   21     -2.43      0.00
   11    1   21     -3.92      0.00
  -28    2   21     -1.16      0.00
  -26    2   21     -0.15      0.00
   10    2   21      3.41      0.00
   12    2   21      2.13      0.00
  -27    3   21      0.76      0.00
  -25    3   21      0.51      0.00
   11    3   21      0.61      0.00
  -26    4   21      3.14      0.00
   10    4   21     -2.14      0.00
   12    4   21     -0.81      0.00
  -27    5   21     -1.71      0.00
  -25    5   21     -1.51      0.00
    9    5   21     -0.86      0.00
   11    5   21      1.50      0.00
  -26    6   21     -1.67      0.00
  -24    6   21      0.10      0.00
   10    6   21      2.28      0.00
  -25    7   21      1.94      0.00
  -23    7   21     -1.11      0.00
    9    7   21     -2.41      0.00
   11    7   21      0.65      0.00
  -24    8   21      0.60      0.00
  -22    8   21     -0.84      0.00
    8    8   21     -1.36      0.00
   10    8   21     -0.29      0.00
  -25    9   21      0.06      0.00
  -23    9   21      1.37      0.00
  -21    9   21      3.39      0.00
    7    9   21      3.10      0.00
    9    9   21     -0.56      0.00
  -24   10   21      1.64      0.00
  -22   10   21      0.18      0.00
  -20   10   21      0.17      0.00
    6   10   21     -3.05      0.00
    8   10   21     -2.52      0.00
  -23   11   21     -3.02      0.00
  -21   11   21     -5.27      0.00
  -19   11   21     -5.77      0.00
    5   11   21      2.80      0.00
    7   11   21      3.65      0.00
  -22   12   21      4.22      0.00
  -20   12   21      5.38      0.00
  -18   12   21      3.43      0.00
    2   12   21      0.66      0.00
    4   12   21     -1.80      0.00
    6   12   21     -0.05      0.00
  -19   13   21     -2.04      0.00
  -17   13   21     -0.07      0.00
  -15   13   21      1.67      0.00
    1   13   21      0.59      0.00
    3   13   21     -0.79      0.00
    5   13   21     -1.47      0.00
  -18   14   21     -1.80      0.00
  -16   14   21     -1.50      0.00
  -14   14   21     -3.14      0.00
  -12   14   21     -3.70      0.00
   -4   14   21      2.14      0.00
   -2   14   21      1.59      0.00
    0   14   21      1.27      0.00
    2   14   21      2.63      0.00
    4   14   21      1.22      0.00
  -17   15   21      2.53      0.00
  -15   15   21      3.50      0.00
  -13   15   21      4.41      0.00
  -11   15   21      4.18      0.00
   -9   15   21      3.43      0.00
   -7   15   21      1.35      0.00
   -5   15   21      0.85      0.00
   -3   15   21      1.43      0.00
   -1   15   21     -1.51      0.00
    1   15   21     -0.84      0.00
  -14   16   21     -1.72      0.00
  -12   16   21     -1.48      0.00
  -10   16   21     -0.74      0.00
   -8   16   21      0.28      0.00
   -6   16   21     -1.32      0.00
   -4   16   21     -0.94      0.00
   -2   16   21     -1.68      0.00
   -9   17   21     -0.36      0.00
   -7   17   21     -0.81      0.00
  -26    0   22      2.15      0.00
  -24    0   22      1.23      0.00
    8    0   22      5.28      0.00
   10    0   22      5.64      0.00
  -25    1   22     -1.64      0.00
    9    1   22     -4.58      0.00
   11    1   22     -0.98      0.00
  -26    2   22      0.51      0.00
  -24    2   22      0.11      0.00
    8    2   22     -3.53      0.00
   10    2   22     -0.80      0.00
  -25    3   22     -1.64      0.00
  -23    3   22     -2.45      0.00
    9    3   22      3.18      0.00
  -26    4   22      0.04      0.00
  -24    4   22      2.28      0.00
    8    4   22     -1.52      0.00
   10    4   22     -1.29      0.00
  -25    5   22     -0.13      0.00
  -23    5   22     -1.07      0.00
    7    5   22     -1.55      0.00
    9    5   22     -2.72      0.00
  -24    6   22      1.29      0.00
  -22    6   22     -1.20      0.00
    6    6   22      0.27      0.00
    8    6   22     -0.49      0.00
  -25    7   22     -0.95      0.00
  -23    7   22      0.11      0.00
  -21    7   22      0.52      0.00
    7    7   22      4.35      0.00
    9    7   22      2.52      0.00
  -24    8   22     -0.49      0.00
  -22    8   22     -2.44      0.00
  -20    8   22     -1.02      0.00
    6    8   22     -4.00      0.00
    8    8   22     -3.00      0.00
  -23    9   22     -0.20      0.00
  -21    9   22     -0.37      0.00
  -19    9   22      1.23      0.00
    3    9   22      1.17      0.00
    5    9   22      2.72      0.00
    7    9   22      1.67      0.00
  -22   10   22      2.73      0.00
  -20   10   22      3.54      0.00
  -18   10   22     -1.93      0.00
    2   10   22      2.37      0.00
    4   10   22      0.76      0.00
    6   10   22      0.73      0.00
  -21   11   22     -1.74      0.00
  -19   11   22      0.50      0.00
  -17   11   22      5.19      0.00
    1   11   22      0.76      0.00
    3   11   22     -0.61      0.00
    5   11   22     -0.67      0.00
  -20   12   22      0.10      0.00
  -18   12   22     -3.57      0.00
  -16   12   22     -3.91      0.00
  -14   12   22     -3.68      0.00
   -2   12   22     -6.67      0.00
    0   12   22     -5.91      0.00
    2   12   22     -3.55      0.00
    4   12   22     -1.77      0.00
  -17   13   22     -0.73      0.00
  -15   13   22      0.30      0.00
  -13   13   22     -3.01      0.00
  -11   13   22     -3.80      0.00
   -9   13   22     -6.98      0.00
   -7   13   22     -6.51      0.00
   -5   13   22      0.17      0.00
   -3   13   22      2.97      0.00
   -1   13   22      4.79      0.00
    1   13   22      2.94      0.00
  -16   14   22      2.34      0.00
  -14   14   22      1.22      0.00
  -12   14   22     -0.15      0.00
  -10   14   22      2.27      0.00
   -8   14   22      1.23      0.00
   -6   14   22      1.99      0.00
   -4   14   22     -0.03      0.00
   -2   14   22     -1.24      0.00
    0   14   22      1.22      0.00
  -13   15   22      0.16      0.00
  -11   15   22      2.15      0.00
   -9   15   22      0.96      0.00
   -7   15   22     -0.70      0.00
   -5   15   22      0.36      0.00
   -3   15   22     -1.23      0.00
  -25    1   23     -2.87      0.00
  -23    1   23     -4.14      0.00
    5    1   23      4.24      0.00
    7    1   23      3.99      0.00
    9    1   23      0.72      0.00
  -24    2   23      4.27      0.00
  -22    2   23      3.62      0.00
    6    2   23     -3.07      0.00
    8    2   23     -1.80      0.00
  -25    3   23      0.70      0.00
  -23    3   23     -1.95      0.00
  -21    3   23     -3.18      0.00
    5    3   23     -1.25      0.00
    7    3   23      1.36      0.00
  -24    4   23     -0.06      0.00
  -22    4   23     -2.55      0.00
    6    4   23     -0.61      0.00
    8    4   23     -0.06      0.00
  -23    5   23      3.68      0.00
  -21    5   23      3.07      0.00
    5    5   23      0.60      0.00
    7    5   23      2.12      0.00
  -24    6   23     -0.45      0.00
  -22    6   23     -3.41      0.00
  -20    6   23     -1.84      0.00
    4    6   23     -4.10      0.00
    6    6   23     -1.21      0.00
  -23    7   23     -0.99      0.00
  -21    7   23     -2.71      0.00
  -19    7   23      1.07      0.00
    3    7   23      3.67      0.00
    5    7   23      1.61      0.00
  -22    8   23      0.70      0.00
  -20    8   23     -1.17      0.00
  -18    8   23     -3.33      0.00
    2    8   23      3.12      0.00
    4    8   23     -3.32      0.00
    6    8   23     -1.93      0.00
  -21    9   23      1.14      0.00
  -19    9   23      5.76      0.00
  -17    9   23      6.68      0.00
    1    9   23     -6.43      0.00
    3    9   23     -4.33      0.00
    5    9   23     -2.25      0.00
  -20   10   23     -3.77      0.00
  -18   10   23     -4.37      0.00
  -16   10   23     -6.51      0.00
  -14   10   23     -4.78      0.00
   -2   10   23      2.05      0.00
    0   10   23      5.38      0.00
    2   10   23      8.91      0.00
    4   10   23      3.06      0.00
  -19   11   23      1.73      0.00
  -17   11   23      1.84      0.00
  -15   11   23      3.76      0.00
  -13   11   23      5.53      0.00
  -11   11   23      4.59      0.00
   -9   11   23      5.68      0.00
   -7   11   23      6.68      0.00
   -5   11   23      7.74      0.00
   -3   11   23      8.58      0.00
   -1   11   23      2.16      0.00
    1   11   23      0.37      0.00
  -16   12   23      0.32      0.00
  -14   12   23     -0.91      0.00
  -12   12   23     -2.84      0.00
  -10   12   23     -3.80      0.00
   -8   12   23     -3.77      0.00
   -6   12   23     -7.55      0.00
   -4   12   23     -8.63      0.00
   -2   12   23     -8.40      0.00
    0   12   23     -5.91      0.00
  -15   13   23     -0.65      0.00
  -13   13   23      0.91      0.00
  -11   13   23      0.09      0.00
   -9   13   23      0.38      0.00
   -7   13   23      1.31      0.00
   -5   13   23      2.50      0.00
   -3   13   23      5.64      0.00
   -1   13   23      2.81      0.00
  -12   14   23      0.17      0.00
  -10   14   23      0.53      0.00
   -8   14   23      2.63      0.00
   -6   14   23      1.00      0.00
  -24    0   24      2.91      0.00
  -22    0   24      1.42      0.00
  -20    0   24     -0.22      0.00
    2    0   24     -0.61      0.00
    4    0   24     -4.43      0.00
    6    0   24     -1.79      0.00
  -23    1   24     -0.82      0.00
  -21    1   24      1.26      0.00
  -19    1   24      6.17      0.00
    3    1   24      2.55      0.00
    5    1   24      1.54      0.00
  -22    2   24     -2.83      0.00
  -20    2   24     -1.72      0.00
    2    2   24     -0.80      0.00
    4    2   24     -2.55      0.00
    6    2   24      0.35      0.00
  -23    3   24     -0.38      0.00
  -21    3   24     -2.39      0.00
  -19    3   24     -2.56      0.00
    3    3   24     -1.17      0.00
    5    3   24     -1.21      0.00
  -22    4   24     -0.07      0.00
  -20    4   24      3.05      0.00
  -18    4   24      5.26      0.00
    2    4   24      2.82      0.00
    4    4   24     -0.20      0.00
  -21    5   24      2.34      0.00
  -19    5   24      4.07      0.00
    1    5   24     -1.91      0.00
    3    5   24     -0.91      0.00
    5    5   24     -0.72      0.00
  -22    6   24      0.60      0.00
  -20    6   24     -0.74      0.00
  -18    6   24     -2.39      0.00
  -16    6   24     -3.85      0.00
    0    6   24      1.10      0.00
    2    6   24      0.31      0.00
    4    6   24     -0.88      0.00
  -21    7   24     -3.45      0.00
  -19    7   24      0.13      0.00
  -17    7   24      1.10      0.00
  -15    7   24      4.54      0.00
   -1    7   24      0.53      0.00
    1    7   24     -0.54      0.00
    3    7   24      0.39      0.00
  -20    8   24      1.47      0.00
  -18    8   24     -0.77      0.00
  -16    8   24     -2.97      0.00
  -14    8   24     -1.43      0.00
   -4    8   24     -2.72      0.00
   -2    8   24     -1.10      0.00
    0    8   24      0.33      0.00
    2    8   24     -0.50      0.00
  -19    9   24      0.51      0.00
  -17    9   24     -0.23      0.00
  -15    9   24      1.28      0.00
  -13    9   24     -1.57      0.00
  -11    9   24     -2.68      0.00
   -9    9   24     -3.28      0.00
   -7    9   24     -5.15      0.00
   -5    9   24     -3.20      0.00
   -3    9   24     -2.30      0.00
   -1    9   24     -1.31      0.00
    1    9   24     -1.04      0.00
  -18   10   24     -0.57      0.00
  -16   10   24     -0.87      0.00
  -14   10   24     -0.74      0.00
  -12   10   24     -3.19      0.00
  -10   10   24     -0.48      0.00
   -8   10   24      0.25      0.00
   -6   10   24      1.74      0.00
   -4   10   24      1.16      0.00
   -2   10   24      0.01      0.00
    0   10   24      0.57      0.00
  -15   11   24      1.56      0.00
  -13   11   24      1.40      0.00
  -11   11   24      3.26      0.00
   -9   11   24      4.21      0.00
   -7   11   24      2.10      0.00
   -5   11   24      3.76      0.00
   -3   11   24      4.12      0.00
   -1   11   24      2.61      0.00
  -12   12   24     -2.13      0.00
  -10   12   24     -0.57      0.00
   -8   12   24     -2.46      0.00
   -6   12   24     -3.37      0.00
   -4   12   24     -3.06      0.00
  -21    1   25      0.24      0.00
  -19    1   25      0.48      0.00
  -17    1   25     -0.60      0.00
  -15    1   25     -0.20      0.00
   -3    1   25      3.70      0.00
   -1    1   25      4.41      0.00
    1    1   25      3.33      0.00
    3    1   25      1.79      0.00
  -20    2   25      1.81      0.00
  -18    2   25      4.80      0.00
  -16    2   25      2.28      0.00
   -2    2   25     -2.33      0.00
    0    2   25     -4.46      0.00
    2    2   25     -0.47      0.00
  -21    3   25     -3.75      0.00
  -19    3   25     -3.75      0.00
  -17    3   25     -5.34      0.00
  -15    3   25     -3.99      0.00
   -3    3   25      1.42      0.00
   -1    3   25     -0.03      0.00
    1    3   25      0.00      0.00
    3    3   25      1.08      0.00
  -20    4   25     -0.66      0.00
  -18    4   25      1.71      0.00
  -16    4   25     -1.39      0.00
  -14    4   25      1.22      0.00
   -4    4   25      5.68      0.00
   -2    4   25      6.61      0.00
    0    4   25      1.22      0.00
    2    4   25      1.87      0.00
  -19    5   25      2.39      0.00
  -17    5   25      1.10      0.00
  -15    5   25     -0.69      0.00
  -13    5   25      0.28      0.00
  -11    5   25     -1.62      0.00
   -7    5   25      0.25      0.00
   -5    5   25     -3.71      0.00
   -3    5   25     -2.49      0.00
   -1    5   25     -5.89      0.00
    1    5   25     -2.90      0.00
  -18    6   25      3.50      0.00
  -16    6   25      1.59      0.00
  -14    6   25      2.99      0.00
  -12    6   25      0.16      0.00
  -10    6   25     -3.56      0.00
   -8    6   25     -3.03      0.00
   -6    6   25     -4.56      0.00
   -4    6   25     -0.12      0.00
   -2    6   25      3.46      0.00
    0    6   25      1.28      0.00
  -17    7   25     -2.27      0.00
  -15    7   25     -2.60      0.00
  -13    7   25      1.63      0.00
  -11    7   25      3.59      0.00
   -9    7   25      5.32      0.00
   -7    7   25      3.87      0.00
   -5    7   25      2.28      0.00
   -3    7   25      3.79      0.00
   -1    7   25     -1.52      0.00
  -16    8   25      0.25      0.00
  -14    8   25     -0.08      0.00
  -12    8   25     -1.50      0.00
  -10    8   25     -1.07      0.00
   -8    8   25      1.35      0.00
   -6    8   25     -0.65      0.00
   -4    8   25     -1.05      0.00
   -2    8   25     -1.58      0.00
  -15    9   25     -0.04      0.00
  -13    9   25      0.81      0.00
  -11    9   25     -0.83      0.00
   -9    9   25     -2.84      0.00
   -7    9   25     -3.53      0.00
   -5    9   25     -1.35      0.00
   -3    9   25      3.02      0.00
  -12   10   25      0.26      0.00
  -10   10   25      0.68      0.00
   -8   10   25      1.08      0.00
   -6   10   25     -0.53      0.00
    0    0    0      0.00      0.00
# SQUEEZE RESULTS (Version = 110516)
# Note: Data are Listed for all Voids in the P1 Unit Cell
# i.e. Centre of Gravity, Solvent Accessible Volume,
# Recovered number of Electrons in the Void and
# Details about the Squeezed Material
loop_
  _platon_squeeze_void_nr
  _platon_squeeze_void_average_x
  _platon_squeeze_void_average_y
  _platon_squeeze_void_average_z
  _platon_squeeze_void_volume
  _platon_squeeze_void_count_electrons
  _platon_squeeze_void_content
   1  0.814  0.015  0.072        27         7 ' '
   2  0.500  0.000  0.088       947       207 ' '
   3  0.185  0.014  0.428        28         7 ' '
   4  0.814 -0.015  0.572        27         7 ' '
   5  0.185 -0.015  0.928        28         7 ' '
   6  0.000  0.113  0.750        14         3 ' '
   7  0.000  0.500  0.535       947       207 ' '
   8  0.500  0.387  0.250        14         3 ' '
   9  0.315  0.485  0.572        27         7 ' '
  10  0.685  0.485  0.928        28         7 ' '
  11  0.315  0.515  0.072        27         7 ' '
  12  0.685  0.514  0.428        28         7 ' '
  13  0.500  0.613  0.750        14         3 ' '
  14  0.000  0.887  0.250        14         3 ' '
# Missing Reflections Below sin(th)/lambda = 0.25
loop_
  _platon_missing_refln_index_h
  _platon_missing_refln_index_k
  _platon_missing_refln_index_l
  _platon_missing_refln_theta
    1    1    0     1.295
   -1    1    1     1.490
    1    1    1     1.792
    3    1    1     3.113
    2    2    1     2.957
   -7    1    2     5.648
   -5    1    2     4.166
   -6    2    2     5.189
   -4    2    2     3.892
   -1    1    4     4.041
    1    1    5     5.494
_platon_squeeze_void_probe_radius                  1.20
_platon_squeeze_details
)
TITL teste4 in C2/c
CELL   25.7295   20.4448   20.9078     90.00    107.05     90.00
SPGR C2/c
# Solvent Accessible Volume =      2146
# Note: Atoms in Void as Cxxx and Qxxx all others
Q101 0.304 0.502 0.047 !       4.43 eA-3
C102 0.531 0.234 0.498 !       2.23 eA-3
Q103 0.962 0.320 0.438 !       2.06 eA-3
C104 1.000 0.172 0.751 !       1.44 eA-3
C105 0.500 0.359 0.242 !       1.32 eA-3
Q106 0.375 0.106 0.022 !       1.30 eA-3
C107 0.940 0.377 0.320 !       1.25 eA-3
Q108 0.414 0.242 0.425 !       1.24 eA-3
C109 0.454 0.112 0.866 !       1.13 eA-3
C110 0.554 0.170 0.297 !       1.12 eA-3
C111 1.000 0.219 0.749 !       1.07 eA-3
Q112 0.976 0.260 0.141 !       0.99 eA-3
Q113 0.094 0.347 0.680 !       0.98 eA-3
C114 1.000 0.313 0.241 !       0.97 eA-3
C115 0.914 0.430 0.489 !       0.97 eA-3
Q116 0.046 0.259 0.376 !       0.97 eA-3
Q117 0.528 0.232 0.944 !       0.93 eA-3
Q118 0.547 0.126 0.810 !       0.93 eA-3
Q119 0.968 0.252 0.684 !       0.93 eA-3
Q120 0.625 0.224 0.474 !       0.92 eA-3
C121 0.555 0.141 0.356 !       0.91 eA-3
Q122 0.859 0.060 0.347 !       0.90 eA-3
Q123 0.680 0.040 0.372 !       0.89 eA-3
C124 0.538 0.239 0.219 !       0.89 eA-3
Q125 0.086 0.490-0.006 !       0.85 eA-3
Q126 0.329 0.441 0.335 !       0.85 eA-3
Q127 0.664 0.092 0.378 !       0.84 eA-3
Q128 0.728 0.016 0.535 !       0.83 eA-3
Q129 0.445 0.134 0.769 !       0.83 eA-3
Q130 0.891 0.435 0.607 !       0.83 eA-3
Q131 1.001 0.274 0.722 !       0.82 eA-3
Q132 0.945 0.353 0.293 !       0.82 eA-3
C133 0.032 0.366 0.176 !       0.81 eA-3
Q134 0.532 0.166 0.786 !       0.81 eA-3
Q135 0.045 0.284 0.804 !       0.80 eA-3
Q136 0.713 0.236 0.414 !       0.80 eA-3
Q137 0.274 0.256 0.078 !       0.80 eA-3
Q138 0.492 0.213 0.406 !       0.79 eA-3
C139 0.522 0.209 0.249 !       0.77 eA-3
C140 0.978 0.291 0.751 !       0.77 eA-3
Q141 0.076 0.494 0.534 !       0.77 eA-3
C142 0.522 0.762 0.747 !       0.76 eA-3
Q143 0.084 0.342 0.833 !       0.76 eA-3
Q144 0.626 0.251 0.122 !       0.74 eA-3
Q145 0.467 0.207 0.602 !       0.74 eA-3
Q146 0.500 0.031 0.794 !       0.73 eA-3
Q147 0.539 0.200 0.721 !       0.72 eA-3
C148 0.462 0.091 0.129 !       0.71 eA-3
Q149 0.024 0.389 0.217 !       0.70 eA-3
C150 0.971 0.312 0.764 !       0.70 eA-3
Q151 0.483 0.108 0.652 !       0.70 eA-3
Q152 0.329 0.078 0.176 !       0.70 eA-3
Q153 0.648 0.046 0.337 !       0.69 eA-3
Q154 0.069 0.459 0.523 !       0.68 eA-3
Q155 0.047 0.519 0.373 !       0.68 eA-3
Q156 0.547 0.019 0.373 !       0.68 eA-3
Q157 0.829 0.284 0.582 !       0.67 eA-3
C158 0.594 0.124 0.417 !       0.67 eA-3
C159 0.031 0.349 0.193 !       0.67 eA-3
Q160 0.138 0.266 0.611 !       0.66 eA-3
C161 0.016 0.416 0.861 !       0.66 eA-3
C162 0.523 0.129 0.280 !       0.66 eA-3
C163 0.023 0.379 0.783 !       0.66 eA-3
C164 0.500 0.156 0.251 !       0.66 eA-3
Q165 0.959 0.369 0.872 !       0.66 eA-3
Q166 0.530 0.223 0.173 !       0.66 eA-3
C167 0.460 0.058 0.158 !       0.65 eA-3
Q168 0.091 0.061 0.640 !       0.65 eA-3
Q169 0.827 0.438 0.506 !       0.65 eA-3
Q170 0.162 0.478 0.822 !       0.65 eA-3
Q171 0.031 0.331 0.980 !       0.64 eA-3
Q172 0.445 0.384 0.157 !       0.64 eA-3
Q173 0.945 0.393 0.232 !       0.64 eA-3
Q174 0.445 0.078 0.695 !       0.64 eA-3
Q175 0.231 0.325 0.748 !       0.64 eA-3
Q176 0.548 0.140 0.760 !       0.64 eA-3
C177 0.016 0.393 0.732 !       0.64 eA-3
Q178 0.462 0.028 0.659 !       0.63 eA-3
C179 0.414 0.113 0.335 !       0.63 eA-3
Q180 0.378 0.319 0.096 !       0.63 eA-3
Q181 0.515 0.015 0.284 !       0.62 eA-3
Q182 0.197 0.496 0.522 !       0.62 eA-3
Q183 0.977 0.462 0.280 !       0.61 eA-3
C184 0.436 0.130 0.309 !       0.61 eA-3
Q185 0.336 0.430 0.141 !       0.61 eA-3
Q186 0.547 0.078 0.845 !       0.61 eA-3
Q187 0.562 0.101 0.139 !       0.61 eA-3
C188 0.032 0.418 0.905 !       0.60 eA-3
Q189 0.618 0.338 0.384 !       0.60 eA-3
Q190 0.500 0.016 0.756 !       0.60 eA-3
C191 0.986 0.468 0.321 !       0.60 eA-3
Q192 0.562 0.286 0.040 !       0.60 eA-3
Q193 0.046 0.279 0.627 !       0.59 eA-3
Q194 0.374 0.207 0.387 !       0.59 eA-3
Q195 0.702 0.424 0.174 !       0.59 eA-3
Q196 0.470 0.027 0.248 !       0.58 eA-3
C197 0.032 0.481 0.626 !       0.58 eA-3
Q198 0.884 0.275 0.012 !       0.58 eA-3
C199 0.500 0.125 0.748 !       0.58 eA-3
)
;
_shelx_fab_checksum              53926
loop_
_space_group_symop_operation_xyz
'x, y, z'
'-x, y, -z+1/2'
'x+1/2, y+1/2, z'
'-x+1/2, y+1/2, -z+1/2'
'-x, -y, -z'
'x, -y, z-1/2'
'-x+1/2, -y+1/2, -z'
'x+1/2, -y+1/2, z-1/2'
loop_
_atom_site_label
_atom_site_type_symbol
_atom_site_fract_x
_atom_site_fract_y
_atom_site_fract_z
_atom_site_U_iso_or_equiv
_atom_site_adp_type
_atom_site_occupancy
_atom_site_site_symmetry_order
_atom_site_calc_flag
_atom_site_refinement_flags_posn
_atom_site_refinement_flags_adp
_atom_site_refinement_flags_occupancy
Cu3 Cu 0.26606(3) 0.30884(3) 0.75952(3) 0.0367(2) Uani 1 1 d . . .
Cu2 Cu 0.31868(2) 0.43275(3) 0.82697(3) 0.02914(18) Uani 1 1 d . . .
Cu1 Cu 0.36963(3) 0.55960(3) 0.84853(3) 0.03228(19) Uani 1 1 d . . .
O5 O 0.30467(15) 0.63755(18) 0.98045(17) 0.0398(9) Uani 1 1 d . . .
Ca2 Ca 0.20875(4) 0.33408(5) 0.46641(5) 0.0320(3) Uani 1 1 d . . .
Ca1 Ca 0.34595(5) 0.32389(6) 1.08788(5) 0.0393(3) Uani 1 1 d . . .
O14 O 0.3536(3) 0.1877(3) 0.8952(3) 0.103(2) Uani 1 1 d . . .
O15 O 0.2843(2) 0.2410(2) 0.8281(2) 0.0564(12) Uani 1 1 d . . .
O6 O 0.36420(14) 0.59937(19) 0.93148(17) 0.0372(9) Uani 1 1 d . . .
N6 N 0.24458(18) 0.3773(2) 0.6878(2) 0.0319(10) Uani 1 1 d . . .
O7 O 0.22343(18) 0.38773(18) 0.57288(18) 0.0475(10) Uani 1 1 d . . .
O4 O 0.22264(15) 0.5911(2) 0.88057(19) 0.0438(10) Uani 1 1 d . . .
O8 O 0.25657(15) 0.26615(18) 0.56436(17) 0.0374(9) Uani 1 1 d . . .
O9 O 0.2654(2) 0.24915(19) 0.67230(19) 0.0520(11) Uani 1 1 d . . .
O5W O 0.1423(2) 0.3097(3) 0.3510(3) 0.0772(15) Uani 1 1 d . . .
H5A H 0.1049 0.3182 0.3524 0.116 Uiso 1 1 d R U .
H5B H 0.1518 0.2956 0.3101 0.116 Uiso 1 1 d R U .
N3 N 0.37583(16) 0.4269(2) 0.9107(2) 0.0281(9) Uani 1 1 d . . .
N8 N 0.37728(18) 0.5366(2) 0.7595(2) 0.0310(10) Uani 1 1 d . . .
O12 O 0.37445(18) 0.65588(19) 0.80754(18) 0.0486(10) Uani 1 1 d . . .
O10 O 0.3764(2) 0.58237(19) 0.6581(2) 0.0545(12) Uani 1 1 d . . .
N2 N 0.4928(2) 0.5888(3) 0.8799(3) 0.0566(14) Uani 1 1 d . . .
H1N H 0.4644 0.6122 0.8622 0.068 Uiso 1 1 calc R U .
H2N H 0.5246 0.6042 0.8834 0.068 Uiso 1 1 calc R U .
O11 O 0.35729(17) 0.69944(18) 0.70517(18) 0.0448(10) Uani 1 1 d . . .
O1 O 0.38895(15) 0.3802(2) 1.01615(18) 0.0441(10) Uani 1 1 d . . .
O2 O 0.28420(16) 0.3467(2) 0.9774(2) 0.0566(12) Uani 1 1 d . . .
O3 O 0.27293(14) 0.3965(2) 0.87894(18) 0.0417(9) Uani 1 1 d . . .
N9 N 0.34693(19) 0.3189(2) 0.7864(2) 0.0377(11) Uani 1 1 d . . .
N7 N 0.36645(17) 0.4250(2) 0.7686(2) 0.0295(9) Uani 1 1 d . . .
N5 N 0.28591(17) 0.5535(2) 0.8293(2) 0.0320(10) Uani 1 1 d . . .
N4 N 0.25714(16) 0.4686(2) 0.75561(19) 0.0270(9) Uani 1 1 d . . .
C15 C 0.2388(2) 0.3557(3) 0.6259(2) 0.0335(12) Uani 1 1 d . . .
N1 N 0.43631(16) 0.5054(2) 0.8957(2) 0.0328(10) Uani 1 1 d . . .
C6 C 0.3614(2) 0.3966(3) 0.9583(2) 0.0328(12) Uani 1 1 d . . .
O3W O 0.2619(2) 0.3551(4) 1.1044(3) 0.124(3) Uani 1 1 d . . .
H3A H 0.2428 0.3860 1.0796 0.186 Uiso 1 1 d R U .
H3B H 0.2419 0.3356 1.1227 0.186 Uiso 1 1 d R U .
O7W O 0.18867(18) 0.3049(2) 0.7575(2) 0.0594(12) Uani 1 1 d . . .
H7B H 0.1637 0.3188 0.7137 0.089 Uiso 1 1 d R U .
H7A H 0.1752 0.2834 0.7922 0.089 Uiso 1 1 d R U .
C24 C 0.3736(3) 0.2713(3) 0.8257(3) 0.0552(17) Uani 1 1 d . . .
O13 O 0.4218(2) 0.2589(3) 0.8427(3) 0.099(2) Uani 1 1 d . . .
C25 C 0.3350(3) 0.2292(3) 0.8525(3) 0.0590(18) Uani 1 1 d . . .
C21 C 0.3764(2) 0.3617(3) 0.7579(3) 0.0365(12) Uani 1 1 d . . .
C13 C 0.2701(2) 0.5828(2) 0.8778(3) 0.0302(11) Uani 1 1 d . . .
C8 C 0.2482(2) 0.5301(3) 0.7713(2) 0.0306(11) Uani 1 1 d . . .
C12 C 0.2281(2) 0.4413(2) 0.6980(3) 0.0304(11) Uani 1 1 d . . .
C14 C 0.3163(2) 0.6085(2) 0.9344(2) 0.0305(11) Uani 1 1 d . . .
C16 C 0.2551(2) 0.2843(3) 0.6212(3) 0.0346(12) Uani 1 1 d . . .
O6W O 0.1339(2) 0.4101(3) 0.4516(3) 0.0897(18) Uani 1 1 d . . .
H6A H 0.1125 0.3998 0.4831 0.135 Uiso 1 1 d R U .
H6B H 0.1090 0.4077 0.4047 0.135 Uiso 1 1 d R U .
C5 C 0.4303(2) 0.4441(2) 0.9186(2) 0.0295(11) Uani 1 1 d . . .
C4 C 0.4736(2) 0.4033(3) 0.9450(3) 0.0385(13) Uani 1 1 d . . .
H3 H 0.4682 0.3610 0.9581 0.046 Uiso 1 1 calc R U .
C3 C 0.5249(2) 0.4262(3) 0.9516(3) 0.0413(14) Uani 1 1 d . . .
H2 H 0.5549 0.3998 0.9708 0.050 Uiso 1 1 calc R U .
C2 C 0.5323(2) 0.4873(3) 0.9302(3) 0.0419(14) Uani 1 1 d . . .
H1 H 0.5672 0.5026 0.9340 0.050 Uiso 1 1 calc R U .
C1 C 0.4873(2) 0.5267(3) 0.9026(3) 0.0366(13) Uani 1 1 d . . .
C11 C 0.1862(2) 0.4750(3) 0.6553(3) 0.0474(15) Uani 1 1 d . . .
H9 H 0.1658 0.4560 0.6154 0.057 Uiso 1 1 calc R U .
C10 C 0.1746(3) 0.5373(3) 0.6719(3) 0.0562(18) Uani 1 1 d . . .
H8 H 0.1453 0.5598 0.6437 0.067 Uiso 1 1 calc R U .
C9 C 0.2059(3) 0.5670(3) 0.7300(3) 0.0509(17) Uani 1 1 d . . .
H7 H 0.1990 0.6095 0.7410 0.061 Uiso 1 1 calc R U .
C22 C 0.3743(2) 0.5848(3) 0.7170(3) 0.0362(12) Uani 1 1 d . . .
C23 C 0.3677(2) 0.6527(3) 0.7457(3) 0.0385(13) Uani 1 1 d . . .
C17 C 0.3896(2) 0.4732(2) 0.7422(3) 0.0340(12) Uani 1 1 d . . .
C18 C 0.4254(2) 0.4582(3) 0.7060(3) 0.0467(15) Uani 1 1 d . . .
H4 H 0.4425 0.4911 0.6889 0.056 Uiso 1 1 calc R U .
C19 C 0.4349(3) 0.3939(3) 0.6960(3) 0.0598(19) Uani 1 1 d . . .
H5 H 0.4586 0.3828 0.6716 0.072 Uiso 1 1 calc R U .
C20 C 0.4097(3) 0.3447(3) 0.7217(3) 0.0553(17) Uani 1 1 d . . .
H6 H 0.4157 0.3010 0.7141 0.083 Uiso 1 1 calc R U .
C7 C 0.3011(2) 0.3782(3) 0.9364(3) 0.0390(13) Uani 1 1 d . . .
O1W O 0.4349(3) 0.2796(3) 1.1193(4) 0.113(2) Uani 1 1 d . . .
H1A H 0.4279 0.2323 1.1099 0.169 Uiso 1 1 d R U .
H1B H 0.4518 0.2806 1.1685 0.169 Uiso 1 1 d R U .
O4W O 0.14000(18) 0.2571(2) 0.4859(3) 0.0673(14) Uani 1 1 d . . .
H4A H 0.1560 0.2123 0.4880 0.101 Uiso 1 1 d R U .
H4B H 0.1328 0.2683 0.5274 0.101 Uiso 1 1 d R U .
O8W O 0.1215(4) 0.2717(4) 0.6186(4) 0.072(2) Uani 0.6 1 d . . P
H8A H 0.1304 0.2232 0.6194 0.108 Uiso 0.6 1 d R U P
H8B H 0.0875 0.2967 0.6052 0.108 Uiso 0.6 1 d R U P
O2W O 0.3138(4) 0.2178(3) 1.0684(5) 0.193(5) Uani 1 1 d . . .
H2A H 0.2927 0.2164 1.0204 0.290 Uiso 1 1 d R U .
H2B H 0.2924 0.1921 1.0923 0.290 Uiso 1 1 d R U .
O10W O 0.0376(4) 0.2556(7) 0.3889(7) 0.082(4) Uani 0.4 1 d . . P
H10A H 0.0597 0.2376 0.4326 0.123 Uiso 0.4 1 d R U P
H10B H -0.0011 0.2547 0.3870 0.123 Uiso 0.4 1 d R U P
O12W O 0.2005(7) 0.4639(7) 0.0068(10) 0.119(7) Uani 0.4 1 d . . P
H12A H 0.2155 0.4437 -0.0172 0.178 Uiso 0.4 1 d R U P
H12B H 0.1805 0.4937 -0.0150 0.178 Uiso 0.4 1 d R U P
O11W O 0.1599(7) 0.5648(13) 0.3459(12) 0.127(10) Uani 0.3 1 d . . P
H11A H 0.1971 0.5746 0.3467 0.190 Uiso 0.3 1 d R U P
H11B H 0.1318 0.5393 0.3283 0.190 Uiso 0.3 1 d R U P
O9W O 0.0586(9) 0.3927(16) 0.5196(17) 0.168(13) Uani 0.3 1 d . . P
H9A H 0.0409 0.4270 0.5393 0.252 Uiso 0.3 1 d R U P
H9B H 0.0402 0.3529 0.4962 0.252 Uiso 0.3 1 d R U P
O13W O 0.1006(13) 0.4483(17) 0.3101(12) 0.20(2) Uani 0.3 1 d . . P
H13A H 0.0853 0.4634 0.2631 0.303 Uiso 0.3 1 d R U P
H13B H 0.1349 0.4249 0.3147 0.303 Uiso 0.3 1 d R U P
loop_
_atom_site_aniso_label
_atom_site_aniso_U_11
_atom_site_aniso_U_22
_atom_site_aniso_U_33
_atom_site_aniso_U_23
_atom_site_aniso_U_13
_atom_site_aniso_U_12
Cu3 0.0590(4) 0.0314(4) 0.0225(4) 0.0007(3) 0.0162(3) -0.0055(3)
Cu2 0.0362(3) 0.0349(4) 0.0182(3) 0.0006(2) 0.0109(3) 0.0000(3)
Cu1 0.0421(4) 0.0362(4) 0.0208(3) -0.0049(3) 0.0127(3) 0.0017(3)
O5 0.055(2) 0.041(2) 0.025(2) -0.0149(16) 0.0144(17) 0.0021(18)
Ca2 0.0478(6) 0.0305(6) 0.0214(5) 0.0015(4) 0.0160(5) -0.0006(5)
Ca1 0.0529(7) 0.0437(7) 0.0235(6) 0.0007(5) 0.0148(5) -0.0154(5)
O14 0.112(5) 0.086(4) 0.095(5) 0.062(4) 0.004(4) -0.011(3)
O15 0.087(3) 0.046(3) 0.038(3) 0.0115(19) 0.020(2) -0.017(2)
O6 0.039(2) 0.049(2) 0.0238(19) -0.0089(16) 0.0090(16) 0.0008(17)
N6 0.049(3) 0.024(2) 0.024(2) -0.0048(18) 0.0140(19) -0.0026(19)
O7 0.090(3) 0.034(2) 0.019(2) 0.0002(16) 0.0153(19) 0.006(2)
O4 0.041(2) 0.058(3) 0.035(2) -0.0208(19) 0.0139(17) 0.0010(18)
O8 0.060(2) 0.037(2) 0.0183(19) -0.0036(15) 0.0159(17) 0.0031(17)
O9 0.104(3) 0.032(2) 0.024(2) -0.0001(17) 0.025(2) 0.006(2)
O5W 0.080(3) 0.084(4) 0.063(3) -0.014(3) 0.013(3) -0.008(3)
N3 0.033(2) 0.033(2) 0.020(2) 0.0026(17) 0.0114(17) -0.0027(17)
N8 0.054(3) 0.022(2) 0.021(2) 0.0024(17) 0.0192(19) -0.0005(19)
O12 0.092(3) 0.035(2) 0.022(2) -0.0056(16) 0.022(2) -0.005(2)
O10 0.107(4) 0.035(2) 0.032(2) 0.0015(18) 0.036(2) 0.016(2)
N2 0.051(3) 0.056(3) 0.061(4) 0.015(3) 0.014(3) -0.019(3)
O11 0.078(3) 0.032(2) 0.027(2) 0.0023(17) 0.0195(19) 0.0102(19)
O1 0.044(2) 0.059(3) 0.027(2) 0.0158(18) 0.0065(17) -0.0088(18)
O2 0.048(2) 0.090(4) 0.032(2) 0.013(2) 0.0114(18) -0.026(2)
O3 0.039(2) 0.061(3) 0.025(2) 0.0051(18) 0.0094(16) -0.0086(18)
N9 0.058(3) 0.026(2) 0.032(3) 0.0023(19) 0.018(2) -0.002(2)
N7 0.043(2) 0.027(2) 0.022(2) 0.0011(17) 0.0150(18) 0.0002(18)
N5 0.040(2) 0.032(2) 0.025(2) -0.0084(18) 0.0111(19) 0.0029(18)
N4 0.040(2) 0.026(2) 0.016(2) -0.0034(16) 0.0103(17) 0.0000(17)
C15 0.051(3) 0.030(3) 0.022(3) -0.001(2) 0.014(2) 0.000(2)
N1 0.037(2) 0.040(3) 0.026(2) -0.0032(19) 0.0157(18) -0.0052(19)
C6 0.039(3) 0.037(3) 0.022(3) 0.000(2) 0.008(2) -0.004(2)
O3W 0.087(4) 0.216(8) 0.088(5) 0.062(5) 0.056(4) 0.040(5)
O7W 0.064(3) 0.053(3) 0.064(3) 0.021(2) 0.024(2) -0.003(2)
C24 0.071(5) 0.043(4) 0.049(4) 0.011(3) 0.015(3) 0.009(3)
O13 0.069(4) 0.092(4) 0.133(6) 0.066(4) 0.027(3) 0.022(3)
C25 0.077(5) 0.044(4) 0.048(4) 0.017(3) 0.007(4) -0.010(3)
C21 0.053(3) 0.026(3) 0.035(3) -0.001(2) 0.021(3) -0.003(2)
C13 0.038(3) 0.028(3) 0.028(3) -0.002(2) 0.014(2) 0.003(2)
C8 0.040(3) 0.033(3) 0.022(3) -0.009(2) 0.014(2) 0.003(2)
C12 0.039(3) 0.027(3) 0.026(3) -0.001(2) 0.012(2) 0.001(2)
C14 0.040(3) 0.028(3) 0.025(3) 0.001(2) 0.012(2) 0.004(2)
C16 0.052(3) 0.032(3) 0.022(3) -0.003(2) 0.013(2) -0.008(2)
O6W 0.091(4) 0.107(5) 0.075(4) 0.012(3) 0.031(3) 0.042(3)
C5 0.036(3) 0.034(3) 0.020(3) 0.001(2) 0.011(2) -0.002(2)
C4 0.045(3) 0.042(3) 0.030(3) 0.002(2) 0.014(2) 0.005(3)
C3 0.038(3) 0.055(4) 0.030(3) -0.004(3) 0.007(2) 0.005(3)
C2 0.039(3) 0.060(4) 0.027(3) -0.009(3) 0.010(2) -0.009(3)
C1 0.040(3) 0.048(4) 0.026(3) -0.004(2) 0.016(2) -0.012(2)
C11 0.060(4) 0.048(4) 0.026(3) -0.013(3) -0.001(3) 0.006(3)
C10 0.062(4) 0.057(4) 0.036(4) -0.011(3) -0.008(3) 0.017(3)
C9 0.060(4) 0.043(4) 0.039(4) -0.015(3) -0.001(3) 0.018(3)
C22 0.054(3) 0.037(3) 0.021(3) -0.003(2) 0.015(2) 0.003(2)
C23 0.059(3) 0.030(3) 0.033(3) -0.003(2) 0.024(3) -0.002(3)
C17 0.053(3) 0.028(3) 0.025(3) 0.001(2) 0.017(2) -0.002(2)
C18 0.064(4) 0.037(3) 0.055(4) 0.003(3) 0.041(3) 0.002(3)
C19 0.092(5) 0.046(4) 0.063(5) -0.001(3) 0.057(4) 0.015(3)
C20 0.088(5) 0.030(3) 0.067(5) -0.001(3) 0.051(4) 0.008(3)
C7 0.048(3) 0.053(4) 0.019(3) 0.004(2) 0.013(2) -0.011(3)
O1W 0.106(5) 0.118(6) 0.127(6) 0.054(5) 0.055(4) 0.036(4)
O4W 0.058(3) 0.060(3) 0.090(4) 0.025(3) 0.031(3) 0.004(2)
O8W 0.107(6) 0.053(5) 0.067(6) 0.034(4) 0.040(5) 0.017(4)
O2W 0.168(8) 0.075(5) 0.243(10) 0.030(6) -0.086(7) -0.076(5)
O10W 0.014(5) 0.097(10) 0.120(12) -0.007(8) -0.006(6) 0.007(5)
O12W 0.149(14) 0.047(8) 0.202(19) 0.027(10) 0.118(14) 0.053(9)
O11W 0.051(10) 0.22(3) 0.127(19) -0.062(18) 0.059(12) -0.056(13)
O9W 0.078(15) 0.23(3) 0.24(3) -0.06(3) 0.11(2) -0.017(17)
O13W 0.27(4) 0.28(4) 0.077(16) 0.11(2) 0.09(2) 0.22(3)
loop_
_atom_type_symbol
_atom_type_description
_atom_type_scat_dispersion_real
_atom_type_scat_dispersion_imag
_atom_type_scat_source
C C 0.0033 0.0016 'International Tables Vol C Tables 4.2.6.8 and 6.1.1.4'
H H 0.0000 0.0000 'International Tables Vol C Tables 4.2.6.8 and 6.1.1.4'
N N 0.0061 0.0033 'International Tables Vol C Tables 4.2.6.8 and 6.1.1.4'
O O 0.0106 0.0060 'International Tables Vol C Tables 4.2.6.8 and 6.1.1.4'
Ca Ca 0.2262 0.3064 'International Tables Vol C Tables 4.2.6.8 and 6.1.1.4'
Cu Cu 0.3201 1.2651 'International Tables Vol C Tables 4.2.6.8 and 6.1.1.4'
loop_
_geom_angle_atom_site_label_1
_geom_angle_atom_site_label_2
_geom_angle_atom_site_label_3
_geom_angle
_geom_angle_site_symmetry_1
_geom_angle_site_symmetry_3
O15 Cu3 O7W 90.55(19) . .
O15 Cu3 N9 82.00(19) . .
O7W Cu3 N9 165.09(19) . .
O15 Cu3 N6 177.91(19) . .
O7W Cu3 N6 87.58(18) . .
N9 Cu3 N6 100.03(18) . .
O15 Cu3 O9 99.04(17) . .
O7W Cu3 O9 101.37(19) . .
N9 Cu3 O9 92.57(18) . .
N6 Cu3 O9 80.43(15) . .
O15 Cu3 Cu2 105.98(13) . .
O7W Cu3 Cu2 110.77(14) . .
N9 Cu3 Cu2 59.70(13) . .
N6 Cu3 Cu2 75.58(12) . .
O9 Cu3 Cu2 138.52(12) . .
N3 Cu2 O3 84.03(15) . .
N3 Cu2 N4 159.73(17) . .
O3 Cu2 N4 94.61(16) . .
N3 Cu2 N7 96.23(17) . .
O3 Cu2 N7 153.22(17) . .
N4 Cu2 N7 93.98(16) . .
N3 Cu2 Cu1 73.95(12) . .
O3 Cu2 Cu1 124.85(12) . .
N4 Cu2 Cu1 90.63(12) . .
N7 Cu2 Cu1 80.33(12) . .
N3 Cu2 Cu3 119.28(12) . .
O3 Cu2 Cu3 71.51(12) . .
N4 Cu2 Cu3 78.94(12) . .
N7 Cu2 Cu3 85.36(12) . .
Cu1 Cu2 Cu3 161.67(3) . .
O6 Cu1 N8 169.12(17) . .
O6 Cu1 N1 93.75(16) . .
N8 Cu1 N1 91.39(17) . .
O6 Cu1 N5 81.78(15) . .
N8 Cu1 N5 100.75(17) . .
N1 Cu1 N5 137.70(17) . .
O6 Cu1 O12 90.02(15) . .
N8 Cu1 O12 79.14(15) . .
N1 Cu1 O12 123.24(17) . .
N5 Cu1 O12 98.90(17) . .
O6 Cu1 Cu2 111.41(11) . .
N8 Cu1 Cu2 78.77(12) . .
N1 Cu1 Cu2 82.32(12) . .
N5 Cu1 Cu2 61.10(12) . .
O12 Cu1 Cu2 146.38(11) . .
C14 O5 Ca2 118.7(3) . 6_566
O8 Ca2 O7 131.85(13) 7_556 .
O8 Ca2 O6W 149.16(19) 7_556 .
O7 Ca2 O6W 74.29(18) . .
O8 Ca2 O4 100.97(13) 7_556 6_565
O7 Ca2 O4 111.93(14) . 6_565
O6W Ca2 O4 77.78(17) . 6_565
O8 Ca2 O5 78.16(13) 7_556 6_565
O7 Ca2 O5 84.42(14) . 6_565
O6W Ca2 O5 126.45(19) . 6_565
O4 Ca2 O5 65.60(12) 6_565 6_565
O8 Ca2 O8 67.02(13) 7_556 .
O7 Ca2 O8 65.60(12) . .
O6W Ca2 O8 130.35(16) . .
O4 Ca2 O8 143.73(13) 6_565 .
O5 Ca2 O8 78.28(12) 6_565 .
O8 Ca2 O4W 80.89(15) 7_556 .
O7 Ca2 O4W 93.61(17) . .
O6W Ca2 O4W 81.39(19) . .
O4 Ca2 O4W 140.73(15) 6_565 .
O5 Ca2 O4W 149.67(14) 6_565 .
O8 Ca2 O4W 73.45(14) . .
O8 Ca2 O5W 77.24(15) 7_556 .
O7 Ca2 O5W 146.97(17) . .
O6W Ca2 O5W 73.68(19) . .
O4 Ca2 O5W 68.54(15) 6_565 .
O5 Ca2 O5W 121.69(15) 6_565 .
O8 Ca2 O5W 134.44(16) . .
O4W Ca2 O5W 73.82(17) . .
O2W Ca1 O3W 89.0(4) . .
O2W Ca1 O1W 87.5(3) . .
O3W Ca1 O1W 155.5(2) . .
O2W Ca1 O10 153.0(3) . 6_566
O3W Ca1 O10 81.1(2) . 6_566
O1W Ca1 O10 91.2(2) . 6_566
O2W Ca1 O1 123.1(3) . .
O3W Ca1 O1 124.6(2) . .
O1W Ca1 O1 76.81(18) . .
O10 Ca1 O1 82.63(14) 6_566 .
O2W Ca1 O11 85.7(3) . 6_566
O3W Ca1 O11 75.59(18) . 6_566
O1W Ca1 O11 79.9(2) . 6_566
O10 Ca1 O11 67.58(13) 6_566 6_566
O1 Ca1 O11 141.52(14) . 6_566
O2W Ca1 O2 85.0(2) . .
O3W Ca1 O2 73.60(18) . .
O1W Ca1 O2 130.2(2) . .
O10 Ca1 O2 115.59(16) 6_566 .
O1 Ca1 O2 66.88(12) . .
O11 Ca1 O2 147.90(15) 6_566 .
O2W Ca1 H1A 67.0 . .
O3W Ca1 H1A 147.4 . .
O1W Ca1 H1A 20.6 . .
O10 Ca1 H1A 110.1 6_566 .
O1 Ca1 H1A 87.7 . .
O11 Ca1 H1A 80.7 6_566 .
O2 Ca1 H1A 122.9 . .
O2W Ca1 H2A 20.3 . .
O3W Ca1 H2A 87.2 . .
O1W Ca1 H2A 97.6 . .
O10 Ca1 H2A 167.3 6_566 .
O1 Ca1 H2A 108.3 . .
O11 Ca1 H2A 104.8 6_566 .
O2 Ca1 H2A 65.0 . .
H1A Ca1 H2A 77.6 . .
C25 O15 Cu3 115.1(4) . .
C14 O6 Cu1 115.3(3) . .
C15 N6 C12 120.0(4) . .
C15 N6 Cu3 114.9(3) . .
C12 N6 Cu3 124.4(3) . .
C15 O7 Ca2 120.4(3) . .
C13 O4 Ca2 118.0(3) . 6_566
C16 O8 Ca2 128.5(3) . 7_556
C16 O8 Ca2 118.1(3) . .
Ca2 O8 Ca2 112.98(13) 7_556 .
C16 O9 Cu3 109.8(3) . .
Ca2 O5W H5A 109.0 . .
Ca2 O5W H5B 126.9 . .
H5A O5W H5B 124.0 . .
C6 N3 C5 121.4(4) . .
C6 N3 Cu2 114.0(3) . .
C5 N3 Cu2 124.0(3) . .
C22 N8 C17 119.3(4) . .
C22 N8 Cu1 117.0(3) . .
C17 N8 Cu1 123.5(3) . .
C23 O12 Cu1 110.7(3) . .
C22 O10 Ca1 118.1(3) . 6_565
C1 N2 H1N 120.0 . .
C1 N2 H2N 120.0 . .
H1N N2 H2N 120.0 . .
C23 O11 Ca1 118.1(3) . 6_565
C6 O1 Ca1 119.8(3) . .
C7 O2 Ca1 119.2(3) . .
C7 O3 Cu2 111.5(3) . .
C24 N9 C21 118.3(5) . .
C24 N9 Cu3 113.9(4) . .
C21 N9 Cu3 126.4(4) . .
C21 N7 C17 120.2(4) . .
C21 N7 Cu2 111.2(3) . .
C17 N7 Cu2 128.5(3) . .
C13 N5 C8 121.5(4) . .
C13 N5 Cu1 110.8(3) . .
C8 N5 Cu1 127.3(3) . .
C12 N4 C8 121.6(4) . .
C12 N4 Cu2 129.6(3) . .
C8 N4 Cu2 108.7(3) . .
O7 C15 N6 127.2(5) . .
O7 C15 C16 117.7(4) . .
N6 C15 C16 115.1(4) . .
C1 N1 C5 117.6(4) . .
C1 N1 Cu1 122.1(4) . .
C5 N1 Cu1 120.2(3) . .
O1 C6 N3 130.6(5) . .
O1 C6 C7 117.3(4) . .
N3 C6 C7 112.1(4) . .
Ca1 O3W H3A 119.1 . .
Ca1 O3W H3B 130.9 . .
H3A O3W H3B 107.8 . .
Cu3 O7W H7B 112.5 . .
Cu3 O7W H7A 124.4 . .
H7B O7W H7A 122.1 . .
O13 C24 N9 129.4(7) . .
O13 C24 C25 119.4(6) . .
N9 C24 C25 111.3(6) . .
O14 C25 O15 123.8(7) . .
O14 C25 C24 119.9(7) . .
O15 C25 C24 116.3(5) . .
N7 C21 C20 121.6(5) . .
N7 C21 N9 112.0(4) . .
C20 C21 N9 126.4(5) . .
O4 C13 N5 127.8(5) . .
O4 C13 C14 118.3(4) . .
N5 C13 C14 113.9(4) . .
N4 C8 C9 120.9(5) . .
N4 C8 N5 114.2(4) . .
C9 C8 N5 124.8(5) . .
N4 C12 C11 120.1(5) . .
N4 C12 N6 114.2(4) . .
C11 C12 N6 125.7(5) . .
O5 C14 O6 124.5(5) . .
O5 C14 C13 117.5(4) . .
O6 C14 C13 117.9(4) . .
O9 C16 O8 125.6(5) . .
O9 C16 C15 119.1(5) . .
O8 C16 C15 115.3(4) . .
Ca2 O6W H6A 110.6 . .
Ca2 O6W H6B 110.4 . .
H6A O6W H6B 108.4 . .
C4 C5 N1 122.6(5) . .
C4 C5 N3 123.9(5) . .
N1 C5 N3 113.5(4) . .
C5 C4 C3 118.5(5) . .
C5 C4 H3 120.7 . .
C3 C4 H3 120.7 . .
C2 C3 C4 120.3(5) . .
C2 C3 H2 119.8 . .
C4 C3 H2 119.8 . .
C3 C2 C1 119.3(5) . .
C3 C2 H1 120.4 . .
C1 C2 H1 120.4 . .
N1 C1 N2 117.1(5) . .
N1 C1 C2 121.6(5) . .
N2 C1 C2 121.3(5) . .
C10 C11 C12 119.4(5) . .
C10 C11 H9 120.3 . .
C12 C11 H9 120.3 . .
C11 C10 C9 120.9(6) . .
C11 C10 H8 119.6 . .
C9 C10 H8 119.6 . .
C8 C9 C10 117.0(5) . .
C8 C9 H7 121.5 . .
C10 C9 H7 121.5 . .
O10 C22 N8 128.8(5) . .
O10 C22 C23 117.4(5) . .
N8 C22 C23 113.8(4) . .
N8 C22 Ca1 165.0(4) . 6_565
C23 C22 Ca1 77.1(3) . 6_565
O11 C23 O12 126.5(5) . .
O11 C23 C22 116.8(5) . .
O12 C23 C22 116.7(5) . .
O12 C23 Ca1 168.3(4) . 6_565
C22 C23 Ca1 75.0(3) . 6_565
N7 C17 C18 120.3(5) . .
N7 C17 N8 114.0(4) . .
C18 C17 N8 125.5(5) . .
C19 C18 C17 118.3(5) . .
C19 C18 H4 120.9 . .
C17 C18 H4 120.9 . .
C18 C19 C20 121.0(5) . .
C18 C19 H5 119.5 . .
C20 C19 H5 119.5 . .
C21 C20 C19 118.6(5) . .
C21 C20 H6 120.7 . .
C19 C20 H6 120.7 . .
O2 C7 O3 125.9(5) . .
O2 C7 C6 116.7(5) . .
O3 C7 C6 117.4(4) . .
Ca1 O1W H1A 102.2 . .
Ca1 O1W H1B 111.8 . .
H1A O1W H1B 102.9 . .
Ca2 O4W H4A 106.5 . .
Ca2 O4W H4B 109.2 . .
H4A O4W H4B 111.3 . .
H8A O8W H8B 133.5 . .
Ca1 O2W H2A 105.5 . .
Ca1 O2W H2B 129.0 . .
H2A O2W H2B 105.8 . .
H10A O10W H10B 109.3 . .
H12A O12W H12B 110.7 . .
H11A O11W H11B 144.4 . .
H9A O9W H9B 124.9 . .
H13A O13W H13B 109.4 . .
loop_
_geom_bond_atom_site_label_1
_geom_bond_atom_site_label_2
_geom_bond_distance
_geom_bond_site_symmetry_2
Cu3 O15 1.951(4) .
Cu3 O7W 1.981(4) .
Cu3 N9 2.001(5) .
Cu3 N6 2.006(4) .
Cu3 O9 2.190(4) .
Cu3 Cu2 3.0199(9) .
Cu2 N3 1.931(4) .
Cu2 O3 1.966(4) .
Cu2 N4 1.971(4) .
Cu2 N7 1.976(4) .
Cu2 Cu1 2.8812(9) .
Cu1 O6 1.957(3) .
Cu1 N8 1.986(4) .
Cu1 N1 2.037(4) .
Cu1 N5 2.076(4) .
Cu1 O12 2.165(4) .
O5 C14 1.241(6) .
O5 Ca2 2.467(4) 6_566
Ca2 O8 2.397(4) 7_556
Ca2 O7 2.410(4) .
Ca2 O6W 2.423(5) .
Ca2 O4 2.463(4) 6_565
Ca2 O5 2.467(4) 6_565
Ca2 O8 2.482(4) .
Ca2 O4W 2.489(5) .
Ca2 O5W 2.563(5) .
Ca1 O2W 2.314(6) .
Ca1 O3W 2.375(6) .
Ca1 O1W 2.369(6) .
Ca1 O10 2.402(4) 6_566
Ca1 O1 2.402(4) .
Ca1 O11 2.430(4) 6_566
Ca1 O2 2.435(4) .
Ca1 H1A 2.7561 .
Ca1 H2A 2.7508 .
O14 C25 1.223(8) .
O15 C25 1.278(8) .
O6 C14 1.265(6) .
N6 C15 1.334(6) .
N6 C12 1.409(6) .
O7 C15 1.248(6) .
O4 C13 1.250(6) .
O4 Ca2 2.463(4) 6_566
O8 C16 1.257(6) .
O8 Ca2 2.397(4) 7_556
O9 C16 1.249(6) .
O5W H5A 0.9877 .
O5W H5B 0.9988 .
N3 C6 1.314(6) .
N3 C5 1.408(6) .
N8 C22 1.314(7) .
N8 C17 1.405(6) .
O12 C23 1.256(6) .
O10 C22 1.249(6) .
O10 Ca1 2.402(4) 6_565
N2 C1 1.378(7) .
N2 H1N 0.8600 .
N2 H2N 0.8600 .
O11 C23 1.253(6) .
O11 Ca1 2.430(4) 6_565
O1 C6 1.255(6) .
O2 C7 1.246(6) .
O3 C7 1.265(6) .
N9 C24 1.328(8) .
N9 C21 1.401(7) .
N7 C21 1.351(6) .
N7 C17 1.351(6) .
N5 C13 1.341(6) .
N5 C8 1.395(6) .
N4 C12 1.339(6) .
N4 C8 1.336(6) .
C15 C16 1.531(7) .
N1 C1 1.349(6) .
N1 C5 1.367(6) .
C6 C7 1.530(7) .
O3W H3A 0.8708 .
O3W H3B 0.8285 .
O7W H7B 0.9935 .
O7W H7A 0.9929 .
C24 O13 1.212(8) .
C24 C25 1.539(10) .
C21 C20 1.343(8) .
C13 C14 1.504(7) .
C8 C9 1.396(8) .
C12 C11 1.368(7) .
O6W H6A 0.9971 .
O6W H6B 1.0037 .
C5 C4 1.372(7) .
C4 C3 1.370(8) .
C4 H3 0.9300 .
C3 C2 1.360(8) .
C3 H2 0.9300 .
C2 C1 1.390(8) .
C2 H1 0.9300 .
C11 C10 1.375(8) .
C11 H9 0.9300 .
C10 C9 1.386(8) .
C10 H8 0.9300 .
C9 H7 0.9300 .
C22 C23 1.542(7) .
C22 Ca1 3.186(5) 6_565
C23 Ca1 3.216(6) 6_565
C17 C18 1.388(7) .
C18 C19 1.364(8) .
C18 H4 0.9300 .
C19 C20 1.386(9) .
C19 H5 0.9300 .
C20 H6 0.9300 .
O1W H1A 0.9930 .
O1W H1B 0.9940 .
O4W H4A 0.9992 .
O4W H4B 0.9670 .
O8W H8A 1.0167 .
O8W H8B 0.9818 .
O2W H2A 0.9919 .
O2W H2B 0.9957 .
O10W H10A 0.9932 .
O10W H10B 0.9861 .
O12W H12A 0.8286 .
O12W H12B 0.8396 .
O11W H11A 0.9740 .
O11W H11B 0.8785 .
O9W H9A 0.9899 .
O9W H9B 0.9937 .
O13W H13A 0.9944 .
O13W H13B 0.9834 .
loop_
_geom_torsion_atom_site_label_1
_geom_torsion_atom_site_label_2
_geom_torsion_atom_site_label_3
_geom_torsion_atom_site_label_4
_geom_torsion
_geom_torsion_site_symmetry_1
_geom_torsion_site_symmetry_4
Ca2 O7 C15 N6 -174.5(4) . .
Ca2 O7 C15 C16 8.2(7) . .
C12 N6 C15 O7 5.8(8) . .
Cu3 N6 C15 O7 176.6(5) . .
C12 N6 C15 C16 -176.7(4) . .
Cu3 N6 C15 C16 -6.0(6) . .
Ca1 O1 C6 N3 -179.4(5) . .
Ca1 O1 C6 C7 -1.1(6) . .
C5 N3 C6 O1 2.9(9) . .
Cu2 N3 C6 O1 174.1(5) . .
C5 N3 C6 C7 -175.5(4) . .
Cu2 N3 C6 C7 -4.3(6) . .
C21 N9 C24 O13 1.6(11) . .
Cu3 N9 C24 O13 169.0(7) . .
C21 N9 C24 C25 -179.9(5) . .
Cu3 N9 C24 C25 -12.5(7) . .
Cu3 O15 C25 O14 -179.1(7) . .
Cu3 O15 C25 C24 1.7(8) . .
O13 C24 C25 O14 6.8(12) . .
N9 C24 C25 O14 -171.9(7) . .
O13 C24 C25 O15 -173.9(7) . .
N9 C24 C25 O15 7.4(9) . .
C17 N7 C21 C20 0.8(8) . .
Cu2 N7 C21 C20 -177.3(5) . .
C17 N7 C21 N9 -177.2(5) . .
Cu2 N7 C21 N9 4.7(5) . .
C24 N9 C21 N7 -128.8(6) . .
Cu3 N9 C21 N7 65.5(6) . .
C24 N9 C21 C20 53.4(9) . .
Cu3 N9 C21 C20 -112.3(7) . .
Ca2 O4 C13 N5 -168.1(4) 6_566 .
Ca2 O4 C13 C14 11.3(6) 6_566 .
C8 N5 C13 O4 3.0(8) . .
Cu1 N5 C13 O4 176.1(5) . .
C8 N5 C13 C14 -176.3(4) . .
Cu1 N5 C13 C14 -3.3(5) . .
C12 N4 C8 C9 4.1(8) . .
Cu2 N4 C8 C9 -178.5(5) . .
C12 N4 C8 N5 -173.0(4) . .
Cu2 N4 C8 N5 4.4(5) . .
C13 N5 C8 N4 -130.5(5) . .
Cu1 N5 C8 N4 57.7(6) . .
C13 N5 C8 C9 52.6(8) . .
Cu1 N5 C8 C9 -119.2(5) . .
C8 N4 C12 C11 -3.8(8) . .
Cu2 N4 C12 C11 179.4(4) . .
C8 N4 C12 N6 177.0(4) . .
Cu2 N4 C12 N6 0.2(7) . .
C15 N6 C12 N4 -149.5(5) . .
Cu3 N6 C12 N4 40.7(6) . .
C15 N6 C12 C11 31.4(8) . .
Cu3 N6 C12 C11 -138.4(5) . .
Ca2 O5 C14 O6 169.7(4) 6_566 .
Ca2 O5 C14 C13 -9.8(6) 6_566 .
Cu1 O6 C14 O5 -174.2(4) . .
Cu1 O6 C14 C13 5.3(6) . .
O4 C13 C14 O5 -1.0(7) . .
N5 C13 C14 O5 178.4(5) . .
O4 C13 C14 O6 179.4(5) . .
N5 C13 C14 O6 -1.1(7) . .
Cu3 O9 C16 O8 173.3(4) . .
Cu3 O9 C16 C15 -7.3(6) . .
Ca2 O8 C16 O9 -10.1(8) 7_556 .
Ca2 O8 C16 O9 162.1(5) . .
Ca2 O8 C16 C15 170.5(3) 7_556 .
Ca2 O8 C16 C15 -17.4(6) . .
O7 C15 C16 O9 -172.9(5) . .
N6 C15 C16 O9 9.4(7) . .
O7 C15 C16 O8 6.6(7) . .
N6 C15 C16 O8 -171.1(5) . .
C1 N1 C5 C4 -3.0(7) . .
Cu1 N1 C5 C4 173.7(4) . .
C1 N1 C5 N3 178.5(4) . .
Cu1 N1 C5 N3 -4.7(6) . .
C6 N3 C5 C4 44.4(7) . .
Cu2 N3 C5 C4 -125.9(5) . .
C6 N3 C5 N1 -137.2(5) . .
Cu2 N3 C5 N1 52.5(5) . .
N1 C5 C4 C3 3.2(8) . .
N3 C5 C4 C3 -178.5(5) . .
C5 C4 C3 C2 -2.2(8) . .
C4 C3 C2 C1 1.1(8) . .
C5 N1 C1 N2 -179.5(5) . .
Cu1 N1 C1 N2 3.8(6) . .
C5 N1 C1 C2 1.8(7) . .
Cu1 N1 C1 C2 -174.9(4) . .
C3 C2 C1 N1 -0.9(8) . .
C3 C2 C1 N2 -179.6(5) . .
N4 C12 C11 C10 0.6(9) . .
N6 C12 C11 C10 179.7(6) . .
C12 C11 C10 C9 2.2(11) . .
N4 C8 C9 C10 -1.2(9) . .
N5 C8 C9 C10 175.6(6) . .
C11 C10 C9 C8 -1.9(11) . .
Ca1 O10 C22 N8 163.9(5) 6_565 .
Ca1 O10 C22 C23 -16.5(7) 6_565 .
C17 N8 C22 O10 6.9(9) . .
Cu1 N8 C22 O10 -177.9(5) . .
C17 N8 C22 C23 -172.6(5) . .
Cu1 N8 C22 C23 2.6(6) . .
C17 N8 C22 Ca1 52.2(17) . 6_565
Cu1 N8 C22 Ca1 -132.5(13) . 6_565
Ca1 O11 C23 O12 -179.5(5) 6_565 .
Ca1 O11 C23 C22 2.0(6) 6_565 .
Cu1 O12 C23 O11 164.5(5) . .
Cu1 O12 C23 C22 -16.9(6) . .
Cu1 O12 C23 Ca1 162.8(18) . 6_565
O10 C22 C23 O11 9.8(8) . .
N8 C22 C23 O11 -170.6(5) . .
Ca1 C22 C23 O11 -1.4(4) 6_565 .
O10 C22 C23 O12 -168.9(5) . .
N8 C22 C23 O12 10.7(7) . .
Ca1 C22 C23 O12 179.9(5) 6_565 .
O10 C22 C23 Ca1 11.2(5) . 6_565
N8 C22 C23 Ca1 -169.2(5) . 6_565
C21 N7 C17 C18 -2.5(8) . .
Cu2 N7 C17 C18 175.3(4) . .
C21 N7 C17 N8 -177.7(5) . .
Cu2 N7 C17 N8 0.0(7) . .
C22 N8 C17 N7 -148.5(5) . .
Cu1 N8 C17 N7 36.6(6) . .
C22 N8 C17 C18 36.5(8) . .
Cu1 N8 C17 C18 -138.4(5) . .
N7 C17 C18 C19 2.3(9) . .
N8 C17 C18 C19 176.9(6) . .
C17 C18 C19 C20 -0.4(11) . .
N7 C21 C20 C19 1.1(10) . .
N9 C21 C20 C19 178.7(6) . .
C18 C19 C20 C21 -1.2(11) . .
Ca1 O2 C7 O3 -175.9(5) . .
Ca1 O2 C7 C6 3.5(7) . .
Cu2 O3 C7 O2 -171.3(5) . .
Cu2 O3 C7 C6 9.2(6) . .
O1 C6 C7 O2 -1.7(8) . .
N3 C6 C7 O2 177.0(5) . .
O1 C6 C7 O3 177.8(5) . .
N3 C6 C7 O3 -3.5(7) . .
