#------------------------------------------------------------------------------
#$Date: 2019-11-17 10:51:22 +0200 (Sun, 17 Nov 2019) $
#$Revision: 229439 $
#$URL: file:///home/coder/svn-repositories/cod/cif/7/04/75/7047570.cif $
#------------------------------------------------------------------------------
#
# This file is available in the Crystallography Open Database (COD),
# http://www.crystallography.net/
#
# All data on this site have been placed in the public domain by the
# contributors.
#
data_7047570
loop_
_publ_author_name
'Feng, Dan-Dan'
'Dong, Hui-Ming'
'Liu, Zheng-Yu'
'Zhao, Xiao-Jun'
'Yang, En-Cui'
_publ_section_title
;
 Three microporous metal-organic frameworks assembled from dodecanuclear
 {NiLn} subunits: synthesis, structure, gas adsorption and magnetism.
;
_journal_issue                   43
_journal_name_full
'Dalton transactions (Cambridge, England : 2003)'
_journal_page_first              15344
_journal_page_last               15352
_journal_paper_doi               10.1039/c8dt02816h
_journal_volume                  47
_journal_year                    2018
_chemical_formula_moiety         '0.04(C672 H816 Dy48 N240 Ni24 O336)'
_chemical_formula_sum            'C28 H34 Dy2 N10 Ni O14'
_chemical_formula_weight         1118.36
_space_group_crystal_system      cubic
_space_group_IT_number           206
_space_group_name_Hall           '-I 2b 2c 3'
_space_group_name_H-M_alt        'I a -3'
_symmetry_space_group_name_Hall  '-I 2b 2c 3'
_symmetry_space_group_name_H-M   'I a -3'
_atom_sites_solution_hydrogens   mixed
_atom_sites_solution_primary     direct
_audit_creation_date             2018-08-15
_audit_creation_method
;
Olex2 1.2
(compiled 2018.05.29 svn.r3508 for OlexSys, GUI svn.r5506)
;
_audit_update_record
;
2018-09-13 deposited with the CCDC.
2018-09-17 downloaded from the CCDC.
;
_cell_angle_alpha                90
_cell_angle_beta                 90
_cell_angle_gamma                90
_cell_formula_units_Z            24
_cell_length_a                   32.1011(3)
_cell_length_b                   32.1011(3)
_cell_length_c                   32.1011(3)
_cell_measurement_reflns_used    9870
_cell_measurement_temperature    173(2)
_cell_measurement_theta_max      28.20
_cell_measurement_theta_min      2.20
_cell_volume                     33079.6(5)
_computing_cell_refinement       'Bruker SMART'
_computing_data_collection       'Bruker SMART'
_computing_data_reduction        'Bruker SAINT'
_computing_molecular_graphics    'Olex2 (Dolomanov et al., 2009)'
_computing_publication_material  'Olex2 (Dolomanov et al., 2009)'
_computing_structure_refinement  'XL (Sheldrick, 2008)'
_computing_structure_solution    'XS (Sheldrick, 2008)'
_diffrn_ambient_temperature      173.15
_diffrn_measured_fraction_theta_full 1.000
_diffrn_measured_fraction_theta_max 0.999
_diffrn_measurement_device_type  'CCD area detector'
_diffrn_measurement_method       'phi and omega scans'
_diffrn_radiation_type           MoK\a
_diffrn_radiation_wavelength     0.71073
_diffrn_reflns_av_R_equivalents  0.0730
_diffrn_reflns_av_unetI/netI     0.0253
_diffrn_reflns_Laue_measured_fraction_full 1.000
_diffrn_reflns_Laue_measured_fraction_max 0.999
_diffrn_reflns_limit_h_max       41
_diffrn_reflns_limit_h_min       -42
_diffrn_reflns_limit_k_max       36
_diffrn_reflns_limit_k_min       -42
_diffrn_reflns_limit_l_max       42
_diffrn_reflns_limit_l_min       -28
_diffrn_reflns_number            121320
_diffrn_reflns_point_group_measured_fraction_full 1.000
_diffrn_reflns_point_group_measured_fraction_max 0.999
_diffrn_reflns_theta_full        25.242
_diffrn_reflns_theta_max         28.283
_diffrn_reflns_theta_min         1.554
_exptl_absorpt_coefficient_mu    3.074
_exptl_absorpt_correction_T_max  0.7457
_exptl_absorpt_correction_T_min  0.6076
_exptl_absorpt_correction_type   multi-scan
_exptl_absorpt_process_details
'SADABS-2012/1 (Bruker,2012) was used for absorption correction. wR2(int) was 0.0942 before and 0.0644 after correction. The Ratio of minimum to maximum transmission is 0.8148. The \l/2 correction factor is 0.0015.'
_exptl_crystal_colour            red
_exptl_crystal_colour_primary    red
_exptl_crystal_density_diffrn    1.347
_exptl_crystal_description       block
_exptl_crystal_F_000             13056
_exptl_crystal_size_max          0.22
_exptl_crystal_size_mid          0.21
_exptl_crystal_size_min          0.2
_refine_diff_density_max         0.488
_refine_diff_density_min         -0.391
_refine_diff_density_rms         0.073
_refine_ls_extinction_method     none
_refine_ls_goodness_of_fit_ref   1.030
_refine_ls_hydrogen_treatment    constr
_refine_ls_matrix_type           full
_refine_ls_number_parameters     250
_refine_ls_number_reflns         6856
_refine_ls_number_restraints     0
_refine_ls_restrained_S_all      1.030
_refine_ls_R_factor_all          0.0299
_refine_ls_R_factor_gt           0.0208
_refine_ls_shift/su_max          0.005
_refine_ls_shift/su_mean         0.000
_refine_ls_structure_factor_coef Fsqd
_refine_ls_weighting_details
'w=1/[\s^2^(Fo^2^)+(0.0200P)^2^+43.4606P] where P=(Fo^2^+2Fc^2^)/3'
_refine_ls_weighting_scheme      calc
_refine_ls_wR_factor_gt          0.0458
_refine_ls_wR_factor_ref         0.0493
_reflns_Friedel_coverage         0.000
_reflns_number_gt                5754
_reflns_number_total             6856
_reflns_threshold_expression     'I > 2\s(I)'
_cod_data_source_file            c8dt02816h2.cif
_cod_data_source_block           n151012a_sq
_cod_depositor_comments
'Adding full bibliography for 7047570--7047572.cif.'
_cod_original_cell_volume        33079.6(9)
_cod_database_code               7047570
_shelx_shelxl_version_number     2018/3
_shelx_space_group_comment
;
The symmetry employed for this shelxl refinement is uniquely defined
by the following loop, which should always be used as a source of
symmetry information in preference to the above space-group names.
They are only intended as comments.
;
_shelx_estimated_absorpt_t_max   0.578
_shelx_estimated_absorpt_t_min   0.551
_olex2_refinement_description
;
1. Fixed Uiso
 At 1.2 times of:
  All C(H) groups
 At 1.5 times of:
  All C(H,H,H) groups, All O(H) groups
2. Others
 Fixed Sof: H2(0.5) H15A(0.5) H15B(0.5) H15C(0.5)
3.a Riding coordinates:
 O2(H2), C6(H6A,H6B,H6C), C9(H9A,H9B,H9C), C11(H11A,H11B,H11C), C13(H13A,H13B,
 H13C), C15(H15A,H15B,H15C)
3.b Aromatic/amide H refined with riding coordinates:
 C1(H1), C2(H2A), C3(H3)
;
_shelx_res_file
;
TITL N151012A in Ia-3
    n151012a_sq.res
    created by SHELXL-2018/3 at 15:50:28 on 15-Aug-2018
CELL 0.71073 32.1011 32.1011 32.1011 90 90 90
ZERR 24 0.0003 0.0003 0.0003 0 0 0
LATT 2
SYMM -X,0.5-Y,+Z
SYMM +X,-Y,0.5-Z
SYMM -X,0.5+Y,0.5-Z
SYMM +Z,+X,+Y
SYMM -Z,0.5-X,+Y
SYMM +Z,-X,0.5-Y
SYMM -Z,0.5+X,0.5-Y
SYMM +Y,+Z,+X
SYMM +Y,-Z,0.5-X
SYMM -Y,0.5+Z,0.5-X
SYMM -Y,0.5-Z,+X
SFAC C H Dy N Ni O
UNIT 672 816 48 240 24 336
EQIV $1 +X,1-Y,1.5-Z
EQIV $2 1-Y,+Z,0.5+X

L.S. 20 0 73
PLAN  20
SIZE 0.22 0.21 0.2
TEMP -100
HTAB C3 O1_$2
HTAB C1 O7
HTAB O2 N5_$1
FREE Dy1 C12
FREE Dy1 C10
BOND $H
CONF
HTAB
ABIN
fmap 2
acta
REM <olex2.extras>
REM <HklSrc "%.\\n151012a_sq.hkl">
REM </olex2.extras>

WGHT    0.020000   43.460602
FVAR       0.00977
DY1   3    0.382437    0.550825    0.784577    11.00000    0.01182    0.01039 =
         0.01515   -0.00048   -0.00117    0.00025
NI1   5    0.271225    0.500000    0.750000    10.50000    0.01087    0.01137 =
         0.01306    0.00086    0.00000    0.00000
O1    6    0.308731    0.547248    0.776401    11.00000    0.01249    0.01181 =
         0.01342    0.00010    0.00120   -0.00007
O2    6    0.187019    0.531609    0.771824    11.00000    0.00969    0.02312 =
         0.04010   -0.00777    0.00257   -0.00247
PART -1
AFIX   3
H2    2    0.181909    0.515509    0.751834    10.50000   -1.50000
AFIX   0
PART 0
O3    6    0.381775    0.588113    0.718218    11.00000    0.02139    0.01228 =
         0.01951   -0.00038   -0.00087    0.00061
O4    6    0.372962    0.520707    0.711655    11.00000    0.01621    0.01343 =
         0.01699    0.00099   -0.00027   -0.00018
O5    6    0.425311    0.540959    0.846395    11.00000    0.02435    0.03526 =
         0.02632    0.00585   -0.00871   -0.00365
O6    6    0.358345    0.551138    0.856145    11.00000    0.03264    0.02774 =
         0.01779   -0.00073   -0.00031    0.00825
O7    6    0.447763    0.532950    0.760808    11.00000    0.01562    0.01461 =
         0.03402   -0.00633    0.00050    0.00051
N1    4    0.425615    0.617319    0.789150    11.00000    0.01698    0.01287 =
         0.01826   -0.00288   -0.00165   -0.00089
N2    4    0.468161    0.692110    0.776670    11.00000    0.01554    0.01503 =
         0.01425   -0.00324   -0.00059   -0.00273
N3    4    0.343225    0.616990    0.795195    11.00000    0.01377    0.01468 =
         0.01412   -0.00114    0.00104   -0.00128
N4    4    0.300273    0.615437    0.800199    11.00000    0.01503    0.01483 =
         0.01785   -0.00042    0.00123    0.00059
N5    4    0.228209    0.539611    0.773395    11.00000    0.01073    0.01606 =
         0.01887    0.00275    0.00063   -0.00021
C1    1    0.466877    0.618614    0.784481    11.00000    0.01584    0.01424 =
         0.02952   -0.00319   -0.00216    0.00122
AFIX  43
H1    2    0.482190    0.593298    0.785133    11.00000   -1.20000
AFIX   0
C2    1    0.488084    0.655742    0.778709    11.00000    0.01714    0.01463 =
         0.02539   -0.00483   -0.00098   -0.00008
AFIX  43
H2A   2    0.517563    0.655274    0.776141    11.00000   -1.20000
AFIX   0
C3    1    0.426718    0.690814    0.781549    11.00000    0.01651    0.01448 =
         0.01709   -0.00320   -0.00394    0.00100
AFIX  43
H3    2    0.411462    0.716147    0.780404    11.00000   -1.20000
AFIX   0
C4    1    0.405282    0.653995    0.788192    11.00000    0.01696    0.01458 =
         0.01354   -0.00356   -0.00393    0.00079
C5    1    0.359687    0.653637    0.794470    11.00000    0.01615    0.01327 =
         0.01759   -0.00122   -0.00199    0.00031
C6    1    0.336739    0.694036    0.798791    11.00000    0.01674    0.01536 =
         0.04875   -0.00514   -0.00097   -0.00023
AFIX   3
H6A   2    0.306859    0.688496    0.801691    11.00000   -1.50000
H6B   2    0.341549    0.711056    0.773911    11.00000   -1.50000
H6C   2    0.346749    0.708986    0.823451    11.00000   -1.50000
AFIX   0
C7    1    0.286159    0.578509    0.790188    11.00000    0.01454    0.01288 =
         0.01211    0.00143    0.00134    0.00225
C8    1    0.240249    0.573251    0.791629    11.00000    0.01477    0.01551 =
         0.01988   -0.00036    0.00213    0.00171
C9    1    0.211947    0.604396    0.811174    11.00000    0.01617    0.02687 =
         0.05427   -0.01539    0.00935   -0.00056
AFIX   3
H9A   2    0.190047    0.612216    0.791404    11.00000   -1.50000
H9B   2    0.227937    0.629206    0.819004    11.00000   -1.50000
H9C   2    0.199257    0.592186    0.836105    11.00000   -1.50000
AFIX   0
C10   1    0.380824    0.556514    0.695615    11.00000    0.01178    0.01732 =
         0.02137    0.00203   -0.00132    0.00200
C11   1    0.389452    0.559435    0.649965    11.00000    0.03438    0.01970 =
         0.01511    0.00320    0.00084    0.00009
AFIX   3
H11A  2    0.385742    0.588305    0.640775    11.00000   -1.50000
H11B  2    0.370082    0.541355    0.634795    11.00000   -1.50000
H11C  2    0.418132    0.550575    0.644365    11.00000   -1.50000
AFIX   0
C12   1    0.394431    0.544029    0.870574    11.00000    0.04007    0.02102 =
         0.01949   -0.00129   -0.00851   -0.00234
C13   1    0.400079    0.538660    0.917006    11.00000    0.05953    0.04564 =
         0.02167    0.00404   -0.01243    0.00097
AFIX   3
H13A  2    0.429849    0.536540    0.923426    11.00000   -1.50000
H13B  2    0.385849    0.513270    0.926206    11.00000   -1.50000
H13C  2    0.388239    0.562780    0.931506    11.00000   -1.50000
AFIX   0
C14   1    0.466135    0.500000    0.750000    10.50000    0.01478    0.01915 =
         0.02459   -0.00133    0.00000    0.00000
C15   1    0.513238    0.500000    0.750000    10.50000    0.01626    0.02823 =
         0.07545   -0.00777    0.00000    0.00000
AFIX   3
H15A  2    0.523418    0.489100    0.776640    10.50000   -1.50000
H15B  2    0.523418    0.528520    0.746120    10.50000   -1.50000
H15C  2    0.523418    0.482380    0.727240    10.50000   -1.50000
AFIX   0
HKLF 4 1 0 -1 0 1 0 0 0 0 1




REM  N151012A in Ia-3
REM wR2 = 0.0493, GooF = S = 1.030, Restrained GooF = 1.030 for all data
REM R1 = 0.0208 for 5754 Fo > 4sig(Fo) and 0.0299 for all 6856 data
REM 250 parameters refined using 0 restraints

END

WGHT      0.0200     43.3920

REM Instructions for potential hydrogen bonds
HTAB O2 O2_$1
HTAB O2 N5_$1
HTAB C1 O7
HTAB C3 O1_$2

REM Highest difference peak  0.488,  deepest hole -0.391,  1-sigma level  0.073
Q1    1   0.1911  0.5000  0.7500  10.50000  0.05    0.49
Q2    1   0.3832  0.6538  0.7917  11.00000  0.05    0.45
Q3    1   0.2624  0.5721  0.7924  11.00000  0.05    0.43
Q4    1   0.1816  0.5940  0.8100  11.00000  0.05    0.42
Q5    1   0.3523  0.6315  0.7990  11.00000  0.05    0.41
Q6    1   0.3489  0.6706  0.7984  11.00000  0.05    0.41
Q7    1   0.3898  0.5291  0.8030  11.00000  0.05    0.40
Q8    1   0.3577  0.5431  0.7677  11.00000  0.05    0.40
Q9    1   0.4017  0.5702  0.7947  11.00000  0.05    0.39
Q10   1   0.3914  0.5720  0.7655  11.00000  0.05    0.38
Q11   1   0.4782  0.7142  0.7787  11.00000  0.05    0.37
Q12   1   0.3704  0.5568  0.7588  11.00000  0.05    0.36
Q13   1   0.3574  0.5415  0.8013  11.00000  0.05    0.36
Q14   1   0.4038  0.5473  0.8101  11.00000  0.05    0.36
Q15   1   0.2296  0.5579  0.7876  11.00000  0.05    0.36
Q16   1   0.3893  0.5715  0.8085  11.00000  0.05    0.35
Q17   1   0.3001  0.5644  0.7851  11.00000  0.05    0.35
Q18   1   0.4172  0.5932  0.7913  11.00000  0.05    0.34
Q19   1   0.3669  0.5438  0.8110  11.00000  0.05    0.34
Q20   1   0.3972  0.5489  0.8829  11.00000  0.05    0.34
;
_shelx_res_checksum              86103
_shelx_fab_file
;
    1    1    2   -532.87      0.00
    0    2    2    160.19      0.00
    2    2    2   -147.93      0.00
    2    1    3    -94.94      0.00
    1    2    3   -362.22      0.00
    2    3    3   -368.17      0.00
    0    0    4   -160.97      0.00
    2    0    4     -9.27      0.00
    1    1    4    -83.98      0.00
    3    1    4    -13.67      0.00
    0    2    4    -68.88      0.00
    2    2    4    128.55      0.00
    1    3    4    -11.46      0.00
    3    3    4    239.33      0.00
    0    4    4   -277.83      0.00
    2    4    4   -138.86      0.00
    4    4    4    198.43      0.00
    2    1    5    -53.68      0.00
    4    1    5    -39.63      0.00
    1    2    5    226.87      0.00
    3    2    5   -220.62      0.00
    2    3    5    107.30      0.00
    4    3    5     67.46      0.00
    1    4    5    116.29      0.00
    3    4    5     15.85      0.00
    2    5    5     53.74      0.00
    4    5    5    -22.27      0.00
    0    0    6    223.06      0.00
    2    0    6    509.05      0.00
    4    0    6   -219.25      0.00
    1    1    6    129.97      0.00
    3    1    6     86.67      0.00
    5    1    6   -150.81      0.00
    0    2    6    329.61      0.00
    2    2    6    207.71      0.00
    4    2    6     43.72      0.00
    1    3    6    111.66      0.00
    3    3    6    -24.04      0.00
    5    3    6    -45.97      0.00
    0    4    6     10.11      0.00
    2    4    6    -75.86      0.00
    4    4    6    -15.68      0.00
    1    5    6    -71.29      0.00
    3    5    6     85.14      0.00
    5    5    6     29.03      0.00
    0    6    6    160.33      0.00
    2    6    6    -25.74      0.00
    4    6    6    -46.72      0.00
    6    6    6   -153.24      0.00
    2    1    7   -157.66      0.00
    4    1    7     13.00      0.00
    6    1    7    -54.74      0.00
    1    2    7    -77.19      0.00
    3    2    7   -247.35      0.00
    5    2    7    139.16      0.00
    2    3    7    -87.16      0.00
    4    3    7   -325.70      0.00
    6    3    7     78.49      0.00
    1    4    7    -19.93      0.00
    3    4    7    -98.55      0.00
    5    4    7    -28.46      0.00
    2    5    7    100.08      0.00
    4    5    7   -211.39      0.00
    6    5    7    -18.50      0.00
    1    6    7     31.04      0.00
    3    6    7     20.48      0.00
    5    6    7     31.57      0.00
    2    7    7    154.83      0.00
    4    7    7     -0.12      0.00
    6    7    7     29.79      0.00
    0    0    8    313.48      0.00
    2    0    8     81.00      0.00
    4    0    8     87.09      0.00
    6    0    8    127.39      0.00
    1    1    8      9.96      0.00
    3    1    8    143.72      0.00
    5    1    8   -120.62      0.00
    7    1    8     41.26      0.00
    0    2    8    157.21      0.00
    2    2    8    104.54      0.00
    4    2    8     -9.80      0.00
    6    2    8    211.28      0.00
    1    3    8   -264.98      0.00
    3    3    8    126.16      0.00
    5    3    8    -80.80      0.00
    7    3    8     73.45      0.00
    0    4    8    227.58      0.00
    2    4    8    -90.63      0.00
    4    4    8     80.36      0.00
    6    4    8    202.85      0.00
    1    5    8   -216.18      0.00
    3    5    8    -99.80      0.00
    5    5    8    113.60      0.00
    7    5    8    -72.34      0.00
    0    6    8    345.54      0.00
    2    6    8     15.83      0.00
    4    6    8   -147.53      0.00
    6    6    8     76.94      0.00
    1    7    8     64.07      0.00
    3    7    8    -46.03      0.00
    5    7    8     77.85      0.00
    7    7    8     27.20      0.00
    0    8    8    136.22      0.00
    2    8    8    121.78      0.00
    4    8    8    -18.06      0.00
    6    8    8     23.14      0.00
    8    8    8     92.06      0.00
    2    1    9    -40.55      0.00
    4    1    9     95.90      0.00
    6    1    9    -36.11      0.00
    8    1    9     42.25      0.00
    1    2    9    -75.53      0.00
    3    2    9     25.66      0.00
    5    2    9    -62.42      0.00
    7    2    9     -4.89      0.00
    2    3    9   -180.14      0.00
    4    3    9   -145.32      0.00
    6    3    9     -4.42      0.00
    8    3    9    -72.65      0.00
    1    4    9    160.57      0.00
    3    4    9    134.83      0.00
    5    4    9      4.70      0.00
    7    4    9    -28.46      0.00
    2    5    9   -147.19      0.00
    4    5    9    -68.82      0.00
    6    5    9    101.28      0.00
    8    5    9    -19.34      0.00
    1    6    9    -26.16      0.00
    3    6    9    187.26      0.00
    5    6    9     43.51      0.00
    7    6    9     -3.48      0.00
    2    7    9    -17.29      0.00
    4    7    9     38.96      0.00
    6    7    9     -5.69      0.00
    8    7    9      1.27      0.00
    1    8    9      0.70      0.00
    3    8    9    -46.48      0.00
    5    8    9    -19.23      0.00
    7    8    9    -27.15      0.00
    2    9    9   -105.99      0.00
    4    9    9    -59.86      0.00
    6    9    9     34.15      0.00
    8    9    9     60.57      0.00
    0    0   10    504.57      0.00
    2    0   10   -119.35      0.00
    4    0   10    -99.47      0.00
    6    0   10    110.34      0.00
    8    0   10     54.78      0.00
    1    1   10    168.84      0.00
    3    1   10     44.28      0.00
    5    1   10    -60.28      0.00
    7    1   10     52.96      0.00
    9    1   10     94.73      0.00
    0    2   10      9.19      0.00
    2    2   10   -184.00      0.00
    4    2   10    -77.71      0.00
    6    2   10     59.51      0.00
    8    2   10     84.35      0.00
    1    3   10     45.66      0.00
    3    3   10     21.89      0.00
    5    3   10    -62.69      0.00
    7    3   10    -44.17      0.00
    9    3   10      1.05      0.00
    0    4   10   -275.59      0.00
    2    4   10    -98.82      0.00
    4    4   10    -87.80      0.00
    6    4   10     79.85      0.00
    8    4   10     26.10      0.00
    1    5   10   -145.53      0.00
    3    5   10   -151.62      0.00
    5    5   10   -133.83      0.00
    7    5   10   -110.60      0.00
    9    5   10    -77.26      0.00
    0    6   10     52.59      0.00
    2    6   10      6.26      0.00
    4    6   10     -4.89      0.00
    6    6   10     68.97      0.00
    8    6   10     39.66      0.00
    1    7   10      7.01      0.00
    3    7   10   -108.15      0.00
    5    7   10     27.06      0.00
    7    7   10    -17.91      0.00
    9    7   10     27.33      0.00
    0    8   10     -5.78      0.00
    2    8   10     29.14      0.00
    4    8   10    -48.26      0.00
    6    8   10     76.49      0.00
    8    8   10      6.46      0.00
    1    9   10     70.66      0.00
    3    9   10     12.50      0.00
    5    9   10     -8.62      0.00
    7    9   10     75.49      0.00
    9    9   10     -2.79      0.00
    0   10   10     19.60      0.00
    2   10   10    -92.82      0.00
    4   10   10   -111.97      0.00
    6   10   10     -3.15      0.00
    8   10   10      6.49      0.00
   10   10   10   -110.24      0.00
    2    1   11   -132.87      0.00
    4    1   11    142.85      0.00
    6    1   11     54.80      0.00
    8    1   11   -156.06      0.00
   10    1   11    -42.61      0.00
    1    2   11   -178.34      0.00
    3    2   11    -63.28      0.00
    5    2   11    -94.20      0.00
    7    2   11    -34.65      0.00
    9    2   11     18.38      0.00
    2    3   11   -156.16      0.00
    4    3   11     67.48      0.00
    6    3   11     37.96      0.00
    8    3   11    -74.48      0.00
   10    3   11   -130.75      0.00
    1    4   11    -48.39      0.00
    3    4   11     81.82      0.00
    5    4   11      8.08      0.00
    7    4   11     62.15      0.00
    9    4   11      8.56      0.00
    2    5   11     56.78      0.00
    4    5   11     32.74      0.00
    6    5   11     63.06      0.00
    8    5   11    -80.18      0.00
   10    5   11    -48.89      0.00
    1    6   11     73.25      0.00
    3    6   11     44.77      0.00
    5    6   11     46.80      0.00
    7    6   11    -13.42      0.00
    9    6   11     24.82      0.00
    2    7   11     -3.99      0.00
    4    7   11    125.73      0.00
    6    7   11    -23.48      0.00
    8    7   11    -22.21      0.00
   10    7   11      3.00      0.00
    1    8   11    -52.45      0.00
    3    8   11     -6.60      0.00
    5    8   11     -7.28      0.00
    7    8   11      1.36      0.00
    9    8   11     35.83      0.00
    2    9   11   -145.86      0.00
    4    9   11     82.80      0.00
    6    9   11     12.07      0.00
    8    9   11    -17.72      0.00
   10    9   11    -63.11      0.00
    1   10   11     81.25      0.00
    3   10   11     44.30      0.00
    5   10   11     16.85      0.00
    7   10   11    -39.62      0.00
    9   10   11     44.29      0.00
    2   11   11   -109.79      0.00
    4   11   11    -22.74      0.00
    6   11   11     70.43      0.00
    8   11   11    -58.73      0.00
   10   11   11    -31.93      0.00
    0    0   12    136.36      0.00
    2    0   12     63.34      0.00
    4    0   12     48.29      0.00
    6    0   12    -28.17      0.00
    8    0   12    130.53      0.00
   10    0   12     31.15      0.00
    1    1   12     82.71      0.00
    3    1   12    -67.17      0.00
    5    1   12     65.64      0.00
    7    1   12    -22.79      0.00
    9    1   12    131.62      0.00
   11    1   12     31.10      0.00
    0    2   12    -43.10      0.00
    2    2   12    -58.66      0.00
    4    2   12    -76.19      0.00
    6    2   12    -77.31      0.00
    8    2   12    -12.42      0.00
   10    2   12    -19.79      0.00
    1    3   12     43.68      0.00
    3    3   12      8.87      0.00
    5    3   12     41.98      0.00
    7    3   12     32.47      0.00
    9    3   12     29.37      0.00
   11    3   12     19.02      0.00
    0    4   12    -98.47      0.00
    2    4   12    -66.30      0.00
    4    4   12   -137.02      0.00
    6    4   12    -96.31      0.00
    8    4   12    -36.20      0.00
   10    4   12    -92.26      0.00
    1    5   12    -25.51      0.00
    3    5   12     -3.32      0.00
    5    5   12      8.13      0.00
    7    5   12    -27.78      0.00
    9    5   12    -30.04      0.00
   11    5   12    -50.83      0.00
    0    6   12    151.21      0.00
    2    6   12    142.91      0.00
    4    6   12    -27.03      0.00
    6    6   12     24.98      0.00
    8    6   12     32.12      0.00
   10    6   12     12.36      0.00
    1    7   12     36.31      0.00
    3    7   12    -27.19      0.00
    5    7   12    -11.31      0.00
    7    7   12     27.64      0.00
    9    7   12     19.55      0.00
   11    7   12     -3.88      0.00
    0    8   12     61.39      0.00
    2    8   12     47.81      0.00
    4    8   12     36.71      0.00
    6    8   12    -39.63      0.00
    8    8   12     51.21      0.00
   10    8   12     19.25      0.00
    1    9   12     99.96      0.00
    3    9   12     12.86      0.00
    5    9   12    -64.99      0.00
    7    9   12     65.20      0.00
    9    9   12     13.82      0.00
   11    9   12      6.15      0.00
    0   10   12   -229.04      0.00
    2   10   12    -54.23      0.00
    4   10   12    -44.17      0.00
    6   10   12    -53.75      0.00
    8   10   12    -16.24      0.00
   10   10   12    -96.98      0.00
    1   11   12     40.26      0.00
    3   11   12    -31.72      0.00
    5   11   12    -19.02      0.00
    7   11   12     53.99      0.00
    9   11   12    -55.07      0.00
   11   11   12    -15.02      0.00
    0   12   12     11.94      0.00
    2   12   12    -20.02      0.00
    4   12   12      4.83      0.00
    6   12   12    -18.86      0.00
    8   12   12    -12.72      0.00
   10   12   12    -85.50      0.00
   12   12   12    -52.64      0.00
    2    1   13    -11.22      0.00
    4    1   13    -54.17      0.00
    6    1   13    116.58      0.00
    8    1   13   -117.61      0.00
   10    1   13    -49.68      0.00
   12    1   13     74.87      0.00
    1    2   13    -99.82      0.00
    3    2   13    -76.54      0.00
    5    2   13      2.97      0.00
    7    2   13    -20.66      0.00
    9    2   13    -47.38      0.00
   11    2   13    -43.84      0.00
    2    3   13   -188.15      0.00
    4    3   13     54.14      0.00
    6    3   13     53.84      0.00
    8    3   13    -12.36      0.00
   10    3   13   -117.51      0.00
   12    3   13    -55.46      0.00
    1    4   13    -29.76      0.00
    3    4   13     54.09      0.00
    5    4   13     84.87      0.00
    7    4   13     -4.91      0.00
    9    4   13     41.39      0.00
   11    4   13     15.21      0.00
    2    5   13   -182.69      0.00
    4    5   13      0.87      0.00
    6    5   13    -11.98      0.00
    8    5   13      0.99      0.00
   10    5   13    -42.04      0.00
   12    5   13     17.08      0.00
    1    6   13     27.29      0.00
    3    6   13    -11.39      0.00
    5    6   13     41.03      0.00
    7    6   13     61.39      0.00
    9    6   13     29.89      0.00
   11    6   13     99.23      0.00
    2    7   13    -26.84      0.00
    4    7   13     24.83      0.00
    6    7   13     33.43      0.00
    8    7   13    -11.02      0.00
   10    7   13    -26.03      0.00
   12    7   13     95.30      0.00
    1    8   13      7.05      0.00
    3    8   13    -54.12      0.00
    5    8   13    -11.69      0.00
    7    8   13    -11.48      0.00
    9    8   13     20.58      0.00
   11    8   13    -20.16      0.00
    2    9   13      3.79      0.00
    4    9   13     25.01      0.00
    6    9   13     73.17      0.00
    8    9   13    -30.57      0.00
   10    9   13   -105.23      0.00
   12    9   13      5.82      0.00
    1   10   13    -56.28      0.00
    3   10   13     37.89      0.00
    5   10   13    -43.84      0.00
    7   10   13    -17.21      0.00
    9   10   13     39.52      0.00
   11   10   13     -6.01      0.00
    2   11   13    -27.72      0.00
    4   11   13    -34.88      0.00
    6   11   13    -14.44      0.00
    8   11   13    -69.48      0.00
   10   11   13    -76.40      0.00
   12   11   13    -11.72      0.00
    1   12   13     -0.04      0.00
    3   12   13    -16.74      0.00
    5   12   13     33.55      0.00
    7   12   13     18.39      0.00
    9   12   13     39.83      0.00
   11   12   13     59.14      0.00
    2   13   13    -45.00      0.00
    4   13   13     38.54      0.00
    6   13   13     28.06      0.00
    8   13   13    -73.90      0.00
   10   13   13     -6.11      0.00
   12   13   13     42.38      0.00
    0    0   14    146.62      0.00
    2    0   14    195.32      0.00
    4    0   14     30.43      0.00
    6    0   14     86.10      0.00
    8    0   14     99.39      0.00
   10    0   14     81.74      0.00
   12    0   14    118.66      0.00
    1    1   14     75.70      0.00
    3    1   14     -7.26      0.00
    5    1   14    -38.72      0.00
    7    1   14     -2.10      0.00
    9    1   14     72.98      0.00
   11    1   14     58.14      0.00
   13    1   14    -40.81      0.00
    0    2   14      6.92      0.00
    2    2   14     49.68      0.00
    4    2   14     63.17      0.00
    6    2   14     19.88      0.00
    8    2   14      2.57      0.00
   10    2   14      6.40      0.00
   12    2   14     56.54      0.00
    1    3   14     21.82      0.00
    3    3   14     46.42      0.00
    5    3   14    118.08      0.00
    7    3   14    -48.69      0.00
    9    3   14     72.88      0.00
   11    3   14    -23.58      0.00
   13    3   14      5.97      0.00
    0    4   14   -142.77      0.00
    2    4   14      6.72      0.00
    4    4   14     19.48      0.00
    6    4   14    -33.55      0.00
    8    4   14     -4.85      0.00
   10    4   14     -0.25      0.00
   12    4   14      9.43      0.00
    1    5   14    -46.01      0.00
    3    5   14     71.17      0.00
    5    5   14     22.49      0.00
    7    5   14     17.12      0.00
    9    5   14    -48.36      0.00
   11    5   14    -43.17      0.00
   13    5   14      9.77      0.00
    0    6   14    -22.34      0.00
    2    6   14     70.70      0.00
    4    6   14     97.90      0.00
    6    6   14     -6.87      0.00
    8    6   14     67.92      0.00
   10    6   14     26.65      0.00
   12    6   14     76.25      0.00
    1    7   14    -33.84      0.00
    3    7   14    -59.23      0.00
    5    7   14    -61.43      0.00
    7    7   14     51.22      0.00
    9    7   14      8.27      0.00
   11    7   14    -41.29      0.00
   13    7   14     -3.85      0.00
    0    8   14    122.18      0.00
    2    8   14     37.59      0.00
    4    8   14     82.86      0.00
    6    8   14     -7.66      0.00
    8    8   14    -31.24      0.00
   10    8   14     79.81      0.00
   12    8   14    -10.26      0.00
    1    9   14     35.20      0.00
    3    9   14    -24.98      0.00
    5    9   14     -2.16      0.00
    7    9   14     62.61      0.00
    9    9   14     23.54      0.00
   11    9   14    -36.19      0.00
   13    9   14    -16.51      0.00
    0   10   14     67.77      0.00
    2   10   14     19.27      0.00
    4   10   14     13.95      0.00
    6   10   14    -54.06      0.00
    8   10   14    -24.24      0.00
   10   10   14    -25.30      0.00
   12   10   14      8.16      0.00
    1   11   14     76.34      0.00
    3   11   14     34.36      0.00
    5   11   14    -16.99      0.00
    7   11   14     72.19      0.00
    9   11   14     22.21      0.00
   11   11   14    -28.88      0.00
   13   11   14     30.18      0.00
    0   12   14     64.44      0.00
    2   12   14    104.90      0.00
    4   12   14    -14.74      0.00
    6   12   14      7.62      0.00
    8   12   14     28.08      0.00
   10   12   14     24.67      0.00
   12   12   14     24.79      0.00
    1   13   14    -24.05      0.00
    3   13   14     -2.94      0.00
    5   13   14     20.68      0.00
    7   13   14     60.39      0.00
    9   13   14     33.94      0.00
   11   13   14    -27.26      0.00
   13   13   14     35.77      0.00
    0   14   14     35.58      0.00
    2   14   14     41.35      0.00
    4   14   14     28.74      0.00
    6   14   14     13.54      0.00
    8   14   14     30.18      0.00
   10   14   14     11.15      0.00
   12   14   14     14.97      0.00
   14   14   14    -10.82      0.00
    2    1   15    -45.96      0.00
    4    1   15    -69.34      0.00
    6    1   15     43.13      0.00
    8    1   15    -24.43      0.00
   10    1   15     16.65      0.00
   12    1   15    103.60      0.00
   14    1   15      0.56      0.00
    1    2   15     94.03      0.00
    3    2   15    -37.75      0.00
    5    2   15     27.61      0.00
    7    2   15     -1.05      0.00
    9    2   15    -73.42      0.00
   11    2   15     20.66      0.00
   13    2   15    -50.26      0.00
    2    3   15    -61.50      0.00
    4    3   15    -18.79      0.00
    6    3   15    114.77      0.00
    8    3   15     14.49      0.00
   10    3   15    -34.35      0.00
   12    3   15     19.47      0.00
   14    3   15      0.01      0.00
    1    4   15     18.57      0.00
    3    4   15     -4.44      0.00
    5    4   15     35.27      0.00
    7    4   15      9.96      0.00
    9    4   15      7.90      0.00
   11    4   15     43.63      0.00
   13    4   15     52.22      0.00
    2    5   15    -59.17      0.00
    4    5   15     -9.11      0.00
    6    5   15    -30.64      0.00
    8    5   15     58.33      0.00
   10    5   15    -22.91      0.00
   12    5   15     41.78      0.00
   14    5   15     -7.19      0.00
    1    6   15     39.70      0.00
    3    6   15     37.65      0.00
    5    6   15     78.71      0.00
    7    6   15    -12.51      0.00
    9    6   15     15.22      0.00
   11    6   15     61.76      0.00
   13    6   15     56.53      0.00
    2    7   15     35.65      0.00
    4    7   15    -32.19      0.00
    6    7   15      8.14      0.00
    8    7   15    -42.39      0.00
   10    7   15     -1.48      0.00
   12    7   15     55.12      0.00
   14    7   15     28.14      0.00
    1    8   15    -43.73      0.00
    3    8   15     -0.43      0.00
    5    8   15     26.76      0.00
    7    8   15     29.12      0.00
    9    8   15    -57.78      0.00
   11    8   15    -45.52      0.00
   13    8   15    -26.13      0.00
    2    9   15    -62.91      0.00
    4    9   15    -52.95      0.00
    6    9   15     39.90      0.00
    8    9   15     25.51      0.00
   10    9   15    -11.28      0.00
   12    9   15     37.77      0.00
   14    9   15     21.19      0.00
    1   10   15     -8.64      0.00
    3   10   15    -10.99      0.00
    5   10   15    -26.27      0.00
    7   10   15      2.55      0.00
    9   10   15    -14.49      0.00
   11   10   15    -19.50      0.00
   13   10   15     27.93      0.00
    2   11   15   -101.99      0.00
    4   11   15    -75.33      0.00
    6   11   15     15.80      0.00
    8   11   15     32.04      0.00
   10   11   15      4.64      0.00
   12   11   15      7.46      0.00
   14   11   15      1.84      0.00
    1   12   15     -7.10      0.00
    3   12   15     37.17      0.00
    5   12   15     10.77      0.00
    7   12   15     86.64      0.00
    9   12   15      2.98      0.00
   11   12   15     33.77      0.00
   13   12   15     79.12      0.00
    2   13   15    -47.38      0.00
    4   13   15    -13.76      0.00
    6   13   15     33.14      0.00
    8   13   15    -10.43      0.00
   10   13   15    -24.32      0.00
   12   13   15     43.74      0.00
   14   13   15     -1.08      0.00
    1   14   15      3.64      0.00
    3   14   15    -14.99      0.00
    5   14   15     38.84      0.00
    7   14   15     24.79      0.00
    9   14   15     14.86      0.00
   11   14   15     18.64      0.00
   13   14   15     34.26      0.00
    2   15   15    -36.64      0.00
    4   15   15     26.71      0.00
    6   15   15     27.08      0.00
    8   15   15     -8.93      0.00
   10   15   15    -12.98      0.00
   12   15   15     28.51      0.00
   14   15   15      4.73      0.00
    0    0   16      3.18      0.00
    2    0   16    101.91      0.00
    4    0   16     16.11      0.00
    6    0   16    113.66      0.00
    8    0   16    117.21      0.00
   10    0   16     42.05      0.00
   12    0   16    108.96      0.00
   14    0   16    -53.04      0.00
    1    1   16     37.83      0.00
    3    1   16    -48.49      0.00
    5    1   16    -47.93      0.00
    7    1   16    -33.58      0.00
    9    1   16      8.09      0.00
   11    1   16     14.15      0.00
   13    1   16    -15.95      0.00
   15    1   16    -53.22      0.00
    0    2   16    -94.01      0.00
    2    2   16    -13.46      0.00
    4    2   16     44.15      0.00
    6    2   16    108.51      0.00
    8    2   16    -11.03      0.00
   10    2   16    -19.24      0.00
   12    2   16     -4.11      0.00
   14    2   16    -25.24      0.00
    1    3   16     29.71      0.00
    3    3   16    -64.99      0.00
    5    3   16    -24.77      0.00
    7    3   16    -42.16      0.00
    9    3   16      0.33      0.00
   11    3   16     30.44      0.00
   13    3   16    -76.04      0.00
   15    3   16    -14.48      0.00
    0    4   16    -38.30      0.00
    2    4   16   -100.82      0.00
    4    4   16     -7.88      0.00
    6    4   16    -47.96      0.00
    8    4   16    -71.01      0.00
   10    4   16     12.73      0.00
   12    4   16    -25.10      0.00
   14    4   16    -48.11      0.00
    1    5   16    -45.89      0.00
    3    5   16     26.65      0.00
    5    5   16      7.26      0.00
    7    5   16    -53.50      0.00
    9    5   16    -21.59      0.00
   11    5   16    -18.04      0.00
   13    5   16     14.89      0.00
   15    5   16      3.33      0.00
    0    6   16    -30.41      0.00
    2    6   16    -32.35      0.00
    4    6   16     37.04      0.00
    6    6   16    -10.87      0.00
    8    6   16      0.60      0.00
   10    6   16     59.60      0.00
   12    6   16      5.49      0.00
   14    6   16    -17.60      0.00
    1    7   16    -32.32      0.00
    3    7   16     53.74      0.00
    5    7   16    -88.13      0.00
    7    7   16     24.54      0.00
    9    7   16    -12.19      0.00
   11    7   16    -32.91      0.00
   13    7   16    -17.47      0.00
   15    7   16    -25.92      0.00
    0    8   16      4.63      0.00
    2    8   16     32.72      0.00
    4    8   16    101.13      0.00
    6    8   16     43.40      0.00
    8    8   16     46.41      0.00
   10    8   16      8.02      0.00
   12    8   16      8.73      0.00
   14    8   16    -49.69      0.00
    1    9   16     42.48      0.00
    3    9   16     -8.31      0.00
    5    9   16     12.64      0.00
    7    9   16    -21.74      0.00
    9    9   16     33.80      0.00
   11    9   16     -9.82      0.00
   13    9   16     -8.14      0.00
   15    9   16    -21.71      0.00
    0   10   16      2.95      0.00
    2   10   16    -14.08      0.00
    4   10   16     16.98      0.00
    6   10   16     31.57      0.00
    8   10   16    -18.15      0.00
   10   10   16     18.25      0.00
   12   10   16    -20.08      0.00
   14   10   16     -5.87      0.00
    1   11   16      8.28      0.00
    3   11   16    -47.51      0.00
    5   11   16     30.99      0.00
    7   11   16    -16.09      0.00
    9   11   16    -15.12      0.00
   11   11   16      8.54      0.00
   13   11   16     20.58      0.00
   15   11   16      1.66      0.00
    0   12   16    -59.79      0.00
    2   12   16    -59.98      0.00
    4   12   16      7.45      0.00
    6   12   16     40.58      0.00
    8   12   16     -3.34      0.00
   10   12   16    -22.59      0.00
   12   12   16      9.78      0.00
   14   12   16    -18.51      0.00
    1   13   16    -90.39      0.00
    3   13   16    -98.32      0.00
    5   13   16    -29.24      0.00
    7   13   16      3.16      0.00
    9   13   16    -51.25      0.00
   11   13   16    -64.47      0.00
   13   13   16    -24.04      0.00
   15   13   16      3.44      0.00
    0   14   16     -1.98      0.00
    2   14   16     24.27      0.00
    4   14   16     -9.74      0.00
    6   14   16     28.86      0.00
    8   14   16    -22.25      0.00
   10   14   16    -10.79      0.00
   12   14   16    -16.49      0.00
   14   14   16    -13.34      0.00
    1   15   16    -55.79      0.00
    3   15   16    -14.63      0.00
    5   15   16    -53.12      0.00
    7   15   16    -34.08      0.00
    9   15   16    -23.11      0.00
   11   15   16    -16.48      0.00
   13   15   16    -15.52      0.00
   15   15   16    -23.12      0.00
    0   16   16      2.36      0.00
    2   16   16     12.34      0.00
    4   16   16     12.51      0.00
    6   16   16    -22.41      0.00
    8   16   16      0.63      0.00
   10   16   16     -9.89      0.00
   12   16   16      3.95      0.00
   14   16   16     -8.66      0.00
   16   16   16     -1.29      0.00
    2    1   17     47.45      0.00
    4    1   17     98.30      0.00
    6    1   17     32.85      0.00
    8    1   17    -25.79      0.00
   10    1   17     -5.99      0.00
   12    1   17     76.85      0.00
   14    1   17     29.32      0.00
   16    1   17      0.58      0.00
    1    2   17    -15.25      0.00
    3    2   17    -19.01      0.00
    5    2   17     62.41      0.00
    7    2   17      0.51      0.00
    9    2   17    -25.36      0.00
   11    2   17     -1.88      0.00
   13    2   17    -40.67      0.00
   15    2   17    -11.31      0.00
    2    3   17    -63.53      0.00
    4    3   17    -19.83      0.00
    6    3   17     65.73      0.00
    8    3   17      3.49      0.00
   10    3   17    -34.45      0.00
   12    3   17    -10.66      0.00
   14    3   17     -3.96      0.00
   16    3   17     62.55      0.00
    1    4   17     -0.36      0.00
    3    4   17    -80.83      0.00
    5    4   17     15.09      0.00
    7    4   17    -10.59      0.00
    9    4   17      2.69      0.00
   11    4   17     33.37      0.00
   13    4   17    -34.16      0.00
   15    4   17     -3.74      0.00
    2    5   17      7.38      0.00
    4    5   17    -10.30      0.00
    6    5   17    -27.22      0.00
    8    5   17    -16.23      0.00
   10    5   17     10.88      0.00
   12    5   17    -44.27      0.00
   14    5   17     -9.72      0.00
   16    5   17     -3.17      0.00
    1    6   17     -1.78      0.00
    3    6   17     48.93      0.00
    5    6   17     -3.98      0.00
    7    6   17     19.29      0.00
    9    6   17    -17.88      0.00
   11    6   17    -31.06      0.00
   13    6   17     38.99      0.00
   15    6   17    -11.44      0.00
    2    7   17     43.15      0.00
    4    7   17      8.61      0.00
    6    7   17      1.46      0.00
    8    7   17     -7.94      0.00
   10    7   17    -15.17      0.00
   12    7   17      2.57      0.00
   14    7   17     16.53      0.00
   16    7   17     26.96      0.00
    1    8   17     54.76      0.00
    3    8   17     -0.55      0.00
    5    8   17    -15.19      0.00
    7    8   17     49.02      0.00
    9    8   17      5.65      0.00
   11    8   17    -27.73      0.00
   13    8   17    -16.46      0.00
   15    8   17    -40.95      0.00
    2    9   17     18.36      0.00
    4    9   17    -30.09      0.00
    6    9   17     61.90      0.00
    8    9   17    -17.89      0.00
   10    9   17     22.38      0.00
   12    9   17     23.52      0.00
   14    9   17     36.50      0.00
   16    9   17     45.97      0.00
    1   10   17      8.47      0.00
    3   10   17     16.64      0.00
    5   10   17    -28.41      0.00
    7   10   17      7.97      0.00
    9   10   17    -23.93      0.00
   11   10   17    -10.75      0.00
   13   10   17     11.21      0.00
   15   10   17      1.06      0.00
    2   11   17    -40.30      0.00
    4   11   17     26.29      0.00
    6   11   17      3.47      0.00
    8   11   17     18.43      0.00
   10   11   17    -28.82      0.00
   12   11   17      3.56      0.00
   14   11   17      7.24      0.00
   16   11   17      8.93      0.00
    1   12   17    -12.61      0.00
    3   12   17     15.24      0.00
    5   12   17     29.16      0.00
    7   12   17    -13.95      0.00
    9   12   17      1.48      0.00
   11   12   17    -22.76      0.00
   13   12   17     21.25      0.00
   15   12   17      1.32      0.00
    2   13   17    -46.77      0.00
    4   13   17     15.30      0.00
    6   13   17     -5.69      0.00
    8   13   17    -34.08      0.00
   10   13   17    -29.20      0.00
   12   13   17     14.03      0.00
   14   13   17     -0.02      0.00
   16   13   17    -21.15      0.00
    1   14   17    -11.04      0.00
    3   14   17      1.15      0.00
    5   14   17     12.66      0.00
    7   14   17     13.33      0.00
    9   14   17    -35.12      0.00
   11   14   17     -4.04      0.00
   13   14   17    -14.79      0.00
   15   14   17    -15.03      0.00
    2   15   17    -20.30      0.00
    4   15   17     13.42      0.00
    6   15   17     -4.57      0.00
    8   15   17    -35.67      0.00
   10   15   17    -21.07      0.00
   12   15   17     33.77      0.00
   14   15   17     11.59      0.00
   16   15   17      7.92      0.00
    1   16   17     14.05      0.00
    3   16   17     -0.12      0.00
    5   16   17     -2.31      0.00
    7   16   17    -18.72      0.00
    9   16   17    -51.86      0.00
   11   16   17    -33.24      0.00
   13   16   17     32.65      0.00
   15   16   17    -10.99      0.00
    2   17   17     -4.73      0.00
    4   17   17      0.42      0.00
    6   17   17      7.47      0.00
    8   17   17     -6.41      0.00
   10   17   17     -3.33      0.00
   12   17   17     -6.47      0.00
   14   17   17     -7.48      0.00
   16   17   17      2.75      0.00
    0    0   18      0.80      0.00
    2    0   18    -58.15      0.00
    4    0   18    -73.33      0.00
    6    0   18    -60.38      0.00
    8    0   18    -79.55      0.00
   10    0   18      7.00      0.00
   12    0   18     13.31      0.00
   14    0   18    -11.49      0.00
   16    0   18    -70.45      0.00
    1    1   18    -11.65      0.00
    3    1   18     15.57      0.00
    5    1   18    -56.87      0.00
    7    1   18     18.43      0.00
    9    1   18    -19.51      0.00
   11    1   18    -26.16      0.00
   13    1   18    -49.35      0.00
   15    1   18    -20.23      0.00
   17    1   18     16.98      0.00
    0    2   18    -38.58      0.00
    2    2   18    -31.53      0.00
    4    2   18    -39.11      0.00
    6    2   18      2.07      0.00
    8    2   18    -20.92      0.00
   10    2   18    -48.07      0.00
   12    2   18      1.17      0.00
   14    2   18    -37.29      0.00
   16    2   18     19.56      0.00
    1    3   18    -18.12      0.00
    3    3   18     37.55      0.00
    5    3   18    -54.83      0.00
    7    3   18    -26.86      0.00
    9    3   18    -13.18      0.00
   11    3   18     22.08      0.00
   13    3   18    -22.69      0.00
   15    3   18    -39.63      0.00
   17    3   18     11.38      0.00
    0    4   18     37.58      0.00
    2    4   18    -40.03      0.00
    4    4   18      1.92      0.00
    6    4   18     -0.51      0.00
    8    4   18    -37.67      0.00
   10    4   18     28.65      0.00
   12    4   18    -16.15      0.00
   14    4   18     15.89      0.00
   16    4   18     -8.62      0.00
    1    5   18    -35.47      0.00
    3    5   18     34.85      0.00
    5    5   18     69.67      0.00
    7    5   18     -3.94      0.00
    9    5   18    -34.75      0.00
   11    5   18     28.34      0.00
   13    5   18      0.53      0.00
   15    5   18     51.03      0.00
   17    5   18      0.79      0.00
    0    6   18     -8.77      0.00
    2    6   18    -43.16      0.00
    4    6   18     16.49      0.00
    6    6   18      8.63      0.00
    8    6   18     -2.19      0.00
   10    6   18     16.87      0.00
   12    6   18    -26.69      0.00
   14    6   18     -1.78      0.00
   16    6   18     15.51      0.00
    1    7   18     60.72      0.00
    3    7   18     -8.49      0.00
    5    7   18     26.64      0.00
    7    7   18      3.62      0.00
    9    7   18     -3.88      0.00
   11    7   18    -22.72      0.00
   13    7   18     -3.29      0.00
   15    7   18     -0.95      0.00
   17    7   18     30.35      0.00
    0    8   18    -57.53      0.00
    2    8   18     19.00      0.00
    4    8   18    -26.12      0.00
    6    8   18      0.17      0.00
    8    8   18     -5.88      0.00
   10    8   18    -26.03      0.00
   12    8   18     -8.48      0.00
   14    8   18    -17.11      0.00
   16    8   18     17.71      0.00
    1    9   18     68.02      0.00
    3    9   18    -16.99      0.00
    5    9   18    -37.85      0.00
    7    9   18    -18.50      0.00
    9    9   18     -6.12      0.00
   11    9   18     26.10      0.00
   13    9   18     23.00      0.00
   15    9   18    -15.68      0.00
   17    9   18    -10.17      0.00
    0   10   18    -27.32      0.00
    2   10   18    -44.21      0.00
    4   10   18    -26.53      0.00
    6   10   18    -39.67      0.00
    8   10   18    -45.03      0.00
   10   10   18    -28.42      0.00
   12   10   18      4.64      0.00
   14   10   18    -15.02      0.00
   16   10   18      4.57      0.00
    1   11   18     -1.07      0.00
    3   11   18    -30.40      0.00
    5   11   18     22.14      0.00
    7   11   18    -11.13      0.00
    9   11   18      3.85      0.00
   11   11   18    -10.38      0.00
   13   11   18     24.06      0.00
   15   11   18     -0.51      0.00
   17   11   18     -4.70      0.00
    0   12   18    -60.75      0.00
    2   12   18    -54.21      0.00
    4   12   18    -31.73      0.00
    6   12   18     12.11      0.00
    8   12   18    -34.17      0.00
   10   12   18    -24.80      0.00
   12   12   18    -27.05      0.00
   14   12   18    -17.62      0.00
   16   12   18     -2.58      0.00
    1   13   18     -8.83      0.00
    3   13   18    -11.88      0.00
    5   13   18      1.76      0.00
    7   13   18     -6.35      0.00
    9   13   18    -38.25      0.00
   11   13   18    -12.77      0.00
   13   13   18     -7.64      0.00
   15   13   18     10.03      0.00
   17   13   18     15.55      0.00
    0   14   18     54.27      0.00
    2   14   18      5.74      0.00
    4   14   18     31.54      0.00
    6   14   18      0.59      0.00
    8   14   18      2.80      0.00
   10   14   18     -1.58      0.00
   12   14   18     24.86      0.00
   14   14   18     -3.83      0.00
   16   14   18    -24.07      0.00
    1   15   18     10.48      0.00
    3   15   18      2.04      0.00
    5   15   18      7.51      0.00
    7   15   18    -27.73      0.00
    9   15   18     -9.70      0.00
   11   15   18     52.62      0.00
   13   15   18     13.30      0.00
   15   15   18     -1.50      0.00
   17   15   18     -4.03      0.00
    0   16   18      9.73      0.00
    2   16   18     32.81      0.00
    4   16   18     29.80      0.00
    6   16   18     45.26      0.00
    8   16   18     14.91      0.00
   10   16   18     14.14      0.00
   12   16   18     -1.64      0.00
   14   16   18     15.82      0.00
   16   16   18     13.90      0.00
    1   17   18     20.08      0.00
    3   17   18      4.36      0.00
    5   17   18      5.94      0.00
    7   17   18     -3.23      0.00
    9   17   18     20.86      0.00
   11   17   18     46.91      0.00
   13   17   18     12.55      0.00
   15   17   18     -3.67      0.00
   17   17   18      7.19      0.00
    0   18   18    -30.72      0.00
    2   18   18    -14.13      0.00
    4   18   18    -11.71      0.00
    6   18   18    -41.36      0.00
    8   18   18      3.75      0.00
   10   18   18     -5.63      0.00
   12   18   18      5.10      0.00
   14   18   18     -9.47      0.00
   16   18   18      5.75      0.00
   18   18   18     -6.46      0.00
    2    1   19     -5.38      0.00
    4    1   19     81.29      0.00
    6    1   19     -0.21      0.00
    8    1   19    -10.92      0.00
   10    1   19     -9.39      0.00
   12    1   19     28.74      0.00
   14    1   19     -8.64      0.00
   16    1   19    -27.52      0.00
   18    1   19      1.83      0.00
    1    2   19     -2.33      0.00
    3    2   19      1.62      0.00
    5    2   19    -24.78      0.00
    7    2   19    -36.61      0.00
    9    2   19    -30.74      0.00
   11    2   19    -25.83      0.00
   13    2   19    -29.70      0.00
   15    2   19    -35.96      0.00
   17    2   19     -9.98      0.00
    2    3   19    -98.76      0.00
    4    3   19    -29.97      0.00
    6    3   19     21.26      0.00
    8    3   19    -15.26      0.00
   10    3   19    -17.51      0.00
   12    3   19    -41.56      0.00
   14    3   19    -31.13      0.00
   16    3   19      3.96      0.00
   18    3   19     -3.77      0.00
    1    4   19     -8.52      0.00
    3    4   19     -2.37      0.00
    5    4   19    -16.52      0.00
    7    4   19    -19.20      0.00
    9    4   19    -36.25      0.00
   11    4   19     10.40      0.00
   13    4   19    -31.08      0.00
   15    4   19    -22.58      0.00
   17    4   19     -0.75      0.00
    2    5   19      7.18      0.00
    4    5   19     32.96      0.00
    6    5   19     28.60      0.00
    8    5   19    -59.20      0.00
   10    5   19    -13.15      0.00
   12    5   19    -33.33      0.00
   14    5   19      8.68      0.00
   16    5   19     14.10      0.00
   18    5   19    -57.83      0.00
    1    6   19    -24.17      0.00
    3    6   19     38.18      0.00
    5    6   19      4.55      0.00
    7    6   19     -7.37      0.00
    9    6   19     52.21      0.00
   11    6   19      5.12      0.00
   13    6   19     33.10      0.00
   15    6   19     10.76      0.00
   17    6   19     16.31      0.00
    2    7   19     17.17      0.00
    4    7   19     35.20      0.00
    6    7   19      2.08      0.00
    8    7   19     -4.91      0.00
   10    7   19     32.34      0.00
   12    7   19     -5.31      0.00
   14    7   19     34.44      0.00
   16    7   19     -4.25      0.00
   18    7   19     -4.09      0.00
    1    8   19    -21.86      0.00
    3    8   19     -3.59      0.00
    5    8   19    -27.08      0.00
    7    8   19     26.30      0.00
    9    8   19     62.83      0.00
   11    8   19     10.47      0.00
   13    8   19     19.99      0.00
   15    8   19      0.36      0.00
   17    8   19     15.36      0.00
    2    9   19     -8.47      0.00
    4    9   19     -0.93      0.00
    6    9   19    -10.02      0.00
    8    9   19    -24.51      0.00
   10    9   19    -44.90      0.00
   12    9   19     25.71      0.00
   14    9   19     45.58      0.00
   16    9   19     28.73      0.00
   18    9   19    -17.58      0.00
    1   10   19     57.40      0.00
    3   10   19    -40.31      0.00
    5   10   19    -19.19      0.00
    7   10   19     -7.35      0.00
    9   10   19    -30.44      0.00
   11   10   19    -11.03      0.00
   13   10   19    -28.43      0.00
   15   10   19     -5.03      0.00
   17   10   19    -17.95      0.00
    2   11   19    -14.37      0.00
    4   11   19    -33.00      0.00
    6   11   19     11.91      0.00
    8   11   19    -33.89      0.00
   10   11   19    -24.14      0.00
   12   11   19    -32.10      0.00
   14   11   19    -38.49      0.00
   16   11   19     -8.65      0.00
   18   11   19      8.02      0.00
    1   12   19     10.83      0.00
    3   12   19    -18.79      0.00
    5   12   19    -24.13      0.00
    7   12   19    -14.23      0.00
    9   12   19     -8.68      0.00
   11   12   19    -16.45      0.00
   13   12   19    -33.39      0.00
   15   12   19    -11.05      0.00
   17   12   19    -27.25      0.00
    2   13   19    -36.19      0.00
    4   13   19     42.73      0.00
    6   13   19    -14.96      0.00
    8   13   19    -19.20      0.00
   10   13   19    -19.97      0.00
   12   13   19     19.86      0.00
   14   13   19    -12.48      0.00
   16   13   19    -15.22      0.00
   18   13   19     14.93      0.00
    1   14   19     -1.90      0.00
    3   14   19     12.81      0.00
    5   14   19     12.03      0.00
    7   14   19    -16.42      0.00
    9   14   19     31.75      0.00
   11   14   19      4.12      0.00
   13   14   19     -4.03      0.00
   15   14   19     -2.58      0.00
   17   14   19      2.47      0.00
    2   15   19    -14.29      0.00
    4   15   19     40.27      0.00
    6   15   19     17.22      0.00
    8   15   19    -54.41      0.00
   10   15   19     11.61      0.00
   12   15   19     37.19      0.00
   14   15   19     57.05      0.00
   16   15   19     30.28      0.00
   18   15   19     -0.54      0.00
    1   16   19    -21.92      0.00
    3   16   19     15.88      0.00
    5   16   19      2.10      0.00
    7   16   19     -9.38      0.00
    9   16   19     12.03      0.00
   11   16   19     32.49      0.00
   13   16   19     -1.74      0.00
   15   16   19    -10.34      0.00
   17   16   19     -4.53      0.00
    2   17   19    -22.85      0.00
    4   17   19     14.06      0.00
    6   17   19     -0.60      0.00
    8   17   19     25.51      0.00
   10   17   19     10.18      0.00
   12   17   19      2.47      0.00
   14   17   19     -8.53      0.00
   16   17   19     -8.12      0.00
   18   17   19     18.04      0.00
    1   18   19      1.21      0.00
    3   18   19    -21.36      0.00
    5   18   19    -14.91      0.00
    7   18   19      9.53      0.00
    9   18   19     11.55      0.00
   11   18   19     13.15      0.00
   13   18   19    -20.04      0.00
   15   18   19    -18.63      0.00
   17   18   19     -3.49      0.00
    2   19   19    -13.39      0.00
    4   19   19    -21.48      0.00
    6   19   19     12.39      0.00
    8   19   19     12.20      0.00
   10   19   19    -33.49      0.00
   12   19   19    -19.07      0.00
   14   19   19      8.15      0.00
   16   19   19     -7.76      0.00
   18   19   19    -20.59      0.00
    0    0   20     70.10      0.00
    2    0   20    -44.02      0.00
    4    0   20    -12.28      0.00
    6    0   20      4.15      0.00
    8    0   20    -26.28      0.00
   10    0   20    -21.26      0.00
   12    0   20    -27.30      0.00
   14    0   20      7.66      0.00
   16    0   20     20.45      0.00
   18    0   20    -10.64      0.00
    1    1   20     71.70      0.00
    3    1   20     49.84      0.00
    5    1   20     46.41      0.00
    7    1   20     35.33      0.00
    9    1   20     38.85      0.00
   11    1   20      1.62      0.00
   13    1   20    -16.96      0.00
   15    1   20      7.54      0.00
   17    1   20     33.33      0.00
   19    1   20      5.01      0.00
    0    2   20     66.20      0.00
    2    2   20      0.57      0.00
    4    2   20     19.56      0.00
    6    2   20      2.24      0.00
    8    2   20      1.64      0.00
   10    2   20     10.00      0.00
   12    2   20      8.63      0.00
   14    2   20     53.30      0.00
   16    2   20    -14.06      0.00
   18    2   20      5.63      0.00
    1    3   20     98.64      0.00
    3    3   20     80.69      0.00
    5    3   20    -11.74      0.00
    7    3   20     31.80      0.00
    9    3   20     31.73      0.00
   11    3   20     75.75      0.00
   13    3   20     -3.53      0.00
   15    3   20     -6.99      0.00
   17    3   20     14.61      0.00
   19    3   20     -2.68      0.00
    0    4   20     -3.58      0.00
    2    4   20     58.01      0.00
    4    4   20     21.00      0.00
    6    4   20     -9.61      0.00
    8    4   20     43.76      0.00
   10    4   20      8.67      0.00
   12    4   20     17.61      0.00
   14    4   20     36.36      0.00
   16    4   20     30.52      0.00
   18    4   20    -25.35      0.00
    1    5   20    -65.35      0.00
    3    5   20     -1.73      0.00
    5    5   20     30.33      0.00
    7    5   20      2.18      0.00
    9    5   20    -24.06      0.00
   11    5   20    -23.99      0.00
   13    5   20      1.52      0.00
   15    5   20     22.31      0.00
   17    5   20     21.96      0.00
   19    5   20    -23.75      0.00
    0    6   20    -34.76      0.00
    2    6   20     23.76      0.00
    4    6   20      0.95      0.00
    6    6   20    -32.56      0.00
    8    6   20    -19.03      0.00
   10    6   20     18.15      0.00
   12    6   20    -26.38      0.00
   14    6   20     29.24      0.00
   16    6   20     -0.88      0.00
   18    6   20    -30.22      0.00
    1    7   20      1.42      0.00
    3    7   20    -44.53      0.00
    5    7   20      0.50      0.00
    7    7   20     -9.02      0.00
    9    7   20     -3.93      0.00
   11    7   20    -48.76      0.00
   13    7   20    -28.29      0.00
   15    7   20     19.40      0.00
   17    7   20      6.07      0.00
   19    7   20     17.61      0.00
    0    8   20    -12.92      0.00
    2    8   20     21.03      0.00
    4    8   20    -23.27      0.00
    6    8   20    -25.51      0.00
    8    8   20     -5.15      0.00
   10    8   20     -8.46      0.00
   12    8   20     32.78      0.00
   14    8   20     13.21      0.00
   16    8   20      8.23      0.00
   18    8   20    -35.73      0.00
    1    9   20     60.21      0.00
    3    9   20      6.55      0.00
    5    9   20     -0.38      0.00
    7    9   20     45.94      0.00
    9    9   20     10.02      0.00
   11    9   20      8.08      0.00
   13    9   20     28.35      0.00
   15    9   20    -18.34      0.00
   17    9   20     -7.74      0.00
   19    9   20     -7.31      0.00
    0   10   20     22.56      0.00
    2   10   20     29.18      0.00
    4   10   20    -30.09      0.00
    6   10   20     31.88      0.00
    8   10   20      9.31      0.00
   10   10   20      3.78      0.00
   12   10   20     17.32      0.00
   14   10   20     -6.85      0.00
   16   10   20     11.29      0.00
   18   10   20      2.59      0.00
    1   11   20     36.97      0.00
    3   11   20     -3.23      0.00
    5   11   20     61.24      0.00
    7   11   20     68.33      0.00
    9   11   20      0.91      0.00
   11   11   20      9.48      0.00
   13   11   20     26.31      0.00
   15   11   20     28.37      0.00
   17   11   20     -2.92      0.00
   19   11   20     -7.63      0.00
    0   12   20     44.68      0.00
    2   12   20    -27.86      0.00
    4   12   20      6.55      0.00
    6   12   20    -17.82      0.00
    8   12   20    -17.41      0.00
   10   12   20     -5.68      0.00
   12   12   20      7.31      0.00
   14   12   20     10.75      0.00
   16   12   20    -10.10      0.00
   18   12   20    -13.76      0.00
    1   13   20     66.04      0.00
    3   13   20     -6.05      0.00
    5   13   20     12.62      0.00
    7   13   20     19.58      0.00
    9   13   20      4.85      0.00
   11   13   20     14.66      0.00
   13   13   20     12.31      0.00
   15   13   20     17.45      0.00
   17   13   20     17.64      0.00
   19   13   20     -3.76      0.00
    0   14   20     -3.97      0.00
    2   14   20      8.91      0.00
    4   14   20    -17.78      0.00
    6   14   20    -27.93      0.00
    8   14   20      7.45      0.00
   10   14   20     15.23      0.00
   12   14   20     12.22      0.00
   14   14   20     18.45      0.00
   16   14   20     -3.01      0.00
   18   14   20     -4.05      0.00
    1   15   20      4.03      0.00
    3   15   20     15.25      0.00
    5   15   20     13.59      0.00
    7   15   20     23.38      0.00
    9   15   20     13.94      0.00
   11   15   20     12.61      0.00
   13   15   20      5.87      0.00
   15   15   20      0.44      0.00
   17   15   20     15.27      0.00
   19   15   20     -4.23      0.00
    0   16   20    -16.16      0.00
    2   16   20     -1.41      0.00
    4   16   20     38.70      0.00
    6   16   20    -21.25      0.00
    8   16   20     12.90      0.00
   10   16   20     -4.44      0.00
   12   16   20      1.94      0.00
   14   16   20      2.49      0.00
   16   16   20      2.47      0.00
   18   16   20     -2.63      0.00
    1   17   20     11.88      0.00
    3   17   20    -21.75      0.00
    5   17   20    -12.76      0.00
    7   17   20     -3.49      0.00
    9   17   20     46.78      0.00
   11   17   20     12.87      0.00
   13   17   20     -7.37      0.00
   15   17   20     -1.04      0.00
   17   17   20     -1.63      0.00
   19   17   20      3.03      0.00
    0   18   20     -5.92      0.00
    2   18   20     -3.59      0.00
    4   18   20     -7.62      0.00
    6   18   20    -25.07      0.00
    8   18   20    -35.45      0.00
   10   18   20     14.07      0.00
   12   18   20    -15.89      0.00
   14   18   20     -3.88      0.00
   16   18   20    -19.45      0.00
   18   18   20     -8.22      0.00
    1   19   20      3.39      0.00
    3   19   20     -2.22      0.00
    5   19   20     -0.61      0.00
    7   19   20     24.52      0.00
    9   19   20     -6.38      0.00
   11   19   20     -9.79      0.00
   13   19   20      8.24      0.00
   15   19   20     10.26      0.00
   17   19   20     20.67      0.00
   19   19   20     -5.16      0.00
    0   20   20      1.06      0.00
    2   20   20    -14.16      0.00
    4   20   20      7.88      0.00
    6   20   20     11.82      0.00
    8   20   20     -9.03      0.00
   10   20   20    -15.05      0.00
   12   20   20     -6.64      0.00
   14   20   20    -12.74      0.00
   16   20   20      6.50      0.00
   18   20   20      8.25      0.00
   20   20   20    -10.88      0.00
    2    1   21    -67.41      0.00
    4    1   21     43.17      0.00
    6    1   21      9.42      0.00
    8    1   21    -51.20      0.00
   10    1   21      0.46      0.00
   12    1   21     38.15      0.00
   14    1   21     -3.83      0.00
   16    1   21    -59.60      0.00
   18    1   21    -31.83      0.00
   20    1   21     -2.58      0.00
    1    2   21    -55.40      0.00
    3    2   21      0.15      0.00
    5    2   21    -25.44      0.00
    7    2   21    -21.72      0.00
    9    2   21     39.54      0.00
   11    2   21     15.53      0.00
   13    2   21      4.04      0.00
   15    2   21      4.96      0.00
   17    2   21     24.16      0.00
   19    2   21     10.34      0.00
    2    3   21   -108.81      0.00
    4    3   21    -23.63      0.00
    6    3   21     35.54      0.00
    8    3   21     12.63      0.00
   10    3   21    -38.85      0.00
   12    3   21     -4.99      0.00
   14    3   21      9.15      0.00
   16    3   21    -35.41      0.00
   18    3   21    -13.27      0.00
   20    3   21     -1.68      0.00
    1    4   21    -35.21      0.00
    3    4   21     40.64      0.00
    5    4   21     14.46      0.00
    7    4   21    -13.08      0.00
    9    4   21    -10.75      0.00
   11    4   21      0.58      0.00
   13    4   21     22.81      0.00
   15    4   21      1.12      0.00
   17    4   21     15.23      0.00
   19    4   21    -35.87      0.00
    2    5   21     28.43      0.00
    4    5   21    -28.91      0.00
    6    5   21     40.88      0.00
    8    5   21     -9.52      0.00
   10    5   21     21.52      0.00
   12    5   21     37.80      0.00
   14    5   21     14.44      0.00
   16    5   21    -17.20      0.00
   18    5   21    -13.92      0.00
   20    5   21     50.14      0.00
    1    6   21      5.59      0.00
    3    6   21    -15.95      0.00
    5    6   21     -8.79      0.00
    7    6   21     10.94      0.00
    9    6   21     -1.62      0.00
   11    6   21     14.94      0.00
   13    6   21    -16.94      0.00
   15    6   21     13.37      0.00
   17    6   21     19.40      0.00
   19    6   21     13.46      0.00
    2    7   21    -33.89      0.00
    4    7   21      0.57      0.00
    6    7   21      3.84      0.00
    8    7   21     35.85      0.00
   10    7   21      0.67      0.00
   12    7   21     28.29      0.00
   14    7   21     24.90      0.00
   16    7   21    -21.66      0.00
   18    7   21     -9.51      0.00
   20    7   21     43.52      0.00
    1    8   21     13.76      0.00
    3    8   21     23.77      0.00
    5    8   21     -8.44      0.00
    7    8   21    -34.38      0.00
    9    8   21    -10.60      0.00
   11    8   21     -6.56      0.00
   13    8   21     41.30      0.00
   15    8   21     20.69      0.00
   17    8   21    -15.19      0.00
   19    8   21      7.96      0.00
    2    9   21    -54.13      0.00
    4    9   21     13.76      0.00
    6    9   21    -29.01      0.00
    8    9   21    -38.93      0.00
   10    9   21    -37.53      0.00
   12    9   21    -13.67      0.00
   14    9   21     12.21      0.00
   16    9   21    -45.93      0.00
   18    9   21    -28.13      0.00
   20    9   21    -16.37      0.00
    1   10   21      1.83      0.00
    3   10   21     -5.65      0.00
    5   10   21     12.88      0.00
    7   10   21     -1.56      0.00
    9   10   21      3.79      0.00
   11   10   21     -3.65      0.00
   13   10   21    -13.76      0.00
   15   10   21      0.59      0.00
   17   10   21    -25.05      0.00
   19   10   21     -2.02      0.00
    2   11   21    -80.19      0.00
    4   11   21    -34.16      0.00
    6   11   21     20.21      0.00
    8   11   21     -8.18      0.00
   10   11   21    -14.80      0.00
   12   11   21     -0.03      0.00
   14   11   21    -51.31      0.00
   16   11   21    -18.14      0.00
   18   11   21    -14.07      0.00
   20   11   21     -2.85      0.00
    1   12   21      5.64      0.00
    3   12   21    -25.59      0.00
    5   12   21     19.57      0.00
    7   12   21     -4.76      0.00
    9   12   21     27.41      0.00
   11   12   21     33.86      0.00
   13   12   21     -9.16      0.00
   15   12   21     13.94      0.00
   17   12   21      8.57      0.00
   19   12   21     10.13      0.00
    2   13   21    -27.06      0.00
    4   13   21     -3.97      0.00
    6   13   21     57.56      0.00
    8   13   21    -10.04      0.00
   10   13   21     24.79      0.00
   12   13   21     36.47      0.00
   14   13   21     29.88      0.00
   16   13   21      2.49      0.00
   18   13   21     16.85      0.00
   20   13   21     27.58      0.00
    1   14   21    -27.58      0.00
    3   14   21     -0.29      0.00
    5   14   21     18.02      0.00
    7   14   21      6.09      0.00
    9   14   21     26.21      0.00
   11   14   21     28.99      0.00
   13   14   21      5.66      0.00
   15   14   21     30.77      0.00
   17   14   21     37.33      0.00
   19   14   21      0.10      0.00
    2   15   21    -11.46      0.00
    4   15   21      5.19      0.00
    6   15   21     11.25      0.00
    8   15   21     -5.12      0.00
   10   15   21      7.85      0.00
   12   15   21     40.16      0.00
   14   15   21     30.75      0.00
   16   15   21      2.91      0.00
   18   15   21      3.86      0.00
   20   15   21     32.73      0.00
    1   16   21     -8.68      0.00
    3   16   21    -19.33      0.00
    5   16   21     20.77      0.00
    7   16   21     12.66      0.00
    9   16   21     12.54      0.00
   11   16   21     12.88      0.00
   13   16   21    -41.33      0.00
   15   16   21     -9.96      0.00
   17   16   21      2.46      0.00
   19   16   21      9.57      0.00
    2   17   21    -24.71      0.00
    4   17   21    -16.31      0.00
    6   17   21    -12.53      0.00
    8   17   21      5.13      0.00
   10   17   21     -0.99      0.00
   12   17   21    -36.34      0.00
   14   17   21    -19.87      0.00
   16   17   21    -21.44      0.00
   18   17   21      2.28      0.00
   20   17   21      6.81      0.00
    1   18   21    -16.93      0.00
    3   18   21     23.57      0.00
    5   18   21     -5.94      0.00
    7   18   21    -21.09      0.00
    9   18   21    -12.54      0.00
   11   18   21     -3.08      0.00
   13   18   21     -4.82      0.00
   15   18   21     -5.32      0.00
   17   18   21    -12.42      0.00
   19   18   21     -4.26      0.00
    2   19   21    -15.60      0.00
    4   19   21     -0.86      0.00
    6   19   21    -15.14      0.00
    8   19   21      0.58      0.00
   10   19   21    -17.60      0.00
   12   19   21    -11.57      0.00
   14   19   21     -1.45      0.00
   16   19   21      0.99      0.00
   18   19   21     -8.81      0.00
   20   19   21     -6.42      0.00
    1   20   21    -19.97      0.00
    3   20   21      1.89      0.00
    5   20   21      6.11      0.00
    7   20   21      5.07      0.00
    9   20   21     24.25      0.00
   11   20   21      6.54      0.00
   13   20   21     15.25      0.00
   15   20   21      9.05      0.00
   17   20   21     16.01      0.00
   19   20   21     19.61      0.00
    2   21   21     -1.42      0.00
    4   21   21     -3.04      0.00
    6   21   21      7.51      0.00
    8   21   21     13.56      0.00
   10   21   21     13.27      0.00
   12   21   21     26.23      0.00
   14   21   21      9.30      0.00
   16   21   21     16.33      0.00
   18   21   21     -2.70      0.00
   20   21   21      6.06      0.00
    0    0   22      9.77      0.00
    2    0   22     55.36      0.00
    4    0   22    153.91      0.00
    6    0   22     76.37      0.00
    8    0   22     27.35      0.00
   10    0   22      9.57      0.00
   12    0   22      8.11      0.00
   14    0   22     33.12      0.00
   16    0   22    -10.00      0.00
   18    0   22     32.11      0.00
   20    0   22      7.25      0.00
    1    1   22     47.26      0.00
    3    1   22     34.12      0.00
    5    1   22     23.86      0.00
    7    1   22     17.14      0.00
    9    1   22     40.85      0.00
   11    1   22     20.85      0.00
   13    1   22    -13.34      0.00
   15    1   22      8.36      0.00
   17    1   22    -10.09      0.00
   19    1   22     -3.86      0.00
   21    1   22     -2.67      0.00
    0    2   22     31.06      0.00
    2    2   22     30.73      0.00
    4    2   22     35.99      0.00
    6    2   22     -1.37      0.00
    8    2   22     42.07      0.00
   10    2   22     42.51      0.00
   12    2   22     17.52      0.00
   14    2   22      4.38      0.00
   16    2   22    -11.08      0.00
   18    2   22     11.30      0.00
   20    2   22     27.79      0.00
    1    3   22     19.68      0.00
    3    3   22     24.97      0.00
    5    3   22     -2.41      0.00
    7    3   22      2.75      0.00
    9    3   22     44.98      0.00
   11    3   22     -7.37      0.00
   13    3   22    -12.40      0.00
   15    3   22     -8.34      0.00
   17    3   22      4.32      0.00
   19    3   22    -21.80      0.00
   21    3   22      2.01      0.00
    0    4   22    -93.81      0.00
    2    4   22    -23.61      0.00
    4    4   22     -2.04      0.00
    6    4   22     -2.82      0.00
    8    4   22     -1.41      0.00
   10    4   22    -10.76      0.00
   12    4   22    -13.25      0.00
   14    4   22     -3.93      0.00
   16    4   22     -4.33      0.00
   18    4   22     26.45      0.00
   20    4   22      9.67      0.00
    1    5   22    -70.17      0.00
    3    5   22    -27.58      0.00
    5    5   22    -25.24      0.00
    7    5   22    -34.15      0.00
    9    5   22    -33.53      0.00
   11    5   22    -40.63      0.00
   13    5   22    -12.31      0.00
   15    5   22      2.54      0.00
   17    5   22    -10.64      0.00
   19    5   22    -16.88      0.00
   21    5   22     12.44      0.00
    0    6   22    -50.51      0.00
    2    6   22     20.68      0.00
    4    6   22      2.27      0.00
    6    6   22    -28.29      0.00
    8    6   22    -13.97      0.00
   10    6   22    -14.02      0.00
   12    6   22      3.14      0.00
   14    6   22    -25.54      0.00
   16    6   22     12.48      0.00
   18    6   22     10.48      0.00
   20    6   22     39.08      0.00
    1    7   22     39.34      0.00
    3    7   22    -32.48      0.00
    5    7   22     -8.87      0.00
    7    7   22    -11.86      0.00
    9    7   22     15.53      0.00
   11    7   22     -5.39      0.00
   13    7   22     -5.72      0.00
   15    7   22     10.82      0.00
   17    7   22    -23.46      0.00
   19    7   22      5.52      0.00
   21    7   22      4.39      0.00
    0    8   22      5.03      0.00
    2    8   22     27.59      0.00
    4    8   22     48.51      0.00
    6    8   22     31.96      0.00
    8    8   22     31.42      0.00
   10    8   22     52.45      0.00
   12    8   22     -2.05      0.00
   14    8   22     29.34      0.00
   16    8   22      2.51      0.00
   18    8   22      4.17      0.00
   20    8   22     -0.61      0.00
    1    9   22     64.93      0.00
    3    9   22     13.59      0.00
    5    9   22     -3.05      0.00
    7    9   22     58.83      0.00
    9    9   22     23.97      0.00
   11    9   22      4.37      0.00
   13    9   22     10.05      0.00
   15    9   22    -20.63      0.00
   17    9   22    -18.31      0.00
   19    9   22     13.40      0.00
   21    9   22      1.58      0.00
    0   10   22    -33.49      0.00
    2   10   22     30.48      0.00
    4   10   22     61.19      0.00
    6   10   22     40.98      0.00
    8   10   22     46.77      0.00
   10   10   22     16.30      0.00
   12   10   22     31.74      0.00
   14   10   22      1.86      0.00
   16   10   22      1.58      0.00
   18   10   22      5.01      0.00
   20   10   22      0.80      0.00
    1   11   22    -23.04      0.00
    3   11   22    -20.12      0.00
    5   11   22    -39.39      0.00
    7   11   22     34.22      0.00
    9   11   22    -36.71      0.00
   11   11   22    -29.83      0.00
   13   11   22      9.44      0.00
   15   11   22    -11.22      0.00
   17   11   22    -18.50      0.00
   19   11   22    -13.02      0.00
   21   11   22     29.00      0.00
    0   12   22     -9.03      0.00
    2   12   22     -0.48      0.00
    4   12   22     -6.71      0.00
    6   12   22     -9.66      0.00
    8   12   22    -23.25      0.00
   10   12   22     11.90      0.00
   12   12   22      0.92      0.00
   14   12   22    -12.90      0.00
   16   12   22    -24.85      0.00
   18   12   22     14.19      0.00
   20   12   22     16.36      0.00
    1   13   22    -23.57      0.00
    3   13   22    -51.44      0.00
    5   13   22    -12.58      0.00
    7   13   22     14.65      0.00
    9   13   22     -6.93      0.00
   11   13   22    -43.43      0.00
   13   13   22    -24.83      0.00
   15   13   22     36.64      0.00
   17   13   22      0.64      0.00
   19   13   22     -7.78      0.00
   21   13   22      9.65      0.00
    0   14   22    -47.89      0.00
    2   14   22    -57.27      0.00
    4   14   22     16.32      0.00
    6   14   22      7.56      0.00
    8   14   22    -13.10      0.00
   10   14   22    -21.80      0.00
   12   14   22      0.42      0.00
   14   14   22      0.66      0.00
   16   14   22      5.52      0.00
   18   14   22      1.34      0.00
   20   14   22      8.11      0.00
    1   15   22     -3.33      0.00
    3   15   22      6.73      0.00
    5   15   22     39.63      0.00
    7   15   22     16.15      0.00
    9   15   22     13.92      0.00
   11   15   22    -34.91      0.00
   13   15   22    -10.61      0.00
   15   15   22     24.38      0.00
   17   15   22     -6.25      0.00
   19   15   22    -12.40      0.00
   21   15   22     10.50      0.00
    0   16   22    -22.29      0.00
    2   16   22      9.36      0.00
    4   16   22      4.45      0.00
    6   16   22      2.80      0.00
    8   16   22      1.01      0.00
   10   16   22      3.61      0.00
   12   16   22     -5.30      0.00
   14   16   22      6.17      0.00
   16   16   22      6.64      0.00
   18   16   22      8.13      0.00
   20   16   22      1.53      0.00
    1   17   22     17.16      0.00
    3   17   22      6.21      0.00
    5   17   22    -29.29      0.00
    7   17   22      7.27      0.00
    9   17   22     26.77      0.00
   11   17   22    -12.12      0.00
   13   17   22     -1.11      0.00
   15   17   22      8.48      0.00
   17   17   22     -7.93      0.00
   19   17   22    -14.07      0.00
   21   17   22      3.73      0.00
    0   18   22      6.24      0.00
    2   18   22     -0.11      0.00
    4   18   22     34.60      0.00
    6   18   22    -10.57      0.00
    8   18   22      5.30      0.00
   10   18   22      2.50      0.00
   12   18   22    -19.54      0.00
   14   18   22     -0.41      0.00
   16   18   22     -5.19      0.00
   18   18   22      5.45      0.00
   20   18   22      6.98      0.00
    1   19   22    -15.30      0.00
    3   19   22    -11.03      0.00
    5   19   22     -3.42      0.00
    7   19   22      9.37      0.00
    9   19   22     16.86      0.00
   11   19   22    -39.28      0.00
   13   19   22     -3.50      0.00
   15   19   22     18.84      0.00
   17   19   22     15.25      0.00
   19   19   22     10.95      0.00
   21   19   22     -3.94      0.00
    0   20   22    -31.42      0.00
    2   20   22      5.50      0.00
    4   20   22     -8.68      0.00
    6   20   22     13.01      0.00
    8   20   22     16.25      0.00
   10   20   22      0.89      0.00
   12   20   22    -11.55      0.00
   14   20   22     -4.96      0.00
   16   20   22     -2.43      0.00
   18   20   22     -1.06      0.00
   20   20   22    -13.15      0.00
    1   21   22     -9.36      0.00
    3   21   22    -13.87      0.00
    5   21   22      8.67      0.00
    7   21   22     24.66      0.00
    9   21   22      3.17      0.00
   11   21   22     -6.22      0.00
   13   21   22     13.76      0.00
   15   21   22     12.70      0.00
   17   21   22    -13.37      0.00
   19   21   22      6.49      0.00
   21   21   22     27.36      0.00
    0   22   22     13.73      0.00
    2   22   22     -6.32      0.00
    4   22   22      2.90      0.00
    6   22   22     -8.37      0.00
    8   22   22    -10.38      0.00
   10   22   22     -1.17      0.00
   12   22   22     13.78      0.00
   14   22   22    -14.58      0.00
   16   22   22     -7.12      0.00
   18   22   22     -8.72      0.00
   20   22   22      6.78      0.00
   22   22   22     14.26      0.00
    2    1   23      3.55      0.00
    4    1   23     22.62      0.00
    6    1   23     69.45      0.00
    8    1   23    -19.31      0.00
   10    1   23     17.00      0.00
   12    1   23     84.82      0.00
   14    1   23     35.82      0.00
   16    1   23      3.94      0.00
   18    1   23     43.72      0.00
   20    1   23     46.79      0.00
   22    1   23     16.98      0.00
    1    2   23    -21.76      0.00
    3    2   23      9.77      0.00
    5    2   23     10.78      0.00
    7    2   23     -9.23      0.00
    9    2   23      5.20      0.00
   11    2   23     19.95      0.00
   13    2   23     18.32      0.00
   15    2   23     25.87      0.00
   17    2   23     29.05      0.00
   19    2   23     14.56      0.00
   21    2   23     28.65      0.00
    2    3   23    -41.11      0.00
    4    3   23      1.20      0.00
    6    3   23     25.54      0.00
    8    3   23    -34.39      0.00
   10    3   23    -58.46      0.00
   12    3   23    -21.46      0.00
   14    3   23     -2.26      0.00
   16    3   23    -46.50      0.00
   18    3   23    -12.15      0.00
   20    3   23    -16.03      0.00
   22    3   23    -25.41      0.00
    1    4   23    -18.32      0.00
    3    4   23     23.96      0.00
    5    4   23     23.81      0.00
    7    4   23    -14.06      0.00
    9    4   23     -5.50      0.00
   11    4   23      1.48      0.00
   13    4   23     24.72      0.00
   15    4   23      1.90      0.00
   17    4   23     -2.80      0.00
   19    4   23     15.16      0.00
   21    4   23     27.13      0.00
    2    5   23    -47.54      0.00
    4    5   23    -17.95      0.00
    6    5   23    -14.71      0.00
    8    5   23     14.11      0.00
   10    5   23    -52.77      0.00
   12    5   23      2.33      0.00
   14    5   23    -12.50      0.00
   16    5   23    -18.94      0.00
   18    5   23      3.72      0.00
   20    5   23     -5.86      0.00
   22    5   23    -14.56      0.00
    1    6   23    -12.24      0.00
    3    6   23    -63.10      0.00
    5    6   23     -3.88      0.00
    7    6   23     26.63      0.00
    9    6   23    -15.75      0.00
   11    6   23    -15.49      0.00
   13    6   23    -33.67      0.00
   15    6   23     -4.62      0.00
   17    6   23      7.73      0.00
   19    6   23      6.64      0.00
   21    6   23      1.08      0.00
    2    7   23     29.04      0.00
    4    7   23      3.06      0.00
    6    7   23     26.51      0.00
    8    7   23      6.11      0.00
   10    7   23      4.21      0.00
   12    7   23     57.79      0.00
   14    7   23     49.59      0.00
   16    7   23      6.63      0.00
   18    7   23      4.57      0.00
   20    7   23     28.97      0.00
   22    7   23     26.84      0.00
    1    8   23     27.89      0.00
    3    8   23     -0.41      0.00
    5    8   23    -12.43      0.00
    7    8   23    -18.61      0.00
    9    8   23    -33.99      0.00
   11    8   23      9.39      0.00
   13    8   23      3.06      0.00
   15    8   23     -1.82      0.00
   17    8   23    -17.38      0.00
   19    8   23     14.16      0.00
   21    8   23     -9.18      0.00
    2    9   23    -18.95      0.00
    4    9   23     18.59      0.00
    6    9   23     24.63      0.00
    8    9   23     37.93      0.00
   10    9   23    -34.47      0.00
   12    9   23     10.63      0.00
   14    9   23     15.24      0.00
   16    9   23     -8.12      0.00
   18    9   23     15.13      0.00
   20    9   23     13.31      0.00
   22    9   23     19.40      0.00
    1   10   23    -36.10      0.00
    3   10   23     -6.64      0.00
    5   10   23     21.60      0.00
    7   10   23     28.29      0.00
    9   10   23     11.73      0.00
   11   10   23    -16.93      0.00
   13   10   23     21.94      0.00
   15   10   23     -3.59      0.00
   17   10   23     -2.43      0.00
   19   10   23     20.66      0.00
   21   10   23     -3.02      0.00
    2   11   23    -18.32      0.00
    4   11   23    -10.37      0.00
    6   11   23     14.34      0.00
    8   11   23    -19.43      0.00
   10   11   23     -4.50      0.00
   12   11   23     -4.85      0.00
   14   11   23    -20.30      0.00
   16   11   23    -21.48      0.00
   18   11   23     30.65      0.00
   20   11   23     26.84      0.00
   22   11   23    -10.65      0.00
    1   12   23     -9.26      0.00
    3   12   23     18.95      0.00
    5   12   23     38.08      0.00
    7   12   23      0.71      0.00
    9   12   23    -22.84      0.00
   11   12   23     17.50      0.00
   13   12   23     22.59      0.00
   15   12   23     18.72      0.00
   17   12   23     17.70      0.00
   19   12   23     15.38      0.00
   21   12   23     25.85      0.00
    2   13   23    -16.21      0.00
    4   13   23     10.04      0.00
    6   13   23     27.12      0.00
    8   13   23    -37.06      0.00
   10   13   23     -0.18      0.00
   12   13   23     29.44      0.00
   14   13   23      4.16      0.00
   16   13   23      8.16      0.00
   18   13   23      4.15      0.00
   20   13   23     11.55      0.00
   22   13   23     -9.37      0.00
    1   14   23    -19.38      0.00
    3   14   23      1.01      0.00
    5   14   23     36.88      0.00
    7   14   23    -13.82      0.00
    9   14   23    -23.38      0.00
   11   14   23      3.70      0.00
   13   14   23     15.21      0.00
   15   14   23      0.11      0.00
   17   14   23     -2.74      0.00
   19   14   23      9.98      0.00
   21   14   23     14.55      0.00
    2   15   23    -20.51      0.00
    4   15   23     16.59      0.00
    6   15   23      5.21      0.00
    8   15   23    -19.60      0.00
   10   15   23     -2.11      0.00
   12   15   23      3.11      0.00
   14   15   23      9.15      0.00
   16   15   23    -15.70      0.00
   18   15   23      5.30      0.00
   20   15   23      1.18      0.00
   22   15   23      4.99      0.00
    1   16   23    -14.03      0.00
    3   16   23     -0.78      0.00
    5   16   23     31.17      0.00
    7   16   23      5.78      0.00
    9   16   23    -29.73      0.00
   11   16   23     -8.64      0.00
   13   16   23     -1.59      0.00
   15   16   23     -5.58      0.00
   17   16   23    -28.56      0.00
   19   16   23    -11.41      0.00
   21   16   23      0.76      0.00
    2   17   23     11.57      0.00
    4   17   23     -9.50      0.00
    6   17   23    -11.17      0.00
    8   17   23    -28.78      0.00
   10   17   23    -16.37      0.00
   12   17   23      6.24      0.00
   14   17   23      2.62      0.00
   16   17   23     -2.59      0.00
   18   17   23    -16.29      0.00
   20   17   23     -4.35      0.00
   22   17   23    -17.43      0.00
    1   18   23     14.58      0.00
    3   18   23     10.13      0.00
    5   18   23      6.23      0.00
    7   18   23    -18.36      0.00
    9   18   23    -21.92      0.00
   11   18   23      2.16      0.00
   13   18   23     29.51      0.00
   15   18   23      6.42      0.00
   17   18   23    -12.17      0.00
   19   18   23      7.34      0.00
   21   18   23     -0.54      0.00
    2   19   23     -5.18      0.00
    4   19   23    -14.47      0.00
    6   19   23     26.09      0.00
    8   19   23     22.60      0.00
   10   19   23    -15.67      0.00
   12   19   23    -10.58      0.00
   14   19   23     19.46      0.00
   16   19   23     14.19      0.00
   18   19   23      2.69      0.00
   20   19   23      3.50      0.00
   22   19   23     -8.98      0.00
    1   20   23    -19.99      0.00
    3   20   23     -6.73      0.00
    5   20   23     18.81      0.00
    7   20   23     25.05      0.00
    9   20   23      2.48      0.00
   11   20   23    -12.40      0.00
   13   20   23     13.12      0.00
   15   20   23     10.00      0.00
   17   20   23     18.16      0.00
   19   20   23     21.83      0.00
   21   20   23      5.58      0.00
    2   21   23     13.79      0.00
    4   21   23     25.18      0.00
    6   21   23    -15.20      0.00
    8   21   23      8.94      0.00
   10   21   23     -4.01      0.00
   12   21   23      1.64      0.00
   14   21   23      9.17      0.00
   16   21   23     -2.97      0.00
   18   21   23      4.93      0.00
   20   21   23     -2.37      0.00
   22   21   23      1.28      0.00
    1   22   23      0.89      0.00
    3   22   23     13.52      0.00
    5   22   23     38.05      0.00
    7   22   23     -0.04      0.00
    9   22   23    -29.22      0.00
   11   22   23     -8.45      0.00
   13   22   23      7.32      0.00
   15   22   23      4.66      0.00
   17   22   23      7.10      0.00
   19   22   23      7.29      0.00
   21   22   23     22.90      0.00
    2   23   23      0.09      0.00
    4   23   23     16.13      0.00
    6   23   23    -14.60      0.00
    8   23   23    -24.56      0.00
   10   23   23     -9.48      0.00
   12   23   23     -8.17      0.00
   14   23   23    -13.94      0.00
   16   23   23     -4.05      0.00
   18   23   23    -14.12      0.00
   20   23   23    -10.62      0.00
   22   23   23      1.05      0.00
    0    0   24    -34.49      0.00
    2    0   24     16.05      0.00
    4    0   24     45.11      0.00
    6    0   24      3.35      0.00
    8    0   24    -54.31      0.00
   10    0   24    -10.59      0.00
   12    0   24     32.61      0.00
   14    0   24    -46.55      0.00
   16    0   24     -2.37      0.00
   18    0   24     21.58      0.00
   20    0   24      4.70      0.00
   22    0   24     -8.87      0.00
    1    1   24     25.60      0.00
    3    1   24     -1.59      0.00
    5    1   24    -40.89      0.00
    7    1   24    -11.18      0.00
    9    1   24     52.29      0.00
   11    1   24     17.19      0.00
   13    1   24    -16.29      0.00
   15    1   24     -8.20      0.00
   17    1   24      3.25      0.00
   19    1   24     -3.90      0.00
   21    1   24     -3.13      0.00
   23    1   24    -21.84      0.00
    0    2   24    -29.73      0.00
    2    2   24    -10.92      0.00
    4    2   24      3.21      0.00
    6    2   24    -25.51      0.00
    8    2   24    -45.39      0.00
   10    2   24     21.44      0.00
   12    2   24      2.09      0.00
   14    2   24    -34.74      0.00
   16    2   24    -15.17      0.00
   18    2   24     21.66      0.00
   20    2   24     -7.31      0.00
   22    2   24     -5.46      0.00
    1    3   24    -37.20      0.00
    3    3   24      5.84      0.00
    5    3   24      1.82      0.00
    7    3   24    -59.67      0.00
    9    3   24     18.90      0.00
   11    3   24    -24.52      0.00
   13    3   24    -18.74      0.00
   15    3   24      2.02      0.00
   17    3   24    -19.57      0.00
   19    3   24      4.42      0.00
   21    3   24     -4.48      0.00
   23    3   24     -0.85      0.00
    0    4   24    -83.61      0.00
    2    4   24     -2.14      0.00
    4    4   24     13.88      0.00
    6    4   24    -26.26      0.00
    8    4   24    -13.05      0.00
   10    4   24     -0.03      0.00
   12    4   24      8.10      0.00
   14    4   24    -42.91      0.00
   16    4   24     -7.18      0.00
   18    4   24      1.93      0.00
   20    4   24      5.50      0.00
   22    4   24     -5.27      0.00
    1    5   24    -35.21      0.00
    3    5   24     -1.88      0.00
    5    5   24    -25.07      0.00
    7    5   24    -43.32      0.00
    9    5   24    -23.66      0.00
   11    5   24    -36.21      0.00
   13    5   24     -4.92      0.00
   15    5   24     -1.41      0.00
   17    5   24      1.24      0.00
   19    5   24     -4.46      0.00
   21    5   24      1.65      0.00
   23    5   24      5.57      0.00
    0    6   24    -48.72      0.00
    2    6   24     21.16      0.00
    4    6   24     53.05      0.00
    6    6   24     -5.95      0.00
    8    6   24    -11.30      0.00
   10    6   24      9.03      0.00
   12    6   24     18.97      0.00
   14    6   24    -11.97      0.00
   16    6   24    -14.14      0.00
   18    6   24     14.66      0.00
   20    6   24     -0.25      0.00
   22    6   24     16.70      0.00
    1    7   24     17.22      0.00
    3    7   24      5.96      0.00
    5    7   24     17.84      0.00
    7    7   24     56.33      0.00
    9    7   24     13.40      0.00
   11    7   24      8.99      0.00
   13    7   24      6.98      0.00
   15    7   24     10.69      0.00
   17    7   24      7.54      0.00
   19    7   24    -15.29      0.00
   21    7   24    -28.46      0.00
   23    7   24    -11.72      0.00
    0    8   24    -24.56      0.00
    2    8   24    -43.80      0.00
    4    8   24     42.85      0.00
    6    8   24     14.44      0.00
    8    8   24    -23.57      0.00
   10    8   24      9.04      0.00
   12    8   24    -17.47      0.00
   14    8   24     -3.49      0.00
   16    8   24     15.46      0.00
   18    8   24     -1.50      0.00
   20    8   24     -1.25      0.00
   22    8   24    -32.86      0.00
    1    9   24     40.87      0.00
    3    9   24     -1.90      0.00
    5    9   24     33.26      0.00
    7    9   24     20.10      0.00
    9    9   24     -1.13      0.00
   11    9   24      6.68      0.00
   13    9   24      9.69      0.00
   15    9   24     -1.95      0.00
   17    9   24    -28.42      0.00
   19    9   24     -2.78      0.00
   21    9   24    -13.00      0.00
   23    9   24    -20.69      0.00
    0   10   24    -17.16      0.00
    2   10   24    -42.39      0.00
    4   10   24     -3.25      0.00
    6   10   24    -17.61      0.00
    8   10   24    -49.37      0.00
   10   10   24      8.23      0.00
   12   10   24    -13.14      0.00
   14   10   24    -14.27      0.00
   16   10   24    -19.65      0.00
   18   10   24     23.50      0.00
   20   10   24    -13.88      0.00
   22   10   24    -22.29      0.00
    1   11   24    -13.64      0.00
    3   11   24    -37.90      0.00
    5   11   24    -79.64      0.00
    7   11   24    -25.88      0.00
    9   11   24    -45.83      0.00
   11   11   24    -37.81      0.00
   13   11   24    -17.93      0.00
   15   11   24    -12.37      0.00
   17   11   24     -8.82      0.00
   19   11   24     -2.64      0.00
   21   11   24      3.35      0.00
   23   11   24      1.88      0.00
    0   12   24    -32.14      0.00
    2   12   24     12.77      0.00
    4   12   24     13.57      0.00
    6   12   24     -7.60      0.00
    8   12   24     -4.34      0.00
   10   12   24     -7.41      0.00
   12   12   24     28.78      0.00
   14   12   24    -21.12      0.00
   16   12   24      8.35      0.00
   18   12   24     32.09      0.00
   20   12   24     -5.22      0.00
   22   12   24     -9.23      0.00
    1   13   24    -52.99      0.00
    3   13   24    -19.74      0.00
    5   13   24    -30.74      0.00
    7   13   24    -26.37      0.00
    9   13   24    -13.95      0.00
   11   13   24    -35.77      0.00
   13   13   24     -3.21      0.00
   15   13   24     12.95      0.00
   17   13   24     -9.08      0.00
   19   13   24     -3.72      0.00
   21   13   24     -5.98      0.00
   23   13   24      1.52      0.00
    0   14   24    -45.10      0.00
    2   14   24     12.25      0.00
    4   14   24     17.64      0.00
    6   14   24     24.66      0.00
    8   14   24      6.50      0.00
   10   14   24     20.88      0.00
   12   14   24      0.33      0.00
   14   14   24      2.42      0.00
   16   14   24      9.64      0.00
   18   14   24     10.74      0.00
   20   14   24      2.17      0.00
   22   14   24    -11.86      0.00
    1   15   24     26.96      0.00
    3   15   24     35.46      0.00
    5   15   24     -7.06      0.00
    7   15   24     -7.78      0.00
    9   15   24     22.54      0.00
   11   15   24      9.20      0.00
   13   15   24     -3.47      0.00
   15   15   24      1.00      0.00
   17   15   24    -22.80      0.00
   19   15   24     -6.33      0.00
   21   15   24      0.19      0.00
   23   15   24     -6.91      0.00
    0   16   24    -16.26      0.00
    2   16   24     -7.82      0.00
    4   16   24     13.50      0.00
    6   16   24    -18.81      0.00
    8   16   24    -12.06      0.00
   10   16   24     15.11      0.00
   12   16   24     15.02      0.00
   14   16   24     -0.12      0.00
   16   16   24     -7.04      0.00
   18   16   24    -21.98      0.00
   20   16   24      0.16      0.00
   22   16   24      9.03      0.00
    1   17   24     16.15      0.00
    3   17   24     11.55      0.00
    5   17   24    -19.89      0.00
    7   17   24     -9.76      0.00
    9   17   24     11.94      0.00
   11   17   24     -4.10      0.00
   13   17   24     -4.33      0.00
   15   17   24     -8.70      0.00
   17   17   24    -11.52      0.00
   19   17   24     -9.32      0.00
   21   17   24     -9.44      0.00
   23   17   24    -15.99      0.00
    0   18   24    -12.92      0.00
    2   18   24      6.12      0.00
    4   18   24     -1.97      0.00
    6   18   24      2.44      0.00
    8   18   24    -17.14      0.00
   10   18   24     -1.21      0.00
   12   18   24    -12.99      0.00
   14   18   24     -3.56      0.00
   16   18   24     -1.85      0.00
   18   18   24      3.95      0.00
   20   18   24      3.26      0.00
   22   18   24      3.81      0.00
    1   19   24    -18.62      0.00
    3   19   24    -41.33      0.00
    5   19   24    -16.83      0.00
    7   19   24    -16.83      0.00
    9   19   24     -2.28      0.00
   11   19   24    -14.45      0.00
   13   19   24     -1.66      0.00
   15   19   24     19.58      0.00
   17   19   24    -16.92      0.00
   19   19   24     -2.27      0.00
   21   19   24    -11.39      0.00
   23   19   24     11.32      0.00
    0   20   24     22.75      0.00
    2   20   24     -2.03      0.00
    4   20   24     -3.69      0.00
    6   20   24    -14.80      0.00
    8   20   24     14.00      0.00
   10   20   24      1.68      0.00
   12   20   24     23.20      0.00
   14   20   24     -0.67      0.00
   16   20   24     -6.37      0.00
   18   20   24     -2.83      0.00
   20   20   24     -6.89      0.00
   22   20   24      8.20      0.00
    1   21   24     -1.25      0.00
    3   21   24     -7.40      0.00
    5   21   24    -19.14      0.00
    7   21   24    -18.18      0.00
    9   21   24    -10.43      0.00
   11   21   24    -18.05      0.00
   13   21   24     24.55      0.00
   15   21   24     10.29      0.00
   17   21   24     -6.75      0.00
   19   21   24      4.22      0.00
   21   21   24      3.29      0.00
   23   21   24     14.55      0.00
    0   22   24     -2.09      0.00
    2   22   24     16.28      0.00
    4   22   24      6.93      0.00
    6   22   24      5.73      0.00
    8   22   24     -4.10      0.00
   10   22   24     -7.79      0.00
   12   22   24      9.13      0.00
   14   22   24      4.58      0.00
   16   22   24      4.31      0.00
   18   22   24    -10.78      0.00
   20   22   24    -18.75      0.00
   22   22   24     -7.06      0.00
    1   23   24     13.02      0.00
    3   23   24      3.31      0.00
    5   23   24    -19.51      0.00
    7   23   24      6.07      0.00
    9   23   24     -0.18      0.00
   11   23   24    -18.41      0.00
   13   23   24      4.03      0.00
   15   23   24     13.13      0.00
   17   23   24     -4.36      0.00
   19   23   24     -7.01      0.00
   21   23   24      1.58      0.00
   23   23   24    -15.53      0.00
    0   24   24     11.88      0.00
    2   24   24     -1.69      0.00
    4   24   24     16.46      0.00
    6   24   24     -8.40      0.00
    8   24   24      6.52      0.00
   10   24   24    -11.66      0.00
   12   24   24     -8.95      0.00
   14   24   24     -4.53      0.00
   16   24   24      9.79      0.00
   18   24   24     -6.53      0.00
   20   24   24      6.26      0.00
   22   24   24     -4.06      0.00
   24   24   24     -6.26      0.00
    2    1   25     -7.87      0.00
    4    1   25     13.74      0.00
    6    1   25     25.09      0.00
    8    1   25    -14.94      0.00
   10    1   25     38.52      0.00
   12    1   25     39.46      0.00
   14    1   25     18.40      0.00
   16    1   25     35.49      0.00
   18    1   25     46.21      0.00
   20    1   25     14.72      0.00
   22    1   25      9.00      0.00
   24    1   25     11.46      0.00
    1    2   25     32.06      0.00
    3    2   25    -11.98      0.00
    5    2   25    -31.45      0.00
    7    2   25    -36.19      0.00
    9    2   25    -42.18      0.00
   11    2   25    -20.67      0.00
   13    2   25    -36.00      0.00
   15    2   25    -37.86      0.00
   17    2   25    -34.04      0.00
   19    2   25    -21.00      0.00
   21    2   25    -23.22      0.00
   23    2   25    -26.40      0.00
    2    3   25     -3.47      0.00
    4    3   25     -9.92      0.00
    6    3   25     10.01      0.00
    8    3   25    -12.21      0.00
   10    3   25    -44.53      0.00
   12    3   25    -31.29      0.00
   14    3   25    -34.17      0.00
   16    3   25    -16.10      0.00
   18    3   25    -12.94      0.00
   20    3   25    -10.05      0.00
   22    3   25    -13.97      0.00
   24    3   25     -6.63      0.00
    1    4   25     -2.41      0.00
    3    4   25    -39.81      0.00
    5    4   25      3.59      0.00
    7    4   25      3.35      0.00
    9    4   25    -14.39      0.00
   11    4   25    -20.08      0.00
   13    4   25      5.16      0.00
   15    4   25     10.37      0.00
   17    4   25    -14.35      0.00
   19    4   25      3.77      0.00
   21    4   25     -9.21      0.00
   23    4   25     -1.99      0.00
    2    5   25     10.94      0.00
    4    5   25    -12.22      0.00
    6    5   25    -24.14      0.00
    8    5   25     13.25      0.00
   10    5   25    -42.63      0.00
   12    5   25    -26.09      0.00
   14    5   25      0.20      0.00
   16    5   25    -22.45      0.00
   18    5   25     17.55      0.00
   20    5   25      3.40      0.00
   22    5   25    -13.71      0.00
   24    5   25    -21.82      0.00
    1    6   25     10.04      0.00
    3    6   25     -5.20      0.00
    5    6   25     17.19      0.00
    7    6   25     14.73      0.00
    9    6   25      8.29      0.00
   11    6   25     33.69      0.00
   13    6   25     23.79      0.00
   15    6   25     15.74      0.00
   17    6   25     25.66      0.00
   19    6   25     28.39      0.00
   21    6   25     11.19      0.00
   23    6   25      8.20      0.00
    2    7   25     58.10      0.00
    4    7   25     27.89      0.00
    6    7   25     -2.98      0.00
    8    7   25      1.32      0.00
   10    7   25     -9.98      0.00
   12    7   25     49.34      0.00
   14    7   25     41.32      0.00
   16    7   25     17.14      0.00
   18    7   25      6.94      0.00
   20    7   25     21.90      0.00
   22    7   25     14.70      0.00
   24    7   25     -5.28      0.00
    1    8   25     -0.15      0.00
    3    8   25     -5.22      0.00
    5    8   25     15.98      0.00
    7    8   25      3.20      0.00
    9    8   25    -35.41      0.00
   11    8   25     13.23      0.00
   13    8   25     17.19      0.00
   15    8   25      2.69      0.00
   17    8   25     -5.45      0.00
   19    8   25      0.51      0.00
   21    8   25     10.60      0.00
   23    8   25     -2.06      0.00
    2    9   25      2.56      0.00
    4    9   25      2.34      0.00
    6    9   25     26.83      0.00
    8    9   25     -1.30      0.00
   10    9   25      4.71      0.00
   12    9   25     -8.19      0.00
   14    9   25      9.27      0.00
   16    9   25      5.91      0.00
   18    9   25     -7.52      0.00
   20    9   25    -11.01      0.00
   22    9   25      0.99      0.00
   24    9   25     16.05      0.00
    1   10   25    -35.68      0.00
    3   10   25     -9.65      0.00
    5   10   25     -4.97      0.00
    7   10   25     -7.37      0.00
    9   10   25    -28.50      0.00
   11   10   25    -25.03      0.00
   13   10   25     22.83      0.00
   15   10   25    -25.04      0.00
   17   10   25    -32.06      0.00
   19   10   25      1.56      0.00
   21   10   25    -15.84      0.00
   23   10   25      1.07      0.00
    2   11   25    -10.81      0.00
    4   11   25     19.95      0.00
    6   11   25    -31.10      0.00
    8   11   25    -25.54      0.00
   10   11   25    -14.38      0.00
   12   11   25     -5.45      0.00
   14   11   25     -6.33      0.00
   16   11   25      2.08      0.00
   18   11   25      1.80      0.00
   20   11   25    -15.65      0.00
   22   11   25    -15.54      0.00
   24   11   25      9.74      0.00
    1   12   25    -26.94      0.00
    3   12   25     -5.48      0.00
    5   12   25    -11.32      0.00
    7   12   25      4.68      0.00
    9   12   25    -23.46      0.00
   11   12   25    -23.06      0.00
   13   12   25     21.24      0.00
   15   12   25    -24.57      0.00
   17   12   25    -20.56      0.00
   19   12   25     -4.24      0.00
   21   12   25     -8.44      0.00
   23   12   25    -14.96      0.00
    2   13   25     -9.51      0.00
    4   13   25      5.00      0.00
    6   13   25     22.52      0.00
    8   13   25    -10.69      0.00
   10   13   25      1.80      0.00
   12   13   25      6.39      0.00
   14   13   25     -1.63      0.00
   16   13   25      9.29      0.00
   18   13   25      9.29      0.00
   20   13   25     -6.22      0.00
   22   13   25     -4.53      0.00
   24   13   25     -1.61      0.00
    1   14   25     -5.55      0.00
    3   14   25    -31.84      0.00
    5   14   25      9.97      0.00
    7   14   25     28.56      0.00
    9   14   25    -23.44      0.00
   11   14   25     -2.18      0.00
   13   14   25     -2.87      0.00
   15   14   25    -13.54      0.00
   17   14   25     -4.63      0.00
   19   14   25      3.97      0.00
   21   14   25     -1.21      0.00
   23   14   25    -22.05      0.00
    2   15   25     13.73      0.00
    4   15   25     28.37      0.00
    6   15   25     15.77      0.00
    8   15   25     -5.33      0.00
   10   15   25    -17.14      0.00
   12   15   25     12.39      0.00
   14   15   25     -3.80      0.00
   16   15   25     -6.86      0.00
   18   15   25      1.08      0.00
   20   15   25      4.63      0.00
   22   15   25     -0.01      0.00
   24   15   25    -11.90      0.00
    1   16   25     -8.60      0.00
    3   16   25      0.13      0.00
    5   16   25     20.89      0.00
    7   16   25     -1.49      0.00
    9   16   25    -11.83      0.00
   11   16   25      6.82      0.00
   13   16   25     33.11      0.00
   15   16   25    -16.98      0.00
   17   16   25    -13.50      0.00
   19   16   25      6.18      0.00
   21   16   25    -11.43      0.00
   23   16   25     -6.89      0.00
    2   17   25      5.93      0.00
    4   17   25    -16.19      0.00
    6   17   25    -13.64      0.00
    8   17   25    -20.88      0.00
   10   17   25    -10.29      0.00
   12   17   25     -3.26      0.00
   14   17   25     -3.66      0.00
   16   17   25    -16.90      0.00
   18   17   25      2.52      0.00
   20   17   25     11.23      0.00
   22   17   25    -16.72      0.00
   24   17   25    -23.67      0.00
    1   18   25    -12.49      0.00
    3   18   25    -13.47      0.00
    5   18   25     19.58      0.00
    7   18   25      9.10      0.00
    9   18   25     -6.03      0.00
   11   18   25      1.04      0.00
   13   18   25     15.62      0.00
   15   18   25    -15.46      0.00
   17   18   25    -15.44      0.00
   19   18   25      9.30      0.00
   21   18   25      5.34      0.00
   23   18   25     -4.44      0.00
    2   19   25    -19.02      0.00
    4   19   25    -18.64      0.00
    6   19   25     17.13      0.00
    8   19   25     20.97      0.00
   10   19   25      2.88      0.00
   12   19   25    -17.26      0.00
   14   19   25     -1.23      0.00
   16   19   25     -3.18      0.00
   18   19   25     -6.14      0.00
   20   19   25     14.14      0.00
   22   19   25      2.55      0.00
   24   19   25     -5.97      0.00
    1   20   25     -2.97      0.00
    3   20   25    -31.12      0.00
    5   20   25     13.20      0.00
    7   20   25     13.63      0.00
    9   20   25    -28.11      0.00
   11   20   25    -15.41      0.00
   13   20   25     14.06      0.00
   15   20   25    -20.65      0.00
   17   20   25    -20.33      0.00
   19   20   25      0.42      0.00
   21   20   25     -8.56      0.00
   23   20   25     -4.95      0.00
    2   21   25      8.43      0.00
    4   21   25     14.71      0.00
    6   21   25      4.20      0.00
    8   21   25     -1.37      0.00
   10   21   25     12.65      0.00
   12   21   25      6.69      0.00
   14   21   25     12.97      0.00
   16   21   25      2.25      0.00
   18   21   25     -3.61      0.00
   20   21   25      4.55      0.00
   22   21   25     11.41      0.00
   24   21   25      4.47      0.00
    1   22   25    -16.83      0.00
    3   22   25    -18.91      0.00
    5   22   25      8.92      0.00
    7   22   25     14.44      0.00
    9   22   25    -26.23      0.00
   11   22   25    -12.77      0.00
   13   22   25     17.85      0.00
   15   22   25    -16.03      0.00
   17   22   25    -18.54      0.00
   19   22   25      5.31      0.00
   21   22   25      2.64      0.00
   23   22   25    -10.50      0.00
    2   23   25     -5.98      0.00
    4   23   25     -7.74      0.00
    6   23   25      1.48      0.00
    8   23   25     -2.79      0.00
   10   23   25      5.36      0.00
   12   23   25      2.06      0.00
   14   23   25    -11.08      0.00
   16   23   25     -3.87      0.00
   18   23   25     -1.52      0.00
   20   23   25      1.48      0.00
   22   23   25     -4.98      0.00
   24   23   25    -14.93      0.00
    1   24   25     -2.27      0.00
    3   24   25    -10.53      0.00
    5   24   25      1.45      0.00
    7   24   25      3.03      0.00
    9   24   25     -5.38      0.00
   11   24   25     18.24      0.00
   13   24   25      9.26      0.00
   15   24   25     -7.87      0.00
   17   24   25    -11.67      0.00
   19   24   25     15.31      0.00
   21   24   25      4.45      0.00
   23   24   25    -24.55      0.00
    2   25   25    -15.13      0.00
    4   25   25      7.10      0.00
    6   25   25     14.56      0.00
    8   25   25     -4.13      0.00
   10   25   25    -16.38      0.00
   12   25   25     -9.36      0.00
   14   25   25     -0.94      0.00
   16   25   25     -9.68      0.00
   18   25   25    -10.92      0.00
   20   25   25     -3.21      0.00
   22   25   25     -9.66      0.00
   24   25   25     -8.47      0.00
    0    0   26    -73.83      0.00
    2    0   26     -2.47      0.00
    4    0   26     16.32      0.00
    6    0   26     -4.51      0.00
    8    0   26    -42.45      0.00
   10    0   26     -7.48      0.00
   12    0   26      7.87      0.00
   14    0   26    -20.37      0.00
   16    0   26      9.07      0.00
   18    0   26      7.90      0.00
   20    0   26    -34.29      0.00
   22    0   26      5.35      0.00
   24    0   26      6.03      0.00
    1    1   26     30.72      0.00
    3    1   26     19.22      0.00
    5    1   26     19.53      0.00
    7    1   26      9.46      0.00
    9    1   26     38.93      0.00
   11    1   26     26.60      0.00
   13    1   26      6.19      0.00
   15    1   26     -2.18      0.00
   17    1   26      1.44      0.00
   19    1   26     -7.00      0.00
   21    1   26    -16.12      0.00
   23    1   26    -15.14      0.00
   25    1   26    -18.72      0.00
    0    2   26    -48.85      0.00
    2    2   26      3.36      0.00
    4    2   26     -6.34      0.00
    6    2   26    -16.06      0.00
    8    2   26    -51.91      0.00
   10    2   26    -21.10      0.00
   12    2   26      5.00      0.00
   14    2   26    -47.51      0.00
   16    2   26     16.30      0.00
   18    2   26    -13.85      0.00
   20    2   26    -12.70      0.00
   22    2   26     -9.30      0.00
   24    2   26      9.58      0.00
    1    3   26     26.35      0.00
    3    3   26     33.25      0.00
    5    3   26     36.46      0.00
    7    3   26      5.62      0.00
    9    3   26     32.23      0.00
   11    3   26     19.56      0.00
   13    3   26    -12.44      0.00
   15    3   26     11.03      0.00
   17    3   26      1.51      0.00
   19    3   26    -13.17      0.00
   21    3   26     -2.10      0.00
   23    3   26    -12.02      0.00
   25    3   26      3.23      0.00
    0    4   26     33.08      0.00
    2    4   26     -4.53      0.00
    4    4   26      4.19      0.00
    6    4   26    -26.35      0.00
    8    4   26    -49.21      0.00
   10    4   26     18.04      0.00
   12    4   26      1.12      0.00
   14    4   26    -13.05      0.00
   16    4   26    -10.32      0.00
   18    4   26     13.96      0.00
   20    4   26    -20.53      0.00
   22    4   26    -20.73      0.00
   24    4   26    -12.62      0.00
    1    5   26    -20.36      0.00
    3    5   26      0.29      0.00
    5    5   26     -3.32      0.00
    7    5   26    -33.44      0.00
    9    5   26    -17.95      0.00
   11    5   26     -3.31      0.00
   13    5   26     -4.13      0.00
   15    5   26      6.22      0.00
   17    5   26      3.68      0.00
   19    5   26      5.83      0.00
   21    5   26      2.18      0.00
   23    5   26     16.32      0.00
   25    5   26     11.37      0.00
    0    6   26      2.74      0.00
    2    6   26      9.70      0.00
    4    6   26     47.90      0.00
    6    6   26      0.47      0.00
    8    6   26    -12.61      0.00
   10    6   26     19.90      0.00
   12    6   26     42.72      0.00
   14    6   26     -0.92      0.00
   16    6   26      2.50      0.00
   18    6   26     11.33      0.00
   20    6   26    -11.91      0.00
   22    6   26    -20.08      0.00
   24    6   26     -4.66      0.00
    1    7   26    -34.47      0.00
    3    7   26      0.97      0.00
    5    7   26    -16.63      0.00
    7    7   26     15.88      0.00
    9    7   26     -8.22      0.00
   11    7   26      4.39      0.00
   13    7   26      3.71      0.00
   15    7   26    -16.56      0.00
   17    7   26     20.97      0.00
   19    7   26    -12.94      0.00
   21    7   26    -16.96      0.00
   23    7   26      1.22      0.00
   25    7   26      8.65      0.00
    0    8   26    -13.80      0.00
    2    8   26    -13.59      0.00
    4    8   26     -2.49      0.00
    6    8   26    -34.95      0.00
    8    8   26    -35.71      0.00
   10    8   26      1.85      0.00
   12    8   26      2.59      0.00
   14    8   26     -9.49      0.00
   16    8   26     -8.07      0.00
   18    8   26      0.51      0.00
   20    8   26    -22.56      0.00
   22    8   26     -2.04      0.00
   24    8   26     -2.21      0.00
    1    9   26     43.94      0.00
    3    9   26     12.57      0.00
    5    9   26     19.33      0.00
    7    9   26      5.84      0.00
    9    9   26     11.82      0.00
   11    9   26     41.57      0.00
   13    9   26      2.73      0.00
   15    9   26    -20.64      0.00
   17    9   26    -14.89      0.00
   19    9   26      2.56      0.00
   21    9   26     -2.98      0.00
   23    9   26    -16.65      0.00
   25    9   26    -15.77      0.00
    0   10   26    -18.64      0.00
    2   10   26    -49.96      0.00
    4   10   26    -25.43      0.00
    6   10   26    -51.75      0.00
    8   10   26    -39.10      0.00
   10   10   26      1.21      0.00
   12   10   26    -15.51      0.00
   14   10   26    -26.22      0.00
   16   10   26    -14.78      0.00
   18   10   26    -17.63      0.00
   20   10   26     -4.96      0.00
   22   10   26     -2.70      0.00
   24   10   26     13.83      0.00
    1   11   26     19.67      0.00
    3   11   26      0.15      0.00
    5   11   26     50.30      0.00
    7   11   26     -7.07      0.00
    9   11   26     -1.36      0.00
   11   11   26      8.30      0.00
   13   11   26     21.56      0.00
   15   11   26     -0.16      0.00
   17   11   26      4.01      0.00
   19   11   26     24.39      0.00
   21   11   26      0.82      0.00
   23   11   26      4.61      0.00
   25   11   26     -5.35      0.00
    0   12   26    -27.13      0.00
    2   12   26     12.35      0.00
    4   12   26      9.83      0.00
    6   12   26      8.36      0.00
    8   12   26    -13.39      0.00
   10   12   26     21.18      0.00
   12   12   26     33.91      0.00
   14   12   26      0.30      0.00
   16   12   26     -8.14      0.00
   18   12   26     -3.13      0.00
   20   12   26    -11.99      0.00
   22   12   26      6.96      0.00
   24   12   26     -9.41      0.00
    1   13   26    -19.38      0.00
    3   13   26     -2.04      0.00
    5   13   26     -6.13      0.00
    7   13   26      9.89      0.00
    9   13   26     -2.06      0.00
   11   13   26      3.88      0.00
   13   13   26      2.80      0.00
   15   13   26    -11.44      0.00
   17   13   26     13.75      0.00
   19   13   26     10.61      0.00
   21   13   26    -11.31      0.00
   23   13   26     14.13      0.00
   25   13   26     12.65      0.00
    0   14   26     20.55      0.00
    2   14   26     25.25      0.00
    4   14   26     20.85      0.00
    6   14   26      4.64      0.00
    8   14   26     -5.52      0.00
   10   14   26      9.96      0.00
   12   14   26     21.99      0.00
   14   14   26      3.55      0.00
   16   14   26     14.75      0.00
   18   14   26      8.73      0.00
   20   14   26    -14.39      0.00
   22   14   26    -18.13      0.00
   24   14   26      6.36      0.00
    1   15   26      2.73      0.00
    3   15   26     34.29      0.00
    5   15   26     -2.33      0.00
    7   15   26    -24.25      0.00
    9   15   26     -1.71      0.00
   11   15   26     15.14      0.00
   13   15   26      3.73      0.00
   15   15   26    -12.62      0.00
   17   15   26     -9.08      0.00
   19   15   26     -7.48      0.00
   21   15   26     -6.18      0.00
   23   15   26     12.11      0.00
   25   15   26     21.17      0.00
    0   16   26    -26.91      0.00
    2   16   26     -1.74      0.00
    4   16   26     -0.43      0.00
    6   16   26     -8.99      0.00
    8   16   26    -37.23      0.00
   10   16   26      1.75      0.00
   12   16   26     -2.32      0.00
   14   16   26      2.21      0.00
   16   16   26      6.59      0.00
   18   16   26     12.49      0.00
   20   16   26     -8.39      0.00
   22   16   26    -22.63      0.00
   24   16   26     -3.78      0.00
    1   17   26      5.21      0.00
    3   17   26     33.09      0.00
    5   17   26      1.75      0.00
    7   17   26     -9.24      0.00
    9   17   26     -0.39      0.00
   11   17   26     11.73      0.00
   13   17   26    -28.20      0.00
   15   17   26      4.63      0.00
   17   17   26     15.43      0.00
   19   17   26      6.67      0.00
   21   17   26     -6.38      0.00
   23   17   26    -10.24      0.00
   25   17   26     -1.29      0.00
    0   18   26    -23.25      0.00
    2   18   26     -0.63      0.00
    4   18   26     -2.67      0.00
    6   18   26    -14.64      0.00
    8   18   26     13.23      0.00
   10   18   26     -7.04      0.00
   12   18   26     11.29      0.00
   14   18   26    -21.12      0.00
   16   18   26     -1.49      0.00
   18   18   26      8.95      0.00
   20   18   26      3.03      0.00
   22   18   26     -2.98      0.00
   24   18   26      0.03      0.00
    1   19   26    -12.06      0.00
    3   19   26     -4.07      0.00
    5   19   26      4.64      0.00
    7   19   26    -12.23      0.00
    9   19   26      3.33      0.00
   11   19   26     32.73      0.00
   13   19   26      5.37      0.00
   15   19   26     -9.21      0.00
   17   19   26      3.04      0.00
   19   19   26     -4.73      0.00
   21   19   26      6.55      0.00
   23   19   26      6.13      0.00
   25   19   26      4.55      0.00
    0   20   26      8.76      0.00
    2   20   26      5.95      0.00
    4   20   26      2.10      0.00
    6   20   26     11.52      0.00
    8   20   26      1.35      0.00
   10   20   26     13.36      0.00
   12   20   26     -9.16      0.00
   14   20   26      1.99      0.00
   16   20   26      5.07      0.00
   18   20   26      8.89      0.00
   20   20   26      5.40      0.00
   22   20   26    -14.67      0.00
   24   20   26      7.36      0.00
    1   21   26     -6.20      0.00
    3   21   26      3.93      0.00
    5   21   26     29.69      0.00
    7   21   26     -0.17      0.00
    9   21   26    -24.17      0.00
   11   21   26      6.78      0.00
   13   21   26      9.24      0.00
   15   21   26     -4.38      0.00
   17   21   26      4.36      0.00
   19   21   26      2.77      0.00
   21   21   26     -5.12      0.00
   23   21   26     -0.40      0.00
   25   21   26     10.08      0.00
    0   22   26     -2.94      0.00
    2   22   26    -13.24      0.00
    4   22   26     31.58      0.00
    6   22   26      7.07      0.00
    8   22   26     -4.96      0.00
   10   22   26    -17.06      0.00
   12   22   26      2.66      0.00
   14   22   26     12.97      0.00
   16   22   26      8.68      0.00
   18   22   26      2.43      0.00
   20   22   26     -6.23      0.00
   22   22   26     -5.51      0.00
   24   22   26     -1.14      0.00
    1   23   26     14.05      0.00
    3   23   26      2.09      0.00
    5   23   26      7.89      0.00
    7   23   26      2.23      0.00
    9   23   26      4.84      0.00
   11   23   26      1.23      0.00
   13   23   26      5.97      0.00
   15   23   26     -7.20      0.00
   17   23   26      2.08      0.00
   19   23   26      2.05      0.00
   21   23   26     -2.82      0.00
   23   23   26     -0.41      0.00
   25   23   26     -2.99      0.00
    0   24   26      1.64      0.00
    2   24   26     14.01      0.00
    4   24   26     -1.30      0.00
    6   24   26     -3.72      0.00
    8   24   26      3.25      0.00
   10   24   26      3.55      0.00
   12   24   26    -10.40      0.00
   14   24   26      4.32      0.00
   16   24   26      5.57      0.00
   18   24   26      2.08      0.00
   20   24   26     -9.23      0.00
   22   24   26      2.39      0.00
   24   24   26      1.69      0.00
    1   25   26      0.53      0.00
    3   25   26      0.22      0.00
    5   25   26      2.25      0.00
    7   25   26     -2.87      0.00
    9   25   26      3.31      0.00
   11   25   26      6.97      0.00
   13   25   26      7.67      0.00
   15   25   26     -1.46      0.00
   17   25   26     -4.32      0.00
   19   25   26     -7.84      0.00
   21   25   26     -4.43      0.00
   23   25   26     -5.80      0.00
    0   26   26     27.41      0.00
    2   26   26      5.88      0.00
    4   26   26     11.96      0.00
    6   26   26     -9.90      0.00
    8   26   26     10.82      0.00
   10   26   26     -3.49      0.00
   12   26   26     -3.11      0.00
   14   26   26      0.57      0.00
   16   26   26      0.44      0.00
   18   26   26      8.45      0.00
   20   26   26     13.47      0.00
    2    1   27     -2.33      0.00
    4    1   27     14.90      0.00
    6    1   27    -29.83      0.00
    8    1   27    -37.81      0.00
   10    1   27     10.04      0.00
   12    1   27      0.28      0.00
   14    1   27    -20.53      0.00
   16    1   27      0.15      0.00
   18    1   27    -19.90      0.00
   20    1   27    -11.61      0.00
   22    1   27      4.68      0.00
   24    1   27    -10.59      0.00
   26    1   27     -9.12      0.00
    1    2   27     14.33      0.00
    3    2   27      4.43      0.00
    5    2   27      1.13      0.00
    7    2   27    -21.58      0.00
    9    2   27    -10.31      0.00
   11    2   27     -2.08      0.00
   13    2   27    -18.74      0.00
   15    2   27    -14.46      0.00
   17    2   27    -26.33      0.00
   19    2   27    -15.79      0.00
   21    2   27     -6.04      0.00
   23    2   27      1.87      0.00
   25    2   27      6.56      0.00
    2    3   27    -18.42      0.00
    4    3   27     -9.57      0.00
    6    3   27     -6.51      0.00
    8    3   27      2.22      0.00
   10    3   27      8.60      0.00
   12    3   27     -9.62      0.00
   14    3   27      1.34      0.00
   16    3   27      9.66      0.00
   18    3   27    -17.75      0.00
   20    3   27    -12.40      0.00
   22    3   27      3.91      0.00
   24    3   27      5.98      0.00
   26    3   27      9.98      0.00
    1    4   27      6.45      0.00
    3    4   27    -27.74      0.00
    5    4   27     -1.89      0.00
    7    4   27    -12.83      0.00
    9    4   27    -10.45      0.00
   11    4   27     11.52      0.00
   13    4   27      5.16      0.00
   15    4   27     26.61      0.00
   17    4   27      1.66      0.00
   19    4   27      2.50      0.00
   21    4   27      4.58      0.00
   23    4   27     12.85      0.00
   25    4   27     15.74      0.00
    2    5   27      8.94      0.00
    4    5   27    -17.96      0.00
    6    5   27    -27.73      0.00
    8    5   27     34.13      0.00
   10    5   27     40.20      0.00
   12    5   27      0.58      0.00
   14    5   27     17.72      0.00
   16    5   27      6.77      0.00
   18    5   27     18.37      0.00
   20    5   27     19.70      0.00
   22    5   27    -14.79      0.00
   24    5   27     15.99      0.00
   26    5   27     14.26      0.00
    1    6   27    -15.67      0.00
    3    6   27     -2.66      0.00
    5    6   27      1.24      0.00
    7    6   27      7.45      0.00
    9    6   27     11.78      0.00
   11    6   27    -11.86      0.00
   13    6   27     14.39      0.00
   15    6   27      5.61      0.00
   17    6   27     16.38      0.00
   19    6   27      6.84      0.00
   21    6   27     -1.92      0.00
   23    6   27      8.50      0.00
   25    6   27      4.09      0.00
    2    7   27     18.43      0.00
    4    7   27    -12.96      0.00
    6    7   27     -4.62      0.00
    8    7   27      9.76      0.00
   10    7   27     12.96      0.00
   12    7   27     -0.28      0.00
   14    7   27     22.44      0.00
   16    7   27     -4.98      0.00
   18    7   27    -10.17      0.00
   20    7   27     -2.77      0.00
   22    7   27     11.59      0.00
   24    7   27      1.29      0.00
   26    7   27     -2.61      0.00
    1    8   27     14.41      0.00
    3    8   27      8.64      0.00
    5    8   27     -6.72      0.00
    7    8   27     -8.24      0.00
    9    8   27     -9.85      0.00
   11    8   27      5.11      0.00
   13    8   27      0.69      0.00
   15    8   27    -22.60      0.00
   17    8   27    -10.41      0.00
   19    8   27     -7.46      0.00
   21    8   27      2.89      0.00
   23    8   27      0.17      0.00
   25    8   27     -8.65      0.00
    2    9   27      5.21      0.00
    4    9   27    -27.28      0.00
    6    9   27      7.40      0.00
    8    9   27     -5.09      0.00
   10    9   27      2.88      0.00
   12    9   27    -30.31      0.00
   14    9   27    -44.52      0.00
   16    9   27     -1.53      0.00
   18    9   27    -40.19      0.00
   20    9   27     -7.62      0.00
   22    9   27     -7.52      0.00
   24    9   27     -8.81      0.00
   26    9   27     -5.89      0.00
    1   10   27    -13.56      0.00
    3   10   27     -6.82      0.00
    5   10   27     -1.93      0.00
    7   10   27     -1.62      0.00
    9   10   27    -25.65      0.00
   11   10   27      4.65      0.00
   13   10   27     19.59      0.00
   15   10   27      6.12      0.00
   17   10   27      4.68      0.00
   19   10   27      0.78      0.00
   21   10   27      6.79      0.00
   23   10   27      2.23      0.00
   25   10   27      3.11      0.00
    2   11   27    -15.66      0.00
    4   11   27     10.69      0.00
    6   11   27    -16.29      0.00
    8   11   27    -18.98      0.00
   10   11   27     14.50      0.00
   12   11   27    -25.50      0.00
   14   11   27    -19.26      0.00
   16   11   27    -25.30      0.00
   18   11   27     -9.10      0.00
   20   11   27     -1.15      0.00
   22   11   27     -3.68      0.00
   24   11   27     -8.78      0.00
   26   11   27    -11.69      0.00
    1   12   27    -27.64      0.00
    3   12   27     -7.52      0.00
    5   12   27      1.23      0.00
    7   12   27      7.53      0.00
    9   12   27     15.86      0.00
   11   12   27     -0.94      0.00
   13   12   27     -4.78      0.00
   15   12   27    -13.93      0.00
   17   12   27      2.97      0.00
   19   12   27     17.55      0.00
   21   12   27     -2.03      0.00
   23   12   27      4.31      0.00
   25   12   27      0.20      0.00
    2   13   27    -34.64      0.00
    4   13   27     35.00      0.00
    6   13   27     -7.59      0.00
    8   13   27     27.05      0.00
   10   13   27     16.45      0.00
   12   13   27     19.83      0.00
   14   13   27      6.45      0.00
   16   13   27      9.86      0.00
   18   13   27      6.42      0.00
   20   13   27      1.73      0.00
   22   13   27      8.74      0.00
   24   13   27      2.57      0.00
   26   13   27      2.44      0.00
    1   14   27     -2.32      0.00
    3   14   27     -7.24      0.00
    5   14   27      0.78      0.00
    7   14   27     -0.72      0.00
    9   14   27    -10.42      0.00
   11   14   27     -5.31      0.00
   13   14   27     -8.05      0.00
   15   14   27    -11.79      0.00
   17   14   27     -3.72      0.00
   19   14   27    -11.02      0.00
   21   14   27     -8.90      0.00
   23   14   27     -7.58      0.00
   25   14   27    -13.06      0.00
    2   15   27     14.04      0.00
    4   15   27      3.96      0.00
    6   15   27      6.88      0.00
    8   15   27      0.71      0.00
   10   15   27     24.61      0.00
   12   15   27     30.69      0.00
   14   15   27      2.10      0.00
   16   15   27     10.73      0.00
   18   15   27      4.22      0.00
   20   15   27     -1.20      0.00
   22   15   27     13.28      0.00
   24   15   27     -0.95      0.00
   26   15   27     16.49      0.00
    1   16   27     -9.62      0.00
    3   16   27    -19.54      0.00
    5   16   27     -9.92      0.00
    7   16   27     -0.14      0.00
    9   16   27      2.88      0.00
   11   16   27     -1.18      0.00
   13   16   27     15.45      0.00
   15   16   27     -6.82      0.00
   17   16   27     -0.33      0.00
   19   16   27     -4.05      0.00
   21   16   27     -1.29      0.00
   23   16   27      2.53      0.00
   25   16   27     -7.93      0.00
    2   17   27      0.17      0.00
    4   17   27    -19.32      0.00
    6   17   27     -2.17      0.00
    8   17   27      7.78      0.00
   10   17   27    -14.67      0.00
   12   17   27     -4.63      0.00
   14   17   27    -19.42      0.00
   16   17   27      0.12      0.00
   18   17   27     -3.00      0.00
   20   17   27    -12.84      0.00
   22   17   27      4.77      0.00
   24   17   27      6.13      0.00
   26   17   27      3.09      0.00
    1   18   27     13.90      0.00
    3   18   27      6.66      0.00
    5   18   27      2.15      0.00
    7   18   27     13.83      0.00
    9   18   27     10.29      0.00
   11   18   27     21.68      0.00
   13   18   27     14.17      0.00
   15   18   27    -14.47      0.00
   17   18   27     -0.07      0.00
   19   18   27     22.71      0.00
   21   18   27     13.63      0.00
   23   18   27     12.82      0.00
   25   18   27     -0.21      0.00
    2   19   27     -0.34      0.00
    4   19   27     -6.96      0.00
    6   19   27      8.19      0.00
    8   19   27     -1.87      0.00
   10   19   27    -10.30      0.00
   12   19   27    -21.55      0.00
   14   19   27      5.28      0.00
   16   19   27     -0.39      0.00
   18   19   27     -6.43      0.00
   20   19   27    -16.87      0.00
   22   19   27     -2.27      0.00
   24   19   27      8.45      0.00
   26   19   27     -0.82      0.00
    1   20   27     -4.61      0.00
    3   20   27     -7.80      0.00
    5   20   27     14.72      0.00
    7   20   27      8.21      0.00
    9   20   27    -14.69      0.00
   11   20   27      2.80      0.00
   13   20   27      2.35      0.00
   15   20   27      9.84      0.00
   17   20   27     -0.10      0.00
   19   20   27      6.89      0.00
   21   20   27     -1.90      0.00
   23   20   27     -7.39      0.00
   25   20   27     11.30      0.00
    2   21   27     12.79      0.00
    4   21   27     13.77      0.00
    6   21   27      4.62      0.00
    8   21   27     -3.27      0.00
   10   21   27     12.73      0.00
   12   21   27      6.38      0.00
   14   21   27     15.13      0.00
   16   21   27      6.29      0.00
   18   21   27     -0.54      0.00
   20   21   27     15.36      0.00
   22   21   27     15.18      0.00
   24   21   27      8.16      0.00
    1   22   27    -13.84      0.00
    3   22   27    -12.51      0.00
    5   22   27      8.84      0.00
    7   22   27    -10.87      0.00
    9   22   27     -0.51      0.00
   11   22   27      2.20      0.00
   13   22   27     -8.58      0.00
   15   22   27    -13.57      0.00
   17   22   27    -12.50      0.00
   19   22   27      6.51      0.00
   21   22   27     -4.64      0.00
   23   22   27      4.21      0.00
    2   23   27     -2.45      0.00
    4   23   27      3.59      0.00
    6   23   27     -0.51      0.00
    8   23   27     -1.93      0.00
   10   23   27      9.86      0.00
   12   23   27     18.15      0.00
   14   23   27     15.18      0.00
   16   23   27     -6.05      0.00
   18   23   27     -0.37      0.00
   20   23   27      2.94      0.00
   22   23   27      5.20      0.00
    1   24   27      4.00      0.00
    3   24   27     12.01      0.00
    5   24   27      4.00      0.00
    7   24   27    -13.76      0.00
    9   24   27    -14.06      0.00
   11   24   27     12.75      0.00
   13   24   27     23.89      0.00
   15   24   27     -7.09      0.00
   17   24   27    -20.34      0.00
   19   24   27    -17.98      0.00
   21   24   27     13.18      0.00
    2   25   27     -9.27      0.00
    4   25   27     -1.52      0.00
    6   25   27     18.05      0.00
    8   25   27     -6.08      0.00
   10   25   27    -21.93      0.00
   12   25   27      9.04      0.00
   14   25   27      7.07      0.00
   16   25   27     -1.30      0.00
   18   25   27     -3.62      0.00
   20   25   27      5.52      0.00
    1   26   27      1.86      0.00
    3   26   27      0.96      0.00
    5   26   27     13.37      0.00
    7   26   27     -1.82      0.00
    9   26   27     -5.64      0.00
   11   26   27      1.17      0.00
   13   26   27     18.16      0.00
   15   26   27      5.45      0.00
   17   26   27    -12.55      0.00
   19   26   27     10.26      0.00
    2   27   27     -8.52      0.00
    4   27   27     -6.60      0.00
    6   27   27      7.23      0.00
    8   27   27      1.08      0.00
   10   27   27      1.08      0.00
   12   27   27      0.10      0.00
   14   27   27     -3.89      0.00
   16   27   27      0.35      0.00
   18   27   27      7.49      0.00
    0    0   28    -12.64      0.00
    2    0   28     48.77      0.00
    4    0   28     59.42      0.00
    6    0   28     29.57      0.00
    8    0   28     16.36      0.00
   10    0   28     33.83      0.00
   12    0   28     41.40      0.00
   14    0   28     11.71      0.00
   16    0   28     14.45      0.00
   18    0   28    -15.12      0.00
   20    0   28      7.01      0.00
   22    0   28    -20.07      0.00
   24    0   28      1.57      0.00
   26    0   28    -13.09      0.00
    1    1   28     20.82      0.00
    3    1   28     22.71      0.00
    5    1   28    -17.07      0.00
    7    1   28     13.41      0.00
    9    1   28     31.16      0.00
   11    1   28     18.18      0.00
   13    1   28    -14.01      0.00
   15    1   28     -9.71      0.00
   17    1   28     -5.53      0.00
   19    1   28     -2.96      0.00
   21    1   28      5.85      0.00
   23    1   28    -11.25      0.00
   25    1   28    -19.99      0.00
   27    1   28    -21.92      0.00
    0    2   28     17.60      0.00
    2    2   28     17.66      0.00
    4    2   28      4.12      0.00
    6    2   28    -11.50      0.00
    8    2   28     11.45      0.00
   10    2   28     13.20      0.00
   12    2   28    -15.12      0.00
   14    2   28     -5.51      0.00
   16    2   28     -3.12      0.00
   18    2   28     15.66      0.00
   20    2   28     -7.23      0.00
   22    2   28     10.48      0.00
   24    2   28      9.70      0.00
   26    2   28     16.39      0.00
    1    3   28     -2.52      0.00
    3    3   28     43.93      0.00
    5    3   28     11.11      0.00
    7    3   28     15.07      0.00
    9    3   28     25.77      0.00
   11    3   28     27.71      0.00
   13    3   28     -3.64      0.00
   15    3   28     11.78      0.00
   17    3   28     -7.75      0.00
   19    3   28    -15.58      0.00
   21    3   28     13.07      0.00
   23    3   28      1.29      0.00
   25    3   28    -14.09      0.00
   27    3   28    -17.73      0.00
    0    4   28     -7.69      0.00
    2    4   28    -22.90      0.00
    4    4   28    -19.75      0.00
    6    4   28    -22.01      0.00
    8    4   28    -20.76      0.00
   10    4   28      0.64      0.00
   12    4   28     -7.55      0.00
   14    4   28    -22.59      0.00
   16    4   28     -2.89      0.00
   18    4   28      8.46      0.00
   20    4   28     15.08      0.00
   22    4   28      4.00      0.00
   24    4   28     19.90      0.00
   26    4   28      2.39      0.00
    1    5   28    -20.26      0.00
    3    5   28      5.16      0.00
    5    5   28      0.33      0.00
    7    5   28      2.07      0.00
    9    5   28      1.61      0.00
   11    5   28     19.79      0.00
   13    5   28     -2.61      0.00
   15    5   28      7.59      0.00
   17    5   28     -0.57      0.00
   19    5   28      3.81      0.00
   21    5   28     19.42      0.00
   23    5   28      7.15      0.00
   25    5   28      2.68      0.00
   27    5   28     -2.77      0.00
    0    6   28    -22.91      0.00
    2    6   28    -29.01      0.00
    4    6   28     29.59      0.00
    6    6   28     38.92      0.00
    8    6   28      5.02      0.00
   10    6   28     15.87      0.00
   12    6   28      2.55      0.00
   14    6   28     17.04      0.00
   16    6   28     -9.22      0.00
   18    6   28      6.75      0.00
   20    6   28     -8.44      0.00
   22    6   28      8.75      0.00
   24    6   28     12.69      0.00
   26    6   28     -0.94      0.00
    1    7   28     -2.84      0.00
    3    7   28    -27.98      0.00
    5    7   28    -15.98      0.00
    7    7   28    -10.72      0.00
    9    7   28    -13.24      0.00
   11    7   28      9.06      0.00
   13    7   28      1.48      0.00
   15    7   28    -26.85      0.00
   17    7   28     12.54      0.00
   19    7   28     -1.60      0.00
   21    7   28    -13.71      0.00
   23    7   28      8.95      0.00
   25    7   28      3.23      0.00
   27    7   28     11.31      0.00
    0    8   28     13.59      0.00
    2    8   28     29.06      0.00
    4    8   28     10.40      0.00
    6    8   28      4.30      0.00
    8    8   28     27.64      0.00
   10    8   28     -9.30      0.00
   12    8   28     14.49      0.00
   14    8   28     -6.14      0.00
   16    8   28     10.81      0.00
   18    8   28     -1.32      0.00
   20    8   28     -9.72      0.00
   22    8   28     -1.35      0.00
   24    8   28      7.10      0.00
   26    8   28     -2.96      0.00
    1    9   28     14.53      0.00
    3    9   28     -0.63      0.00
    5    9   28     26.63      0.00
    7    9   28      9.91      0.00
    9    9   28     -5.23      0.00
   11    9   28     21.00      0.00
   13    9   28      7.20      0.00
   15    9   28    -26.98      0.00
   17    9   28      7.80      0.00
   19    9   28      2.84      0.00
   21    9   28      1.30      0.00
   23    9   28     -1.22      0.00
   25    9   28     -5.39      0.00
   27    9   28     -4.72      0.00
    0   10   28    -28.17      0.00
    2   10   28      5.43      0.00
    4   10   28     14.59      0.00
    6   10   28     -2.66      0.00
    8   10   28    -13.62      0.00
   10   10   28      5.21      0.00
   12   10   28     -4.16      0.00
   14   10   28     -6.87      0.00
   16   10   28      5.21      0.00
   18   10   28      3.89      0.00
   20   10   28     14.44      0.00
   22   10   28     -1.84      0.00
   24   10   28    -19.31      0.00
   26   10   28      7.96      0.00
    1   11   28     20.11      0.00
    3   11   28      4.22      0.00
    5   11   28     41.13      0.00
    7   11   28      5.87      0.00
    9   11   28     22.89      0.00
   11   11   28     21.71      0.00
   13   11   28      7.40      0.00
   15   11   28     11.08      0.00
   17   11   28      4.82      0.00
   19   11   28     26.40      0.00
   21   11   28      6.71      0.00
   23   11   28      0.63      0.00
   25   11   28     -2.21      0.00
   27   11   28      5.46      0.00
    0   12   28    -14.11      0.00
    2   12   28     -9.01      0.00
    4   12   28      6.09      0.00
    6   12   28    -15.22      0.00
    8   12   28      7.72      0.00
   10   12   28     29.18      0.00
   12   12   28      1.23      0.00
   14   12   28     -9.17      0.00
   16   12   28     -0.82      0.00
   18   12   28      2.90      0.00
   20   12   28      9.95      0.00
   22   12   28     -9.97      0.00
   24   12   28     -3.35      0.00
   26   12   28     -6.43      0.00
    1   13   28    -28.63      0.00
    3   13   28     13.72      0.00
    5   13   28     13.71      0.00
    7   13   28      4.58      0.00
    9   13   28      0.66      0.00
   11   13   28    -12.08      0.00
   13   13   28      9.85      0.00
   15   13   28     -5.18      0.00
   17   13   28     16.09      0.00
   19   13   28      2.86      0.00
   21   13   28     13.39      0.00
   23   13   28     16.73      0.00
   25   13   28     -0.90      0.00
   27   13   28      5.27      0.00
    0   14   28    -20.30      0.00
    2   14   28      4.81      0.00
    4   14   28      3.33      0.00
    6   14   28      7.54      0.00
    8   14   28     -6.65      0.00
   10   14   28     -5.33      0.00
   12   14   28     -2.20      0.00
   14   14   28      9.54      0.00
   16   14   28      3.09      0.00
   18   14   28     13.48      0.00
   20   14   28     -8.77      0.00
   22   14   28     -0.82      0.00
   24   14   28     10.31      0.00
   26   14   28      8.72      0.00
    1   15   28    -19.57      0.00
    3   15   28     18.69      0.00
    5   15   28      0.56      0.00
    7   15   28      9.53      0.00
    9   15   28     -1.30      0.00
   11   15   28      6.30      0.00
   13   15   28     -6.54      0.00
   15   15   28     -6.35      0.00
   17   15   28      8.85      0.00
   19   15   28      8.08      0.00
   21   15   28      1.05      0.00
   23   15   28      3.05      0.00
   25   15   28      0.69      0.00
   27   15   28     -2.41      0.00
    0   16   28    -21.54      0.00
    2   16   28    -21.12      0.00
    4   16   28     15.43      0.00
    6   16   28      3.22      0.00
    8   16   28     -0.68      0.00
   10   16   28    -21.78      0.00
   12   16   28     -0.46      0.00
   14   16   28      0.36      0.00
   16   16   28     -0.57      0.00
   18   16   28     -0.52      0.00
   20   16   28      2.42      0.00
   22   16   28    -15.68      0.00
   24   16   28      4.01      0.00
   26   16   28     -3.68      0.00
    1   17   28      9.87      0.00
    3   17   28     11.62      0.00
    5   17   28     26.07      0.00
    7   17   28     -5.56      0.00
    9   17   28      7.74      0.00
   11   17   28     20.39      0.00
   13   17   28    -17.75      0.00
   15   17   28     -6.85      0.00
   17   17   28     13.52      0.00
   19   17   28     -2.32      0.00
   21   17   28     -1.58      0.00
   23   17   28      3.39      0.00
   25   17   28     12.11      0.00
   27   17   28      7.74      0.00
    0   18   28     -1.66      0.00
    2   18   28      5.56      0.00
    4   18   28     -7.40      0.00
    6   18   28      0.43      0.00
    8   18   28      8.39      0.00
   10   18   28     18.37      0.00
   12   18   28      2.75      0.00
   14   18   28     -5.12      0.00
   16   18   28     -5.27      0.00
   18   18   28    -15.01      0.00
   20   18   28     -3.35      0.00
   22   18   28     -7.44      0.00
   24   18   28      3.54      0.00
   26   18   28      5.91      0.00
    1   19   28     -9.58      0.00
    3   19   28      2.81      0.00
    5   19   28      2.18      0.00
    7   19   28     -6.14      0.00
    9   19   28    -21.19      0.00
   11   19   28     19.28      0.00
   13   19   28    -16.30      0.00
   15   19   28      1.96      0.00
   17   19   28     25.61      0.00
   19   19   28     -4.45      0.00
   21   19   28     -2.99      0.00
   23   19   28      7.87      0.00
   25   19   28     13.97      0.00
    0   20   28     10.93      0.00
    2   20   28      8.64      0.00
    4   20   28     12.84      0.00
    6   20   28      8.77      0.00
    8   20   28      1.17      0.00
   10   20   28     -6.08      0.00
   12   20   28     -6.53      0.00
   14   20   28     -6.08      0.00
   16   20   28     19.77      0.00
   18   20   28     10.78      0.00
   20   20   28     -6.39      0.00
   22   20   28     -3.06      0.00
   24   20   28     -3.78      0.00
    1   21   28    -13.34      0.00
    3   21   28     -1.08      0.00
    5   21   28     11.25      0.00
    7   21   28     -7.59      0.00
    9   21   28     -5.38      0.00
   11   21   28      6.18      0.00
   13   21   28      1.81      0.00
   15   21   28     -1.66      0.00
   17   21   28     11.82      0.00
   19   21   28      8.28      0.00
   21   21   28     16.75      0.00
   23   21   28      3.20      0.00
    0   22   28    -24.53      0.00
    2   22   28      3.92      0.00
    4   22   28     -0.02      0.00
    6   22   28     -3.87      0.00
    8   22   28    -14.81      0.00
   10   22   28     11.60      0.00
   12   22   28      1.80      0.00
   14   22   28      5.63      0.00
   16   22   28    -11.18      0.00
   18   22   28      9.75      0.00
   20   22   28      4.23      0.00
   22   22   28     11.27      0.00
    1   23   28     20.73      0.00
    3   23   28      5.62      0.00
    5   23   28      8.39      0.00
    7   23   28     13.81      0.00
    9   23   28     25.43      0.00
   11   23   28     14.32      0.00
   13   23   28      0.63      0.00
   15   23   28     -9.61      0.00
   17   23   28     -5.01      0.00
   19   23   28      8.45      0.00
   21   23   28      3.65      0.00
    0   24   28     -7.56      0.00
    2   24   28    -16.95      0.00
    4   24   28      1.64      0.00
    6   24   28     -5.17      0.00
    8   24   28     -2.87      0.00
   10   24   28      0.40      0.00
   12   24   28    -13.13      0.00
   14   24   28    -14.29      0.00
   16   24   28     -6.40      0.00
   18   24   28      5.10      0.00
   20   24   28     -0.71      0.00
    1   25   28      9.34      0.00
    3   25   28     14.20      0.00
    5   25   28      7.76      0.00
    7   25   28      5.79      0.00
    9   25   28     14.14      0.00
   11   25   28     13.04      0.00
   13   25   28      2.78      0.00
   15   25   28    -22.93      0.00
   17   25   28     -2.35      0.00
   19   25   28      5.74      0.00
    0   26   28      8.37      0.00
    2   26   28      3.88      0.00
    4   26   28     -8.74      0.00
    6   26   28     -4.98      0.00
    8   26   28     -5.52      0.00
   10   26   28      6.60      0.00
   12   26   28     -2.27      0.00
   14   26   28    -15.59      0.00
   16   26   28    -11.23      0.00
   18   26   28     12.33      0.00
    1   27   28    -10.71      0.00
    3   27   28     -8.88      0.00
    5   27   28      1.71      0.00
    7   27   28    -13.38      0.00
    9   27   28     -6.75      0.00
   11   27   28      4.18      0.00
   13   27   28     -3.84      0.00
   15   27   28      2.44      0.00
   17   27   28      0.77      0.00
    0   28   28      0.33      0.00
    2   28   28    -10.88      0.00
    4   28   28      8.78      0.00
    6   28   28    -22.32      0.00
    8   28   28     -7.87      0.00
   10   28   28     -1.48      0.00
   12   28   28     13.60      0.00
   14   28   28     -7.98      0.00
   16   28   28     -6.64      0.00
    2    1   29    -19.41      0.00
    4    1   29     11.39      0.00
    6    1   29     -5.94      0.00
    8    1   29     14.86      0.00
   10    1   29     14.59      0.00
   12    1   29     13.24      0.00
   14    1   29      1.94      0.00
   16    1   29     11.61      0.00
   18    1   29      5.65      0.00
   20    1   29     -0.35      0.00
   22    1   29     11.97      0.00
   24    1   29      3.70      0.00
   26    1   29     -1.62      0.00
   28    1   29    -10.15      0.00
    1    2   29     26.53      0.00
    3    2   29     26.74      0.00
    5    2   29      3.69      0.00
    7    2   29      5.73      0.00
    9    2   29      8.88      0.00
   11    2   29     10.49      0.00
   13    2   29      7.33      0.00
   15    2   29      4.60      0.00
   17    2   29     -0.93      0.00
   19    2   29     15.08      0.00
   21    2   29     15.71      0.00
   23    2   29      3.29      0.00
   25    2   29    -11.04      0.00
   27    2   29      0.30      0.00
    2    3   29     -5.37      0.00
    4    3   29     -8.21      0.00
    6    3   29    -23.58      0.00
    8    3   29    -14.66      0.00
   10    3   29     -5.99      0.00
   12    3   29    -11.22      0.00
   14    3   29     -1.55      0.00
   16    3   29      7.47      0.00
   18    3   29     -8.49      0.00
   20    3   29     -1.19      0.00
   22    3   29     -3.68      0.00
   24    3   29      0.14      0.00
   26    3   29     -3.66      0.00
   28    3   29      0.15      0.00
    1    4   29    -11.42      0.00
    3    4   29     -6.80      0.00
    5    4   29     -5.57      0.00
    7    4   29     23.06      0.00
    9    4   29      6.07      0.00
   11    4   29     -6.05      0.00
   13    4   29      3.62      0.00
   15    4   29     15.50      0.00
   17    4   29     30.01      0.00
   19    4   29     16.63      0.00
   21    4   29     21.25      0.00
   23    4   29     -3.80      0.00
   25    4   29     -0.32      0.00
   27    4   29     15.67      0.00
    2    5   29      3.84      0.00
    4    5   29     -4.38      0.00
    6    5   29     16.11      0.00
    8    5   29     -1.69      0.00
   10    5   29      3.58      0.00
   12    5   29    -38.61      0.00
   14    5   29     -5.47      0.00
   16    5   29     -5.29      0.00
   18    5   29     -9.43      0.00
   20    5   29      7.00      0.00
   22    5   29    -12.56      0.00
   24    5   29    -11.32      0.00
   26    5   29     -5.26      0.00
   28    5   29     -7.32      0.00
    1    6   29    -18.63      0.00
    3    6   29     -4.48      0.00
    5    6   29      1.73      0.00
    7    6   29    -21.31      0.00
    9    6   29      7.99      0.00
   11    6   29    -13.19      0.00
   13    6   29    -19.27      0.00
   15    6   29     -8.12      0.00
   17    6   29     -3.54      0.00
   19    6   29      3.59      0.00
   21    6   29     -0.16      0.00
   23    6   29     -2.06      0.00
   25    6   29     -2.31      0.00
   27    6   29     -3.03      0.00
    2    7   29     32.96      0.00
    4    7   29     19.27      0.00
    6    7   29     -9.07      0.00
    8    7   29      1.29      0.00
   10    7   29     21.63      0.00
   12    7   29     11.79      0.00
   14    7   29     12.62      0.00
   16    7   29     -6.19      0.00
   18    7   29     -2.08      0.00
   20    7   29     19.53      0.00
   22    7   29     10.41      0.00
   24    7   29      8.51      0.00
   26    7   29    -16.86      0.00
   28    7   29     -0.15      0.00
    1    8   29    -27.45      0.00
    3    8   29     10.58      0.00
    5    8   29     -6.08      0.00
    7    8   29    -21.04      0.00
    9    8   29      7.13      0.00
   11    8   29     -8.46      0.00
   13    8   29    -12.26      0.00
   15    8   29    -20.47      0.00
   17    8   29      9.95      0.00
   19    8   29    -17.65      0.00
   21    8   29    -12.49      0.00
   23    8   29     -0.64      0.00
   25    8   29     -8.37      0.00
   27    8   29     -6.49      0.00
    2    9   29     -9.07      0.00
    4    9   29    -15.36      0.00
    6    9   29      9.67      0.00
    8    9   29      9.98      0.00
   10    9   29     12.42      0.00
   12    9   29     -9.77      0.00
   14    9   29     12.24      0.00
   16    9   29     22.06      0.00
   18    9   29      5.83      0.00
   20    9   29      2.78      0.00
   22    9   29      9.84      0.00
   24    9   29     -3.73      0.00
   26    9   29     11.15      0.00
   28    9   29      5.80      0.00
    1   10   29     14.46      0.00
    3   10   29     -5.72      0.00
    5   10   29      9.87      0.00
    7   10   29     -2.58      0.00
    9   10   29    -17.64      0.00
   11   10   29     23.53      0.00
   13   10   29      1.18      0.00
   15   10   29     23.92      0.00
   17   10   29     15.84      0.00
   19   10   29      2.45      0.00
   21   10   29     18.34      0.00
   23   10   29     -0.49      0.00
   25   10   29     -3.68      0.00
   27   10   29    -11.58      0.00
    2   11   29     -0.99      0.00
    4   11   29     -2.79      0.00
    6   11   29    -10.79      0.00
    8   11   29      1.27      0.00
   10   11   29      3.44      0.00
   12   11   29    -16.15      0.00
   14   11   29    -29.10      0.00
   16   11   29     -9.39      0.00
   18   11   29    -17.06      0.00
   20   11   29     -3.28      0.00
   22   11   29     -9.20      0.00
   24   11   29     -8.94      0.00
   26   11   29     -1.87      0.00
   28   11   29     -7.72      0.00
    1   12   29     20.05      0.00
    3   12   29     12.48      0.00
    5   12   29     13.63      0.00
    7   12   29      9.10      0.00
    9   12   29      8.91      0.00
   11   12   29      9.19      0.00
   13   12   29     -8.49      0.00
   15   12   29     17.10      0.00
   17   12   29     17.67      0.00
   19   12   29     32.19      0.00
   21   12   29     10.93      0.00
   23   12   29     -8.32      0.00
   25   12   29     12.97      0.00
   27   12   29     10.03      0.00
    2   13   29      0.21      0.00
    4   13   29     26.67      0.00
    6   13   29     -7.61      0.00
    8   13   29    -11.83      0.00
   10   13   29      3.19      0.00
   12   13   29     -4.16      0.00
   14   13   29      5.96      0.00
   16   13   29     -9.93      0.00
   18   13   29      1.41      0.00
   20   13   29    -22.97      0.00
   22   13   29    -15.62      0.00
   24   13   29     -2.88      0.00
   26   13   29      5.55      0.00
   28   13   29     -0.97      0.00
    1   14   29      6.16      0.00
    3   14   29     21.14      0.00
    5   14   29      5.69      0.00
    7   14   29    -11.53      0.00
    9   14   29      8.65      0.00
   11   14   29    -11.83      0.00
   13   14   29      0.37      0.00
   15   14   29      1.77      0.00
   17   14   29      8.94      0.00
   19   14   29     17.09      0.00
   21   14   29      9.07      0.00
   23   14   29     -7.66      0.00
   25   14   29     -1.85      0.00
   27   14   29     20.73      0.00
    2   15   29     -9.25      0.00
    4   15   29     19.68      0.00
    6   15   29     19.45      0.00
    8   15   29      7.47      0.00
   10   15   29      6.28      0.00
   12   15   29     30.87      0.00
   14   15   29     -4.92      0.00
   16   15   29     23.31      0.00
   18   15   29      7.58      0.00
   20   15   29      6.94      0.00
   22   15   29     14.37      0.00
   24   15   29     14.95      0.00
   26   15   29     -1.06      0.00
    1   16   29      3.21      0.00
    3   16   29      9.17      0.00
    5   16   29      0.63      0.00
    7   16   29    -13.57      0.00
    9   16   29     -2.90      0.00
   11   16   29      5.91      0.00
   13   16   29     -1.18      0.00
   15   16   29      5.31      0.00
   17   16   29      1.48      0.00
   19   16   29     -9.55      0.00
   21   16   29     12.28      0.00
   23   16   29      4.78      0.00
   25   16   29     -9.96      0.00
   27   16   29     -1.55      0.00
    2   17   29     16.66      0.00
    4   17   29     16.75      0.00
    6   17   29      4.51      0.00
    8   17   29     -3.66      0.00
   10   17   29      3.85      0.00
   12   17   29     16.32      0.00
   14   17   29      6.06      0.00
   16   17   29     -6.93      0.00
   18   17   29      9.69      0.00
   20   17   29     -6.36      0.00
   22   17   29     26.37      0.00
   24   17   29     17.64      0.00
   26   17   29    -12.18      0.00
    1   18   29      0.20      0.00
    3   18   29     24.35      0.00
    5   18   29     -8.15      0.00
    7   18   29     -9.75      0.00
    9   18   29      1.06      0.00
   11   18   29     15.71      0.00
   13   18   29      3.91      0.00
   15   18   29      3.90      0.00
   17   18   29      8.45      0.00
   19   18   29     -1.85      0.00
   21   18   29      0.38      0.00
   23   18   29      8.36      0.00
   25   18   29     -0.84      0.00
    2   19   29     -5.56      0.00
    4   19   29    -13.08      0.00
    6   19   29     -3.61      0.00
    8   19   29      4.76      0.00
   10   19   29    -27.47      0.00
   12   19   29     -5.93      0.00
   14   19   29     13.11      0.00
   16   19   29      5.13      0.00
   18   19   29    -17.06      0.00
   20   19   29    -22.16      0.00
   22   19   29     -1.43      0.00
   24   19   29      1.01      0.00
    1   20   29     -3.08      0.00
    3   20   29      1.15      0.00
    5   20   29      1.29      0.00
    7   20   29     -0.68      0.00
    9   20   29     -1.48      0.00
   11   20   29      2.01      0.00
   13   20   29     -4.60      0.00
   15   20   29     16.40      0.00
   17   20   29      4.28      0.00
   19   20   29     13.28      0.00
   21   20   29      5.03      0.00
   23   20   29     17.49      0.00
    2   21   29     14.79      0.00
    4   21   29     -7.53      0.00
    6   21   29     -0.22      0.00
    8   21   29     -2.93      0.00
   10   21   29      4.03      0.00
   12   21   29     -5.27      0.00
   14   21   29      8.65      0.00
   16   21   29      1.67      0.00
   18   21   29    -10.14      0.00
   20   21   29      8.29      0.00
   22   21   29      6.19      0.00
    1   22   29     -3.55      0.00
    3   22   29      0.43      0.00
    5   22   29     10.98      0.00
    7   22   29      2.10      0.00
    9   22   29     -1.33      0.00
   11   22   29      4.66      0.00
   13   22   29     -6.34      0.00
   15   22   29     14.12      0.00
   17   22   29      4.73      0.00
   19   22   29     -6.78      0.00
   21   22   29      7.58      0.00
    2   23   29      0.68      0.00
    4   23   29     17.48      0.00
    6   23   29      2.85      0.00
    8   23   29     -0.48      0.00
   10   23   29     -1.37      0.00
   12   23   29      0.51      0.00
   14   23   29     18.05      0.00
   16   23   29     11.10      0.00
   18   23   29      0.10      0.00
   20   23   29      0.74      0.00
    1   24   29     15.40      0.00
    3   24   29     15.65      0.00
    5   24   29     15.11      0.00
    7   24   29    -10.24      0.00
    9   24   29      2.42      0.00
   11   24   29     -5.05      0.00
   13   24   29     12.98      0.00
   15   24   29     10.18      0.00
   17   24   29      3.31      0.00
   19   24   29     10.92      0.00
    2   25   29    -12.92      0.00
    4   25   29      5.10      0.00
    6   25   29     18.64      0.00
    8   25   29      8.91      0.00
   10   25   29    -17.65      0.00
   12   25   29    -10.64      0.00
   14   25   29    -11.84      0.00
   16   25   29     10.33      0.00
   18   25   29     22.28      0.00
    1   26   29     -9.07      0.00
    3   26   29     -4.40      0.00
    5   26   29      8.25      0.00
    7   26   29     -0.34      0.00
    9   26   29     -0.92      0.00
   11   26   29     -8.02      0.00
   13   26   29     11.80      0.00
   15   26   29     -0.66      0.00
   17   26   29     16.80      0.00
    2   27   29    -17.05      0.00
    4   27   29     -9.72      0.00
    6   27   29     -0.19      0.00
    8   27   29      2.28      0.00
   10   27   29     -8.88      0.00
   12   27   29     -5.73      0.00
   14   27   29      3.05      0.00
   16   27   29      2.93      0.00
    1   28   29     -1.82      0.00
    3   28   29    -17.72      0.00
    5   28   29      8.46      0.00
    7   28   29      2.99      0.00
    9   28   29     -3.58      0.00
   11   28   29      2.99      0.00
   13   28   29     -2.84      0.00
    2   29   29      0.12      0.00
    4   29   29      4.10      0.00
    6   29   29      3.85      0.00
    8   29   29     -9.80      0.00
   10   29   29     -5.62      0.00
   12   29   29      5.57      0.00
    0    0   30     -5.94      0.00
    2    0   30    -10.42      0.00
    4    0   30     29.04      0.00
    6    0   30     10.05      0.00
    8    0   30     26.03      0.00
   10    0   30     30.42      0.00
   12    0   30      2.11      0.00
   14    0   30     10.31      0.00
   16    0   30    -17.97      0.00
   18    0   30      9.33      0.00
   20    0   30      4.68      0.00
   22    0   30     10.68      0.00
   24    0   30     -1.56      0.00
   26    0   30      0.22      0.00
   28    0   30    -11.41      0.00
    1    1   30     11.91      0.00
    3    1   30     -5.41      0.00
    5    1   30    -24.06      0.00
    7    1   30    -15.45      0.00
    9    1   30     -4.79      0.00
   11    1   30     -8.86      0.00
   13    1   30    -15.43      0.00
   15    1   30     -5.79      0.00
   17    1   30      2.21      0.00
   19    1   30      4.43      0.00
   21    1   30      3.42      0.00
   23    1   30     -0.50      0.00
   25    1   30      6.20      0.00
   27    1   30      8.40      0.00
   29    1   30      3.02      0.00
    0    2   30    -11.79      0.00
    2    2   30     -2.86      0.00
    4    2   30     27.56      0.00
    6    2   30      9.93      0.00
    8    2   30     14.66      0.00
   10    2   30     -3.40      0.00
   12    2   30     -5.80      0.00
   14    2   30     12.87      0.00
   16    2   30      4.80      0.00
   18    2   30      2.33      0.00
   20    2   30     -1.02      0.00
   22    2   30      3.84      0.00
   24    2   30     37.21      0.00
   26    2   30     -1.58      0.00
   28    2   30      5.45      0.00
    1    3   30    -19.82      0.00
    3    3   30     12.30      0.00
    5    3   30    -24.01      0.00
    7    3   30     -2.17      0.00
    9    3   30    -18.98      0.00
   11    3   30      2.77      0.00
   13    3   30     -7.42      0.00
   15    3   30      6.32      0.00
   17    3   30      6.62      0.00
   19    3   30      0.82      0.00
   21    3   30      2.66      0.00
   23    3   30    -13.83      0.00
   25    3   30      4.06      0.00
   27    3   30     11.10      0.00
   29    3   30     17.41      0.00
    0    4   30     21.16      0.00
    2    4   30     14.02      0.00
    4    4   30    -15.17      0.00
    6    4   30    -20.09      0.00
    8    4   30     12.18      0.00
   10    4   30     13.54      0.00
   12    4   30    -13.63      0.00
   14    4   30      1.68      0.00
   16    4   30     -7.19      0.00
   18    4   30     22.07      0.00
   20    4   30     12.93      0.00
   22    4   30      7.28      0.00
   24    4   30     -1.82      0.00
   26    4   30      6.76      0.00
   28    4   30      7.33      0.00
    1    5   30    -21.85      0.00
    3    5   30      3.53      0.00
    5    5   30      9.14      0.00
    7    5   30     11.79      0.00
    9    5   30     13.56      0.00
   11    5   30      5.42      0.00
   13    5   30      4.54      0.00
   15    5   30      8.33      0.00
   17    5   30     -1.91      0.00
   19    5   30     -3.55      0.00
   21    5   30     -7.03      0.00
   23    5   30     -6.85      0.00
   25    5   30      3.80      0.00
   27    5   30      0.36      0.00
   29    5   30     -1.50      0.00
    0    6   30    -25.92      0.00
    2    6   30     -1.10      0.00
    4    6   30      1.23      0.00
    6    6   30      0.07      0.00
    8    6   30      0.11      0.00
   10    6   30     -9.15      0.00
   12    6   30     -0.46      0.00
   14    6   30     14.72      0.00
   16    6   30     12.01      0.00
   18    6   30     -1.32      0.00
   20    6   30     10.87      0.00
   22    6   30     -9.38      0.00
   24    6   30     19.36      0.00
   26    6   30      4.84      0.00
   28    6   30     -0.30      0.00
    1    7   30      6.00      0.00
    3    7   30     -2.29      0.00
    5    7   30     -2.36      0.00
    7    7   30     -5.82      0.00
    9    7   30      7.32      0.00
   11    7   30     -0.46      0.00
   13    7   30     -6.25      0.00
   15    7   30      2.24      0.00
   17    7   30     -7.59      0.00
   19    7   30     -3.54      0.00
   21    7   30    -13.44      0.00
   23    7   30     -5.22      0.00
   25    7   30     -7.75      0.00
   27    7   30     -7.31      0.00
   29    7   30      6.16      0.00
    0    8   30    -26.96      0.00
    2    8   30      3.42      0.00
    4    8   30      6.50      0.00
    6    8   30     12.50      0.00
    8    8   30     15.16      0.00
   10    8   30    -19.09      0.00
   12    8   30    -14.00      0.00
   14    8   30     10.95      0.00
   16    8   30     11.12      0.00
   18    8   30     14.88      0.00
   20    8   30     -2.70      0.00
   22    8   30      3.36      0.00
   24    8   30     -0.25      0.00
   26    8   30     11.06      0.00
   28    8   30     -6.50      0.00
    1    9   30    -13.57      0.00
    3    9   30     -2.28      0.00
    5    9   30      6.48      0.00
    7    9   30     15.84      0.00
    9    9   30     -3.13      0.00
   11    9   30     -0.76      0.00
   13    9   30      5.51      0.00
   15    9   30     -7.33      0.00
   17    9   30      4.79      0.00
   19    9   30      5.24      0.00
   21    9   30      1.07      0.00
   23    9   30     -7.04      0.00
   25    9   30    -26.96      0.00
   27    9   30     -1.55      0.00
   29    9   30      4.87      0.00
    0   10   30    -14.57      0.00
    2   10   30     13.61      0.00
    4   10   30    -10.57      0.00
    6   10   30      0.28      0.00
    8   10   30     25.71      0.00
   10   10   30      4.27      0.00
   12   10   30     13.10      0.00
   14   10   30    -18.86      0.00
   16   10   30      9.17      0.00
   18   10   30      3.15      0.00
   20   10   30      6.84      0.00
   22   10   30     -8.00      0.00
   24   10   30    -11.24      0.00
   26   10   30      6.87      0.00
   28   10   30      4.42      0.00
    1   11   30      8.13      0.00
    3   11   30    -23.86      0.00
    5   11   30    -12.12      0.00
    7   11   30      0.17      0.00
    9   11   30     -0.26      0.00
   11   11   30      3.90      0.00
   13   11   30     12.42      0.00
   15   11   30     12.18      0.00
   17   11   30      5.91      0.00
   19   11   30     -2.36      0.00
   21   11   30     -0.57      0.00
   23   11   30    -12.83      0.00
   25   11   30      5.40      0.00
   27   11   30      1.03      0.00
    0   12   30    -18.28      0.00
    2   12   30     -9.12      0.00
    4   12   30     21.24      0.00
    6   12   30      9.63      0.00
    8   12   30    -10.14      0.00
   10   12   30     21.24      0.00
   12   12   30     -6.72      0.00
   14   12   30     11.46      0.00
   16   12   30    -14.20      0.00
   18   12   30     -8.82      0.00
   20   12   30      4.17      0.00
   22   12   30      3.39      0.00
   24   12   30      2.99      0.00
   26   12   30     -8.30      0.00
   28   12   30    -10.32      0.00
    1   13   30     -1.44      0.00
    3   13   30    -23.82      0.00
    5   13   30    -16.66      0.00
    7   13   30    -22.22      0.00
    9   13   30    -23.44      0.00
   11   13   30    -23.34      0.00
   13   13   30    -10.02      0.00
   15   13   30     11.22      0.00
   17   13   30     10.28      0.00
   19   13   30      9.87      0.00
   21   13   30     -9.45      0.00
   23   13   30     -7.76      0.00
   25   13   30     20.37      0.00
   27   13   30      5.23      0.00
    0   14   30      1.39      0.00
    2   14   30     -1.31      0.00
    4   14   30      1.93      0.00
    6   14   30    -25.22      0.00
    8   14   30     13.19      0.00
   10   14   30      7.29      0.00
   12   14   30     -9.93      0.00
   14   14   30     -0.47      0.00
   16   14   30     13.83      0.00
   18   14   30      8.85      0.00
   20   14   30     -1.96      0.00
   22   14   30     -5.33      0.00
   24   14   30      2.88      0.00
   26   14   30    -12.92      0.00
    1   15   30      0.64      0.00
    3   15   30     -3.65      0.00
    5   15   30    -19.90      0.00
    7   15   30    -12.42      0.00
    9   15   30      5.98      0.00
   11   15   30     -8.43      0.00
   13   15   30    -10.92      0.00
   15   15   30    -17.73      0.00
   17   15   30      8.31      0.00
   19   15   30     -5.58      0.00
   21   15   30     -9.88      0.00
   23   15   30     -8.55      0.00
   25   15   30      0.23      0.00
    0   16   30    -35.98      0.00
    2   16   30      2.76      0.00
    4   16   30     11.66      0.00
    6   16   30    -17.75      0.00
    8   16   30    -14.58      0.00
   10   16   30    -12.36      0.00
   12   16   30      2.83      0.00
   14   16   30     -0.14      0.00
   16   16   30    -18.24      0.00
   18   16   30    -19.06      0.00
   20   16   30     -2.03      0.00
   22   16   30      2.89      0.00
   24   16   30     -7.44      0.00
   26   16   30      7.09      0.00
    1   17   30     16.77      0.00
    3   17   30     10.62      0.00
    5   17   30    -11.47      0.00
    7   17   30      9.02      0.00
    9   17   30     22.24      0.00
   11   17   30      7.84      0.00
   13   17   30    -11.64      0.00
   15   17   30      9.19      0.00
   17   17   30     -5.79      0.00
   19   17   30     -3.04      0.00
   21   17   30     -5.56      0.00
   23   17   30     -4.33      0.00
   25   17   30     -1.77      0.00
    0   18   30     10.14      0.00
    2   18   30     -9.90      0.00
    4   18   30     -2.77      0.00
    6   18   30    -11.19      0.00
    8   18   30      1.07      0.00
   10   18   30      8.68      0.00
   12   18   30      6.77      0.00
   14   18   30    -17.06      0.00
   16   18   30    -17.31      0.00
   18   18   30    -11.86      0.00
   20   18   30      8.26      0.00
   22   18   30     -4.20      0.00
   24   18   30     -9.54      0.00
    1   19   30    -10.02      0.00
    3   19   30     -3.76      0.00
    5   19   30     -5.13      0.00
    7   19   30     -8.91      0.00
    9   19   30     -3.36      0.00
   11   19   30    -10.58      0.00
   13   19   30     -5.95      0.00
   15   19   30      4.93      0.00
   17   19   30     16.39      0.00
   19   19   30     -2.67      0.00
   21   19   30     18.65      0.00
   23   19   30     -1.56      0.00
    0   20   30      9.31      0.00
    2   20   30     11.28      0.00
    4   20   30     -8.76      0.00
    6   20   30     21.07      0.00
    8   20   30     10.46      0.00
   10   20   30     22.49      0.00
   12   20   30     17.26      0.00
   14   20   30     -8.98      0.00
   16   20   30     -3.14      0.00
   18   20   30      9.67      0.00
   20   20   30      1.40      0.00
   22   20   30      9.01      0.00
    1   21   30     -8.88      0.00
    3   21   30    -32.56      0.00
    5   21   30    -24.31      0.00
    7   21   30    -20.73      0.00
    9   21   30    -13.30      0.00
   11   21   30     15.80      0.00
   13   21   30     -8.68      0.00
   15   21   30     -6.84      0.00
   17   21   30    -14.41      0.00
   19   21   30      2.11      0.00
   21   21   30     17.39      0.00
    0   22   30     -6.17      0.00
    2   22   30      7.05      0.00
    4   22   30     18.84      0.00
    6   22   30     10.74      0.00
    8   22   30    -14.23      0.00
   10   22   30     11.27      0.00
   12   22   30     16.02      0.00
   14   22   30      9.39      0.00
   16   22   30      0.23      0.00
   18   22   30     -5.77      0.00
   20   22   30     -9.71      0.00
    1   23   30     13.23      0.00
    3   23   30     -5.26      0.00
    5   23   30    -14.30      0.00
    7   23   30     -0.12      0.00
    9   23   30      1.87      0.00
   11   23   30    -19.46      0.00
   13   23   30     12.74      0.00
   15   23   30     -9.35      0.00
   17   23   30     -8.48      0.00
   19   23   30     -1.90      0.00
    0   24   30    -14.29      0.00
    2   24   30      3.17      0.00
    4   24   30      3.06      0.00
    6   24   30     -3.41      0.00
    8   24   30    -23.64      0.00
   10   24   30     -4.92      0.00
   12   24   30    -14.40      0.00
   14   24   30      2.92      0.00
   16   24   30     -7.69      0.00
   18   24   30     -3.15      0.00
    1   25   30     15.98      0.00
    3   25   30     14.74      0.00
    5   25   30     -5.96      0.00
    7   25   30     -1.52      0.00
    9   25   30      3.84      0.00
   11   25   30     14.37      0.00
   13   25   30     12.32      0.00
   15   25   30      6.28      0.00
   17   25   30     -7.60      0.00
    0   26   30     -6.74      0.00
    2   26   30    -10.01      0.00
    4   26   30     -5.19      0.00
    6   26   30    -17.99      0.00
    8   26   30    -15.86      0.00
   10   26   30    -15.99      0.00
   12   26   30     14.18      0.00
   14   26   30    -12.31      0.00
   16   26   30     -5.80      0.00
    1   27   30     -9.58      0.00
    3   27   30     -2.13      0.00
    5   27   30      0.75      0.00
    7   27   30     -8.55      0.00
    9   27   30    -12.17      0.00
   11   27   30      2.83      0.00
   13   27   30      6.47      0.00
    0   28   30    -20.77      0.00
    2   28   30      1.66      0.00
    4   28   30     12.44      0.00
    6   28   30      1.36      0.00
    8   28   30    -11.05      0.00
   10   28   30      9.03      0.00
   12   28   30     14.32      0.00
    1   29   30     -7.32      0.00
    3   29   30      5.27      0.00
    5   29   30     10.38      0.00
    7   29   30      6.58      0.00
    9   29   30     -1.19      0.00
    0   30   30      7.48      0.00
    2   30   30     -5.43      0.00
    4   30   30     36.89      0.00
    2    1   31      3.65      0.00
    4    1   31     35.54      0.00
    6    1   31      5.44      0.00
    8    1   31      3.48      0.00
   10    1   31     -1.27      0.00
   12    1   31     13.68      0.00
   14    1   31      7.85      0.00
   16    1   31      5.40      0.00
   18    1   31     15.71      0.00
   20    1   31     16.55      0.00
   22    1   31     13.10      0.00
   24    1   31      4.56      0.00
   26    1   31    -10.55      0.00
   28    1   31     -1.75      0.00
    1    2   31     -0.28      0.00
    3    2   31     28.29      0.00
    5    2   31    -19.97      0.00
    7    2   31    -22.52      0.00
    9    2   31     -9.37      0.00
   11    2   31      0.43      0.00
   13    2   31      6.09      0.00
   15    2   31    -13.50      0.00
   17    2   31     -7.63      0.00
   19    2   31     -8.63      0.00
   21    2   31     -6.24      0.00
   23    2   31     -0.89      0.00
   25    2   31      4.85      0.00
   27    2   31     -0.68      0.00
   29    2   31     -6.29      0.00
    2    3   31    -14.97      0.00
    4    3   31    -14.54      0.00
    6    3   31      7.16      0.00
    8    3   31     -4.95      0.00
   10    3   31    -22.70      0.00
   12    3   31     -9.11      0.00
   14    3   31     13.41      0.00
   16    3   31      7.89      0.00
   18    3   31     14.18      0.00
   20    3   31      5.97      0.00
   22    3   31      0.75      0.00
   24    3   31     -8.42      0.00
   26    3   31      1.41      0.00
   28    3   31     15.20      0.00
    1    4   31    -18.78      0.00
    3    4   31    -11.41      0.00
    5    4   31      3.82      0.00
    7    4   31     26.06      0.00
    9    4   31      6.54      0.00
   11    4   31    -24.49      0.00
   13    4   31     -9.16      0.00
   15    4   31      2.94      0.00
   17    4   31      8.55      0.00
   19    4   31     -8.95      0.00
   21    4   31     -9.16      0.00
   23    4   31      0.57      0.00
   25    4   31      0.50      0.00
   27    4   31      6.18      0.00
   29    4   31    -14.01      0.00
    2    5   31     19.79      0.00
    4    5   31    -18.84      0.00
    6    5   31      2.51      0.00
    8    5   31    -17.07      0.00
   10    5   31    -28.76      0.00
   12    5   31      6.04      0.00
   14    5   31     -7.49      0.00
   16    5   31    -13.96      0.00
   18    5   31    -14.83      0.00
   20    5   31      2.89      0.00
   22    5   31     -2.73      0.00
   24    5   31    -12.21      0.00
   26    5   31    -19.87      0.00
   28    5   31      5.80      0.00
    1    6   31      5.48      0.00
    3    6   31     14.33      0.00
    5    6   31     -7.47      0.00
    7    6   31     -8.10      0.00
    9    6   31      2.34      0.00
   11    6   31      5.41      0.00
   13    6   31     -0.50      0.00
   15    6   31      0.63      0.00
   17    6   31     15.58      0.00
   19    6   31      9.03      0.00
   21    6   31      4.74      0.00
   23    6   31      0.32      0.00
   25    6   31      6.52      0.00
   27    6   31     13.55      0.00
    2    7   31      6.60      0.00
    4    7   31      4.97      0.00
    6    7   31     12.26      0.00
    8    7   31     -1.25      0.00
   10    7   31    -15.94      0.00
   12    7   31     -0.48      0.00
   14    7   31     21.66      0.00
   16    7   31      0.91      0.00
   18    7   31     -1.10      0.00
   20    7   31     -7.65      0.00
   22    7   31     -0.63      0.00
   24    7   31     10.59      0.00
   26    7   31     -4.28      0.00
   28    7   31    -11.89      0.00
    1    8   31     -1.78      0.00
    3    8   31     -3.34      0.00
    5    8   31     13.54      0.00
    7    8   31    -11.34      0.00
    9    8   31     -6.16      0.00
   11    8   31     -1.41      0.00
   13    8   31     -0.40      0.00
   15    8   31     10.02      0.00
   17    8   31      7.05      0.00
   19    8   31     12.13      0.00
   21    8   31    -11.91      0.00
   23    8   31     -8.87      0.00
   25    8   31     -3.58      0.00
   27    8   31      9.37      0.00
    2    9   31      3.92      0.00
    4    9   31     25.69      0.00
    6    9   31     -8.01      0.00
    8    9   31      4.97      0.00
   10    9   31    -12.80      0.00
   12    9   31     11.35      0.00
   14    9   31     15.79      0.00
   16    9   31      5.79      0.00
   18    9   31     16.82      0.00
   20    9   31      5.08      0.00
   22    9   31     13.18      0.00
   24    9   31     13.83      0.00
   26    9   31      0.10      0.00
   28    9   31      4.46      0.00
    1   10   31     -4.81      0.00
    3   10   31      8.37      0.00
    5   10   31     13.37      0.00
    7   10   31    -14.73      0.00
    9   10   31    -20.31      0.00
   11   10   31      5.93      0.00
   13   10   31      0.12      0.00
   15   10   31     -0.43      0.00
   17   10   31    -18.10      0.00
   19   10   31    -12.73      0.00
   21   10   31     -1.73      0.00
   23   10   31    -12.79      0.00
   25   10   31     -5.22      0.00
   27   10   31    -13.87      0.00
    2   11   31     14.04      0.00
    4   11   31     11.48      0.00
    6   11   31     17.47      0.00
    8   11   31     -8.99      0.00
   10   11   31     -3.66      0.00
   12   11   31     -9.32      0.00
   14   11   31    -10.52      0.00
   16   11   31      3.87      0.00
   18   11   31      3.41      0.00
   20   11   31     -5.35      0.00
   22   11   31      4.67      0.00
   24   11   31     -3.06      0.00
   26   11   31     20.51      0.00
    1   12   31      3.86      0.00
    3   12   31    -11.85      0.00
    5   12   31      4.42      0.00
    7   12   31    -13.46      0.00
    9   12   31      1.51      0.00
   11   12   31      6.51      0.00
   13   12   31     -9.67      0.00
   15   12   31     12.90      0.00
   17   12   31      5.32      0.00
   19   12   31     -5.75      0.00
   21   12   31    -11.71      0.00
   23   12   31    -10.32      0.00
   25   12   31     20.35      0.00
    2   13   31      2.30      0.00
    4   13   31     -2.05      0.00
    6   13   31      5.48      0.00
    8   13   31     -4.11      0.00
   10   13   31     -3.17      0.00
   12   13   31      5.26      0.00
   14   13   31     -8.07      0.00
   16   13   31     -1.28      0.00
   18   13   31     -3.28      0.00
   20   13   31     -0.44      0.00
   22   13   31    -13.67      0.00
   24   13   31      4.64      0.00
   26   13   31     -2.03      0.00
    1   14   31    -20.87      0.00
    3   14   31    -19.15      0.00
    5   14   31      4.33      0.00
    7   14   31      9.74      0.00
    9   14   31     15.60      0.00
   11   14   31     -5.70      0.00
   13   14   31     12.21      0.00
   15   14   31     21.61      0.00
   17   14   31      7.20      0.00
   19   14   31      5.19      0.00
   21   14   31      9.27      0.00
   23   14   31      5.97      0.00
   25   14   31      5.67      0.00
    2   15   31      5.89      0.00
    4   15   31     -0.23      0.00
    6   15   31      2.59      0.00
    8   15   31      0.51      0.00
   10   15   31      6.49      0.00
   12   15   31     -2.57      0.00
   14   15   31      3.11      0.00
   16   15   31    -15.63      0.00
   18   15   31     11.25      0.00
   20   15   31     -0.03      0.00
   22   15   31     -8.84      0.00
   24   15   31     -5.13      0.00
    1   16   31      4.50      0.00
    3   16   31      9.68      0.00
    5   16   31      0.96      0.00
    7   16   31     -4.10      0.00
    9   16   31     -8.31      0.00
   11   16   31      7.05      0.00
   13   16   31      6.80      0.00
   15   16   31     12.52      0.00
   17   16   31     -0.36      0.00
   19   16   31     -8.93      0.00
   21   16   31      5.34      0.00
   23   16   31     -1.91      0.00
    2   17   31     -0.22      0.00
    4   17   31      2.98      0.00
    6   17   31      8.09      0.00
    8   17   31      3.11      0.00
   10   17   31     -8.93      0.00
   12   17   31    -10.44      0.00
   14   17   31    -17.77      0.00
   16   17   31      4.00      0.00
   18   17   31     -4.28      0.00
   20   17   31      1.68      0.00
   22   17   31     -5.69      0.00
   24   17   31     -3.95      0.00
    1   18   31     -3.25      0.00
    3   18   31     -3.22      0.00
    5   18   31     -7.20      0.00
    7   18   31     -6.68      0.00
    9   18   31     -8.75      0.00
   11   18   31     -8.44      0.00
   13   18   31     -7.63      0.00
   15   18   31     -1.96      0.00
   17   18   31     -3.63      0.00
   19   18   31      4.50      0.00
   21   18   31    -16.20      0.00
   23   18   31     -9.08      0.00
    2   19   31     -1.32      0.00
    4   19   31     -7.67      0.00
    6   19   31     -1.15      0.00
    8   19   31      4.27      0.00
   10   19   31     -7.09      0.00
   12   19   31    -10.57      0.00
   14   19   31    -13.78      0.00
   16   19   31     -4.68      0.00
   18   19   31      7.12      0.00
   20   19   31     -0.32      0.00
   22   19   31      5.99      0.00
    1   20   31    -23.81      0.00
    3   20   31     -0.24      0.00
    5   20   31      4.14      0.00
    7   20   31      4.26      0.00
    9   20   31     -9.27      0.00
   11   20   31     -6.57      0.00
   13   20   31     -0.28      0.00
   15   20   31     -2.82      0.00
   17   20   31      3.71      0.00
   19   20   31     11.56      0.00
   21   20   31      7.29      0.00
    2   21   31     -1.25      0.00
    4   21   31     10.31      0.00
    6   21   31     -5.52      0.00
    8   21   31     15.29      0.00
   10   21   31      8.65      0.00
   12   21   31    -12.74      0.00
   14   21   31      9.22      0.00
   16   21   31     11.82      0.00
   18   21   31     -5.59      0.00
   20   21   31      1.67      0.00
    1   22   31     -4.71      0.00
    3   22   31    -15.22      0.00
    5   22   31     11.15      0.00
    7   22   31     13.61      0.00
    9   22   31      1.48      0.00
   11   22   31      5.18      0.00
   13   22   31     -2.83      0.00
   15   22   31      7.57      0.00
   17   22   31      6.04      0.00
   19   22   31     -5.40      0.00
    2   23   31      3.86      0.00
    4   23   31     10.14      0.00
    6   23   31    -10.50      0.00
    8   23   31     -2.99      0.00
   10   23   31      9.89      0.00
   12   23   31     -1.86      0.00
   14   23   31      5.39      0.00
   16   23   31      8.75      0.00
   18   23   31      0.85      0.00
    1   24   31     -4.56      0.00
    3   24   31     -4.08      0.00
    5   24   31      3.18      0.00
    7   24   31      0.23      0.00
    9   24   31      6.35      0.00
   11   24   31      2.56      0.00
   13   24   31      5.57      0.00
   15   24   31     -8.28      0.00
   17   24   31     -2.62      0.00
    2   25   31     -6.41      0.00
    4   25   31    -11.85      0.00
    6   25   31     -4.11      0.00
    8   25   31     -4.47      0.00
   10   25   31     -7.86      0.00
   12   25   31     -5.87      0.00
   14   25   31    -17.80      0.00
    1   26   31     -2.40      0.00
    3   26   31     -6.66      0.00
    5   26   31     -3.39      0.00
    7   26   31    -16.30      0.00
    9   26   31    -10.84      0.00
   11   26   31      4.25      0.00
   13   26   31     22.42      0.00
    2   27   31     -0.48      0.00
    4   27   31     -6.21      0.00
    6   27   31     -6.45      0.00
    8   27   31      0.61      0.00
   10   27   31      4.11      0.00
    1   28   31     -4.83      0.00
    3   28   31     -0.92      0.00
    5   28   31      4.96      0.00
    7   28   31     -0.62      0.00
    9   28   31      0.40      0.00
    2   29   31     16.65      0.00
    4   29   31      6.43      0.00
    0    0   32    -17.32      0.00
    2    0   32    -19.31      0.00
    4    0   32     10.48      0.00
    6    0   32    -45.28      0.00
    8    0   32    -32.70      0.00
   10    0   32    -16.59      0.00
   12    0   32    -10.06      0.00
   14    0   32     -1.53      0.00
   16    0   32     -4.94      0.00
   18    0   32      2.79      0.00
   20    0   32      5.58      0.00
   22    0   32      2.36      0.00
   24    0   32     21.17      0.00
   26    0   32      3.73      0.00
   28    0   32     19.49      0.00
    1    1   32     -4.11      0.00
    3    1   32     23.14      0.00
    5    1   32      8.09      0.00
    7    1   32      8.85      0.00
    9    1   32    -17.00      0.00
   11    1   32     -2.14      0.00
   13    1   32     -2.04      0.00
   15    1   32      9.07      0.00
   17    1   32     -0.84      0.00
   19    1   32     -9.28      0.00
   21    1   32     -2.43      0.00
   23    1   32      9.29      0.00
   25    1   32      2.77      0.00
   27    1   32     -7.64      0.00
    0    2   32    -12.90      0.00
    2    2   32     -4.52      0.00
    4    2   32      1.15      0.00
    6    2   32    -15.15      0.00
    8    2   32     -1.13      0.00
   10    2   32      4.00      0.00
   12    2   32    -10.66      0.00
   14    2   32      4.48      0.00
   16    2   32      0.18      0.00
   18    2   32     12.36      0.00
   20    2   32    -15.75      0.00
   22    2   32     -7.71      0.00
   24    2   32      1.86      0.00
   26    2   32     11.78      0.00
   28    2   32      6.15      0.00
    1    3   32      1.88      0.00
    3    3   32      6.01      0.00
    5    3   32     -8.03      0.00
    7    3   32      3.02      0.00
    9    3   32     16.85      0.00
   11    3   32     -7.49      0.00
   13    3   32     10.05      0.00
   15    3   32     -5.31      0.00
   17    3   32      4.22      0.00
   19    3   32      3.45      0.00
   21    3   32     -4.00      0.00
   23    3   32      1.29      0.00
   25    3   32    -15.34      0.00
   27    3   32    -11.30      0.00
    0    4   32     11.76      0.00
    2    4   32     21.04      0.00
    4    4   32     -2.57      0.00
    6    4   32     -2.65      0.00
    8    4   32      3.90      0.00
   10    4   32     13.29      0.00
   12    4   32     28.53      0.00
   14    4   32    -11.22      0.00
   16    4   32    -12.35      0.00
   18    4   32     -0.07      0.00
   20    4   32     -5.64      0.00
   22    4   32    -18.90      0.00
   24    4   32     -2.82      0.00
   26    4   32     -4.40      0.00
   28    4   32      3.22      0.00
    1    5   32    -24.03      0.00
    3    5   32    -13.28      0.00
    5    5   32    -10.89      0.00
    7    5   32     -0.98      0.00
    9    5   32     -6.80      0.00
   11    5   32     -2.80      0.00
   13    5   32     10.95      0.00
   15    5   32     12.05      0.00
   17    5   32     -1.15      0.00
   19    5   32    -15.06      0.00
   21    5   32    -11.18      0.00
   23    5   32      9.18      0.00
   25    5   32     17.96      0.00
   27    5   32     -2.14      0.00
    0    6   32    -16.86      0.00
    2    6   32      3.22      0.00
    4    6   32     -2.38      0.00
    6    6   32     -9.36      0.00
    8    6   32    -32.16      0.00
   10    6   32    -12.74      0.00
   12    6   32     14.22      0.00
   14    6   32      3.23      0.00
   16    6   32     -4.59      0.00
   18    6   32      0.96      0.00
   20    6   32     -1.48      0.00
   22    6   32     -2.31      0.00
   24    6   32     -4.13      0.00
   26    6   32      5.68      0.00
    1    7   32     10.90      0.00
    3    7   32    -12.01      0.00
    5    7   32     -0.02      0.00
    7    7   32    -18.91      0.00
    9    7   32     -1.34      0.00
   11    7   32     -9.37      0.00
   13    7   32     -2.08      0.00
   15    7   32     13.48      0.00
   17    7   32    -12.99      0.00
   19    7   32     -4.32      0.00
   21    7   32    -18.35      0.00
   23    7   32    -10.43      0.00
   25    7   32      9.26      0.00
   27    7   32      4.73      0.00
    0    8   32    -18.33      0.00
    2    8   32    -16.28      0.00
    4    8   32    -17.27      0.00
    6    8   32    -17.51      0.00
    8    8   32     -8.95      0.00
   10    8   32      1.24      0.00
   12    8   32     -6.86      0.00
   14    8   32     -8.15      0.00
   16    8   32     16.64      0.00
   18    8   32      3.77      0.00
   20    8   32      7.61      0.00
   22    8   32     -0.35      0.00
   24    8   32      2.97      0.00
   26    8   32     -7.42      0.00
    1    9   32     20.63      0.00
    3    9   32      7.61      0.00
    5    9   32    -15.23      0.00
    7    9   32     11.59      0.00
    9    9   32     29.84      0.00
   11    9   32      4.65      0.00
   13    9   32      4.13      0.00
   15    9   32      1.54      0.00
   17    9   32     -2.17      0.00
   19    9   32     -2.03      0.00
   21    9   32    -18.60      0.00
   23    9   32    -10.80      0.00
   25    9   32     -8.02      0.00
    0   10   32     -7.22      0.00
    2   10   32     11.07      0.00
    4   10   32     -7.82      0.00
    6   10   32    -32.64      0.00
    8   10   32    -14.66      0.00
   10   10   32     11.80      0.00
   12   10   32      5.89      0.00
   14   10   32      5.12      0.00
   16   10   32    -13.23      0.00
   18   10   32     -8.16      0.00
   20   10   32    -17.52      0.00
   22   10   32      9.32      0.00
   24   10   32     -5.26      0.00
   26   10   32     -3.94      0.00
    1   11   32     -9.84      0.00
    3   11   32     13.71      0.00
    5   11   32    -12.78      0.00
    7   11   32     25.72      0.00
    9   11   32     -8.52      0.00
   11   11   32     10.76      0.00
   13   11   32     17.80      0.00
   15   11   32     -7.44      0.00
   17   11   32    -11.25      0.00
   19   11   32     -9.82      0.00
   21   11   32      5.50      0.00
   23   11   32      1.78      0.00
   25   11   32      4.67      0.00
    0   12   32    -13.13      0.00
    2   12   32      9.51      0.00
    4   12   32     -2.23      0.00
    6   12   32    -23.24      0.00
    8   12   32     -9.18      0.00
   10   12   32    -13.23      0.00
   12   12   32     -8.73      0.00
   14   12   32    -15.48      0.00
   16   12   32     -6.55      0.00
   18   12   32     -5.61      0.00
   20   12   32     -1.03      0.00
   22   12   32      0.04      0.00
   24   12   32      5.04      0.00
    1   13   32     -7.18      0.00
    3   13   32    -34.97      0.00
    5   13   32    -22.14      0.00
    7   13   32     -2.41      0.00
    9   13   32      0.48      0.00
   11   13   32    -14.57      0.00
   13   13   32     -9.37      0.00
   15   13   32      3.35      0.00
   17   13   32     -4.81      0.00
   19   13   32      7.29      0.00
   21   13   32     -0.54      0.00
   23   13   32    -10.22      0.00
   25   13   32      8.62      0.00
    0   14   32      5.03      0.00
    2   14   32     -7.78      0.00
    4   14   32      0.30      0.00
    6   14   32     -6.66      0.00
    8   14   32     -0.84      0.00
   10   14   32      6.98      0.00
   12   14   32     -2.24      0.00
   14   14   32     -1.16      0.00
   16   14   32     -3.45      0.00
   18   14   32      4.85      0.00
   20   14   32     -8.51      0.00
   22   14   32     -5.00      0.00
   24   14   32      1.85      0.00
    1   15   32     -8.37      0.00
    3   15   32    -10.26      0.00
    5   15   32     -5.37      0.00
    7   15   32     -7.19      0.00
    9   15   32     -7.87      0.00
   11   15   32     -6.61      0.00
   13   15   32    -11.03      0.00
   15   15   32     -0.47      0.00
   17   15   32    -23.27      0.00
   19   15   32    -10.22      0.00
   21   15   32     -7.21      0.00
   23   15   32      5.83      0.00
    0   16   32      2.07      0.00
    2   16   32     -0.82      0.00
    4   16   32     23.32      0.00
    6   16   32     14.81      0.00
    8   16   32     -2.12      0.00
   10   16   32     -3.53      0.00
   12   16   32      5.70      0.00
   14   16   32      2.99      0.00
   16   16   32      6.91      0.00
   18   16   32     -0.35      0.00
   20   16   32     -7.27      0.00
   22   16   32    -11.40      0.00
    1   17   32     20.33      0.00
    3   17   32     20.53      0.00
    5   17   32     -4.76      0.00
    7   17   32     -2.12      0.00
    9   17   32     26.41      0.00
   11   17   32     -5.19      0.00
   13   17   32      9.79      0.00
   15   17   32     -3.53      0.00
   17   17   32      6.88      0.00
   19   17   32     -6.52      0.00
   21   17   32     -3.11      0.00
    0   18   32      0.15      0.00
    2   18   32      2.33      0.00
    4   18   32      0.23      0.00
    6   18   32     -3.50      0.00
    8   18   32    -11.13      0.00
   10   18   32     -4.65      0.00
   12   18   32    -17.65      0.00
   14   18   32     -3.71      0.00
   16   18   32     -1.87      0.00
   18   18   32      0.22      0.00
   20   18   32      2.30      0.00
   22   18   32     -9.13      0.00
    1   19   32      4.60      0.00
    3   19   32      2.84      0.00
    5   19   32     -4.73      0.00
    7   19   32      0.05      0.00
    9   19   32      8.24      0.00
   11   19   32     -2.44      0.00
   13   19   32     -4.74      0.00
   15   19   32     21.65      0.00
   17   19   32      2.18      0.00
   19   19   32      7.91      0.00
   21   19   32      3.44      0.00
    0   20   32     -6.69      0.00
    2   20   32     -1.25      0.00
    4   20   32    -12.90      0.00
    6   20   32    -14.87      0.00
    8   20   32      4.74      0.00
   10   20   32     -8.40      0.00
   12   20   32     -2.78      0.00
   14   20   32     -5.87      0.00
   16   20   32    -10.03      0.00
   18   20   32     -1.92      0.00
   20   20   32     -7.83      0.00
    1   21   32    -20.97      0.00
    3   21   32    -15.90      0.00
    5   21   32    -10.39      0.00
    7   21   32    -18.63      0.00
    9   21   32    -21.71      0.00
   11   21   32     -5.43      0.00
   13   21   32      7.17      0.00
   15   21   32    -12.88      0.00
   17   21   32     -0.76      0.00
   19   21   32     -5.46      0.00
    0   22   32     -8.33      0.00
    2   22   32     11.99      0.00
    4   22   32     14.59      0.00
    6   22   32     15.01      0.00
    8   22   32     -2.02      0.00
   10   22   32     -1.45      0.00
   12   22   32      4.84      0.00
   14   22   32      9.36      0.00
   16   22   32     13.67      0.00
   18   22   32     -5.05      0.00
    1   23   32     -1.51      0.00
    3   23   32     -6.82      0.00
    5   23   32    -11.30      0.00
    7   23   32      2.09      0.00
    9   23   32     -9.27      0.00
   11   23   32     -5.06      0.00
   13   23   32     -7.85      0.00
   15   23   32     -8.41      0.00
    0   24   32     13.48      0.00
    2   24   32      6.20      0.00
    4   24   32     15.90      0.00
    6   24   32     11.74      0.00
    8   24   32     10.54      0.00
   10   24   32      9.39      0.00
   12   24   32     11.45      0.00
   14   24   32      7.27      0.00
    1   25   32      5.31      0.00
    3   25   32      3.54      0.00
    5   25   32      0.41      0.00
    7   25   32     -2.14      0.00
    9   25   32      7.98      0.00
   11   25   32      3.29      0.00
   13   25   32      6.19      0.00
    0   26   32     -2.09      0.00
    2   26   32      7.24      0.00
    4   26   32    -10.03      0.00
    6   26   32     -4.20      0.00
    8   26   32     -1.64      0.00
   10   26   32     -3.28      0.00
    1   27   32     -1.97      0.00
    3   27   32      2.06      0.00
    5   27   32     -3.79      0.00
    7   27   32      0.31      0.00
    0   28   32      3.18      0.00
    2   28   32     -1.77      0.00
    4   28   32     12.76      0.00
    2    1   33      0.70      0.00
    4    1   33     -2.52      0.00
    6    1   33      6.99      0.00
    8    1   33     -0.51      0.00
   10    1   33    -12.25      0.00
   12    1   33      3.56      0.00
   14    1   33     14.06      0.00
   16    1   33    -11.79      0.00
   18    1   33     -2.04      0.00
   20    1   33      3.83      0.00
   22    1   33      2.00      0.00
   24    1   33      0.85      0.00
   26    1   33     -6.14      0.00
    1    2   33     -0.36      0.00
    3    2   33     17.83      0.00
    5    2   33     -7.28      0.00
    7    2   33    -13.06      0.00
    9    2   33     -6.36      0.00
   11    2   33     -0.30      0.00
   13    2   33     14.72      0.00
   15    2   33      9.64      0.00
   17    2   33     -0.61      0.00
   19    2   33     10.45      0.00
   21    2   33      6.26      0.00
   23    2   33     -0.08      0.00
   25    2   33     -1.73      0.00
   27    2   33      6.62      0.00
    2    3   33     -8.13      0.00
    4    3   33    -15.61      0.00
    6    3   33      9.76      0.00
    8    3   33      3.81      0.00
   10    3   33     -5.87      0.00
   12    3   33      0.76      0.00
   14    3   33     -5.54      0.00
   16    3   33      0.77      0.00
   18    3   33      4.26      0.00
   20    3   33     -1.37      0.00
   22    3   33     -1.51      0.00
   24    3   33      0.54      0.00
   26    3   33     -2.50      0.00
    1    4   33     -3.56      0.00
    3    4   33      5.48      0.00
    5    4   33     -1.40      0.00
    7    4   33     -5.00      0.00
    9    4   33    -19.82      0.00
   11    4   33    -14.11      0.00
   13    4   33     -5.31      0.00
   15    4   33    -18.57      0.00
   17    4   33    -21.45      0.00
   19    4   33    -12.20      0.00
   21    4   33      4.91      0.00
   23    4   33      5.13      0.00
   25    4   33    -10.93      0.00
    2    5   33      1.56      0.00
    4    5   33     -9.17      0.00
    6    5   33     -6.34      0.00
    8    5   33     -9.86      0.00
   10    5   33    -10.40      0.00
   12    5   33     20.42      0.00
   14    5   33     -3.80      0.00
   16    5   33      1.81      0.00
   18    5   33     -0.12      0.00
   20    5   33     -6.32      0.00
   22    5   33     15.39      0.00
   24    5   33     -3.93      0.00
   26    5   33      4.98      0.00
    1    6   33     -0.25      0.00
    3    6   33    -30.47      0.00
    5    6   33      4.88      0.00
    7    6   33      9.35      0.00
    9    6   33    -13.89      0.00
   11    6   33     -3.78      0.00
   13    6   33    -14.48      0.00
   15    6   33    -11.06      0.00
   17    6   33     -5.26      0.00
   19    6   33    -12.54      0.00
   21    6   33     -2.25      0.00
   23    6   33     11.30      0.00
   25    6   33      6.67      0.00
    2    7   33     -8.96      0.00
    4    7   33    -10.77      0.00
    6    7   33      3.34      0.00
    8    7   33     13.62      0.00
   10    7   33     -3.75      0.00
   12    7   33      3.85      0.00
   14    7   33     -1.06      0.00
   16    7   33      6.18      0.00
   18    7   33      1.18      0.00
   20    7   33     -1.50      0.00
   22    7   33      3.21      0.00
   24    7   33      2.67      0.00
   26    7   33     -8.46      0.00
    1    8   33     -1.56      0.00
    3    8   33     -9.95      0.00
    5    8   33      1.45      0.00
    7    8   33      5.98      0.00
    9    8   33     -1.11      0.00
   11    8   33     21.59      0.00
   13    8   33     18.36      0.00
   15    8   33      8.59      0.00
   17    8   33     -4.20      0.00
   19    8   33     12.42      0.00
   21    8   33      6.50      0.00
   23    8   33     15.20      0.00
   25    8   33      9.02      0.00
    2    9   33     -5.49      0.00
    4    9   33     -6.52      0.00
    6    9   33     -4.87      0.00
    8    9   33     19.35      0.00
   10    9   33    -13.32      0.00
   12    9   33     -2.01      0.00
   14    9   33     10.31      0.00
   16    9   33    -21.31      0.00
   18    9   33      0.53      0.00
   20    9   33      0.17      0.00
   22    9   33     10.80      0.00
   24    9   33     -3.90      0.00
    1   10   33    -16.96      0.00
    3   10   33     -5.49      0.00
    5   10   33     28.20      0.00
    7   10   33      8.13      0.00
    9   10   33     -0.33      0.00
   11   10   33    -12.14      0.00
   13   10   33     20.04      0.00
   15   10   33     11.51      0.00
   17   10   33    -11.58      0.00
   19   10   33     -0.21      0.00
   21   10   33    -11.46      0.00
   23   10   33      6.35      0.00
   25   10   33      4.60      0.00
    2   11   33      2.63      0.00
    4   11   33    -22.90      0.00
    6   11   33      4.41      0.00
    8   11   33     16.24      0.00
   10   11   33    -11.41      0.00
   12   11   33     -3.77      0.00
   14   11   33    -15.58      0.00
   16   11   33      0.38      0.00
   18   11   33      0.99      0.00
   20   11   33      3.37      0.00
   22   11   33     -3.99      0.00
   24   11   33      0.28      0.00
    1   12   33    -14.26      0.00
    3   12   33    -16.74      0.00
    5   12   33      1.91      0.00
    7   12   33     -5.06      0.00
    9   12   33    -13.77      0.00
   11   12   33    -10.20      0.00
   13   12   33    -12.02      0.00
   15   12   33    -14.69      0.00
   17   12   33      0.47      0.00
   19   12   33     -2.66      0.00
   21   12   33     -2.94      0.00
   23   12   33    -10.70      0.00
    2   13   33      1.50      0.00
    4   13   33    -12.72      0.00
    6   13   33     21.63      0.00
    8   13   33    -11.22      0.00
   10   13   33     10.42      0.00
   12   13   33      7.61      0.00
   14   13   33    -13.34      0.00
   16   13   33     -4.36      0.00
   18   13   33      2.91      0.00
   20   13   33      9.81      0.00
   22   13   33      6.15      0.00
    1   14   33     -3.14      0.00
    3   14   33    -16.69      0.00
    5   14   33      8.44      0.00
    7   14   33      3.40      0.00
    9   14   33    -20.00      0.00
   11   14   33     -1.39      0.00
   13   14   33    -10.39      0.00
   15   14   33    -15.65      0.00
   17   14   33      3.52      0.00
   19   14   33      7.92      0.00
   21   14   33     -1.22      0.00
   23   14   33     -8.49      0.00
    2   15   33     -7.66      0.00
    4   15   33     19.37      0.00
    6   15   33     -3.64      0.00
    8   15   33     -5.30      0.00
   10   15   33      3.60      0.00
   12   15   33     -3.57      0.00
   14   15   33     -0.39      0.00
   16   15   33      4.39      0.00
   18   15   33      2.61      0.00
   20   15   33    -11.05      0.00
   22   15   33     -5.82      0.00
    1   16   33    -15.98      0.00
    3   16   33    -10.67      0.00
    5   16   33     13.69      0.00
    7   16   33     19.36      0.00
    9   16   33    -10.59      0.00
   11   16   33     -5.72      0.00
   13   16   33     12.85      0.00
   15   16   33      2.82      0.00
   17   16   33     -7.81      0.00
   19   16   33     -2.92      0.00
   21   16   33      0.00      0.00
    2   17   33     -7.86      0.00
    4   17   33     -4.24      0.00
    6   17   33     -5.53      0.00
    8   17   33     -8.24      0.00
   10   17   33      2.82      0.00
   12   17   33    -15.82      0.00
   14   17   33      6.08      0.00
   16   17   33      0.58      0.00
   18   17   33     -6.39      0.00
   20   17   33    -10.79      0.00
    1   18   33     -4.51      0.00
    3   18   33     -7.59      0.00
    5   18   33    -11.31      0.00
    7   18   33    -11.44      0.00
    9   18   33      3.50      0.00
   11   18   33     11.28      0.00
   13   18   33      7.77      0.00
   15   18   33     -0.63      0.00
   17   18   33     -8.96      0.00
   19   18   33      6.87      0.00
    2   19   33      4.73      0.00
    4   19   33     -4.39      0.00
    6   19   33     -5.78      0.00
    8   19   33     -5.06      0.00
   10   19   33     -8.50      0.00
   12   19   33      4.78      0.00
   14   19   33      6.02      0.00
   16   19   33     -3.33      0.00
   18   19   33    -10.04      0.00
    1   20   33     -9.63      0.00
    3   20   33    -21.41      0.00
    5   20   33      8.72      0.00
    7   20   33      9.28      0.00
    9   20   33    -11.67      0.00
   11   20   33     -5.65      0.00
   13   20   33     10.33      0.00
   15   20   33     -3.11      0.00
   17   20   33      6.21      0.00
    2   21   33      5.62      0.00
    4   21   33      2.53      0.00
    6   21   33      1.45      0.00
    8   21   33     12.25      0.00
   10   21   33     -1.78      0.00
   12   21   33     -6.63      0.00
   14   21   33      3.91      0.00
   16   21   33      2.54      0.00
    1   22   33    -12.16      0.00
    3   22   33     -5.28      0.00
    5   22   33      8.50      0.00
    7   22   33     -1.68      0.00
    9   22   33     -9.19      0.00
   11   22   33     -0.07      0.00
   13   22   33      1.27      0.00
   15   22   33    -10.86      0.00
    2   23   33     -1.42      0.00
    4   23   33      5.20      0.00
    6   23   33      3.44      0.00
    8   23   33     -3.37      0.00
   10   23   33      2.20      0.00
   12   23   33     -3.45      0.00
   14   23   33     -9.38      0.00
    1   24   33    -11.91      0.00
    3   24   33      3.88      0.00
    5   24   33     -4.09      0.00
    7   24   33     -9.79      0.00
    9   24   33      2.74      0.00
   11   24   33     -4.58      0.00
    2   25   33     -4.17      0.00
    4   25   33     -6.64      0.00
    6   25   33     -2.95      0.00
    8   25   33    -11.44      0.00
   10   25   33      1.15      0.00
    1   26   33     -9.96      0.00
    3   26   33     -2.65      0.00
    5   26   33     -2.28      0.00
    7   26   33      3.79      0.00
    2   27   33     -7.57      0.00
    0    0   34    -28.56      0.00
    2    0   34     -7.86      0.00
    4    0   34     21.46      0.00
    6    0   34     -2.99      0.00
    8    0   34    -43.52      0.00
   10    0   34    -15.19      0.00
   12    0   34      4.42      0.00
   14    0   34     -7.78      0.00
   16    0   34      0.63      0.00
   18    0   34      3.02      0.00
   20    0   34    -10.37      0.00
   22    0   34     -4.38      0.00
   24    0   34     -2.26      0.00
    1    1   34     13.95      0.00
    3    1   34      7.94      0.00
    5    1   34      6.47      0.00
    7    1   34      5.91      0.00
    9    1   34     24.46      0.00
   11    1   34      1.33      0.00
   13    1   34     17.26      0.00
   15    1   34     -4.99      0.00
   17    1   34      5.66      0.00
   19    1   34      0.49      0.00
   21    1   34     -9.87      0.00
   23    1   34     -4.13      0.00
   25    1   34     -5.28      0.00
    0    2   34     -5.87      0.00
    2    2   34     -5.00      0.00
    4    2   34      4.64      0.00
    6    2   34     -7.79      0.00
    8    2   34     -8.07      0.00
   10    2   34     13.63      0.00
   12    2   34     15.83      0.00
   14    2   34    -22.32      0.00
   16    2   34      0.68      0.00
   18    2   34      6.22      0.00
   20    2   34     -2.08      0.00
   22    2   34    -16.45      0.00
   24    2   34     -1.68      0.00
    1    3   34     23.41      0.00
    3    3   34     20.00      0.00
    5    3   34     -0.77      0.00
    7    3   34     -2.17      0.00
    9    3   34     11.98      0.00
   11    3   34     11.38      0.00
   13    3   34     16.12      0.00
   15    3   34     -4.76      0.00
   17    3   34      1.29      0.00
   19    3   34     12.13      0.00
   21    3   34     -7.92      0.00
   23    3   34      2.25      0.00
   25    3   34    -11.17      0.00
    0    4   34    -15.96      0.00
    2    4   34     14.28      0.00
    4    4   34     -4.34      0.00
    6    4   34     -9.77      0.00
    8    4   34     -8.53      0.00
   10    4   34     22.94      0.00
   12    4   34     17.24      0.00
   14    4   34    -14.32      0.00
   16    4   34    -15.87      0.00
   18    4   34      1.77      0.00
   20    4   34    -11.97      0.00
   22    4   34     -2.98      0.00
   24    4   34      4.11      0.00
    1    5   34     -8.51      0.00
    3    5   34     -9.11      0.00
    5    5   34     -4.13      0.00
    7    5   34    -17.95      0.00
    9    5   34      3.34      0.00
   11    5   34    -10.25      0.00
   13    5   34      0.61      0.00
   15    5   34     -1.76      0.00
   17    5   34      8.26      0.00
   19    5   34     14.98      0.00
   21    5   34      3.99      0.00
   23    5   34      6.04      0.00
   25    5   34      8.06      0.00
    0    6   34    -25.89      0.00
    2    6   34     -0.83      0.00
    4    6   34     14.12      0.00
    6    6   34     -5.05      0.00
    8    6   34    -30.39      0.00
   10    6   34    -15.92      0.00
   12    6   34      7.75      0.00
   14    6   34    -19.30      0.00
   16    6   34     -1.82      0.00
   18    6   34     -4.34      0.00
   20    6   34      1.89      0.00
   22    6   34     -1.48      0.00
   24    6   34     -8.64      0.00
    1    7   34    -10.46      0.00
    3    7   34     -5.53      0.00
    5    7   34      0.54      0.00
    7    7   34      1.95      0.00
    9    7   34      9.07      0.00
   11    7   34      9.82      0.00
   13    7   34     -4.26      0.00
   15    7   34     -5.32      0.00
   17    7   34     -5.89      0.00
   19    7   34      5.84      0.00
   21    7   34      5.87      0.00
   23    7   34     -4.27      0.00
   25    7   34      4.17      0.00
    0    8   34     -5.28      0.00
    2    8   34    -22.77      0.00
    4    8   34      1.52      0.00
    6    8   34     13.85      0.00
    8    8   34    -13.68      0.00
   10    8   34      8.68      0.00
   12    8   34    -13.51      0.00
   14    8   34     -7.75      0.00
   16    8   34      8.77      0.00
   18    8   34      9.24      0.00
   20    8   34      7.63      0.00
   22    8   34     -1.48      0.00
   24    8   34     -6.70      0.00
    1    9   34     -0.47      0.00
    3    9   34     15.63      0.00
    5    9   34     17.87      0.00
    7    9   34      4.63      0.00
    9    9   34     -1.35      0.00
   11    9   34      9.61      0.00
   13    9   34     15.57      0.00
   15    9   34     -3.50      0.00
   17    9   34    -14.11      0.00
   19    9   34     -7.06      0.00
   21    9   34      1.73      0.00
   23    9   34     -4.30      0.00
    0   10   34      4.66      0.00
    2   10   34    -10.66      0.00
    4   10   34     18.79      0.00
    6   10   34      6.57      0.00
    8   10   34    -20.66      0.00
   10   10   34      1.75      0.00
   12   10   34      5.46      0.00
   14   10   34     -7.42      0.00
   16   10   34    -14.40      0.00
   18   10   34      5.19      0.00
   20   10   34      0.39      0.00
   22   10   34      2.12      0.00
    1   11   34     -2.37      0.00
    3   11   34      9.08      0.00
    5   11   34     -6.02      0.00
    7   11   34      5.05      0.00
    9   11   34      1.79      0.00
   11   11   34     -3.14      0.00
   13   11   34      7.13      0.00
   15   11   34     -8.81      0.00
   17   11   34      6.15      0.00
   19   11   34      5.19      0.00
   21   11   34      4.12      0.00
   23   11   34      6.83      0.00
    0   12   34    -18.61      0.00
    2   12   34      0.50      0.00
    4   12   34      2.00      0.00
    6   12   34    -11.78      0.00
    8   12   34    -12.15      0.00
   10   12   34    -20.66      0.00
   12   12   34     -8.82      0.00
   14   12   34    -10.58      0.00
   16   12   34     -3.00      0.00
   18   12   34     19.35      0.00
   20   12   34     -8.03      0.00
   22   12   34     -0.02      0.00
    1   13   34     -6.34      0.00
    3   13   34     10.68      0.00
    5   13   34      3.45      0.00
    7   13   34      7.87      0.00
    9   13   34     -2.06      0.00
   11   13   34     12.20      0.00
   13   13   34      1.97      0.00
   15   13   34     20.09      0.00
   17   13   34      4.40      0.00
   19   13   34      6.13      0.00
   21   13   34     -5.00      0.00
    0   14   34     -7.33      0.00
    2   14   34      2.99      0.00
    4   14   34      1.30      0.00
    6   14   34     -5.36      0.00
    8   14   34      1.54      0.00
   10   14   34     -9.78      0.00
   12   14   34     -7.19      0.00
   14   14   34     -3.59      0.00
   16   14   34      3.43      0.00
   18   14   34     -9.39      0.00
   20   14   34      1.21      0.00
    1   15   34      4.20      0.00
    3   15   34     17.89      0.00
    5   15   34     26.18      0.00
    7   15   34      8.03      0.00
    9   15   34     16.96      0.00
   11   15   34     -4.45      0.00
   13   15   34    -12.16      0.00
   15   15   34      8.91      0.00
   17   15   34     15.09      0.00
   19   15   34     -2.34      0.00
   21   15   34     -3.07      0.00
    0   16   34      4.68      0.00
    2   16   34     18.22      0.00
    4   16   34     23.32      0.00
    6   16   34      9.58      0.00
    8   16   34     -3.27      0.00
   10   16   34     13.46      0.00
   12   16   34      2.43      0.00
   14   16   34     -5.71      0.00
   16   16   34      1.90      0.00
   18   16   34     -8.02      0.00
   20   16   34     -1.22      0.00
    1   17   34     -5.41      0.00
    3   17   34     15.26      0.00
    5   17   34      1.45      0.00
    7   17   34     -4.07      0.00
    9   17   34     -1.80      0.00
   11   17   34      1.57      0.00
   13   17   34    -12.22      0.00
   15   17   34     -2.24      0.00
   17   17   34     -3.85      0.00
   19   17   34      1.67      0.00
    0   18   34     -5.19      0.00
    2   18   34      1.15      0.00
    4   18   34     -5.60      0.00
    6   18   34     -3.08      0.00
    8   18   34      6.22      0.00
   10   18   34     -5.59      0.00
   12   18   34    -14.53      0.00
   14   18   34     -1.25      0.00
   16   18   34    -12.35      0.00
   18   18   34     -1.95      0.00
    1   19   34    -16.74      0.00
    3   19   34     -2.83      0.00
    5   19   34      3.04      0.00
    7   19   34    -11.20      0.00
    9   19   34      8.19      0.00
   11   19   34     -6.41      0.00
   13   19   34     -1.00      0.00
   15   19   34    -13.02      0.00
   17   19   34     -2.35      0.00
    0   20   34     -7.70      0.00
    2   20   34    -13.28      0.00
    4   20   34    -14.06      0.00
    6   20   34    -20.14      0.00
    8   20   34     -5.65      0.00
   10   20   34     -0.13      0.00
   12   20   34     -7.33      0.00
   14   20   34      0.20      0.00
   16   20   34    -15.73      0.00
    1   21   34     -2.92      0.00
    3   21   34      8.52      0.00
    5   21   34      3.67      0.00
    7   21   34      6.30      0.00
    9   21   34     10.11      0.00
   11   21   34      9.61      0.00
   13   21   34      2.65      0.00
   15   21   34      5.96      0.00
    0   22   34     16.24      0.00
    2   22   34      6.66      0.00
    4   22   34     20.78      0.00
    6   22   34      5.93      0.00
    8   22   34     -0.92      0.00
   10   22   34     -1.77      0.00
   12   22   34      2.74      0.00
    1   23   34      6.44      0.00
    3   23   34     19.65      0.00
    5   23   34      7.93      0.00
    7   23   34     12.93      0.00
    9   23   34      7.46      0.00
   11   23   34     13.36      0.00
    0   24   34      1.52      0.00
    2   24   34     15.74      0.00
    4   24   34     24.14      0.00
    6   24   34      7.05      0.00
    8   24   34      9.13      0.00
   10   24   34    -12.62      0.00
    1   25   34      5.78      0.00
    3   25   34      4.29      0.00
    5   25   34     -6.17      0.00
    7   25   34     -5.15      0.00
    2    1   35      3.18      0.00
    4    1   35     -8.37      0.00
    6    1   35     -4.74      0.00
    8    1   35      0.63      0.00
   10    1   35     13.82      0.00
   12    1   35     -4.02      0.00
   14    1   35      8.76      0.00
   16    1   35      8.94      0.00
   18    1   35     -1.61      0.00
   20    1   35     -2.62      0.00
   22    1   35      3.80      0.00
   24    1   35     13.86      0.00
    1    2   35      1.89      0.00
    3    2   35     -2.12      0.00
    5    2   35    -11.20      0.00
    7    2   35      5.54      0.00
    9    2   35      2.85      0.00
   11    2   35      8.20      0.00
   13    2   35     10.21      0.00
   15    2   35      9.70      0.00
   17    2   35      7.39      0.00
   19    2   35      8.01      0.00
   21    2   35      2.74      0.00
   23    2   35      1.06      0.00
    2    3   35     11.60      0.00
    4    3   35     -4.78      0.00
    6    3   35    -13.20      0.00
    8    3   35      6.96      0.00
   10    3   35     -0.11      0.00
   12    3   35    -18.18      0.00
   14    3   35    -30.46      0.00
   16    3   35    -18.59      0.00
   18    3   35    -11.88      0.00
   20    3   35    -15.00      0.00
   22    3   35     -1.86      0.00
   24    3   35     -5.30      0.00
    1    4   35     -9.84      0.00
    3    4   35    -27.30      0.00
    5    4   35      1.22      0.00
    7    4   35     12.80      0.00
    9    4   35    -12.06      0.00
   11    4   35    -14.81      0.00
   13    4   35     -5.50      0.00
   15    4   35     -0.92      0.00
   17    4   35     -5.33      0.00
   19    4   35     -2.74      0.00
   21    4   35     -0.59      0.00
   23    4   35      7.91      0.00
    2    5   35      7.63      0.00
    4    5   35     -5.22      0.00
    6    5   35     -1.90      0.00
    8    5   35     12.24      0.00
   10    5   35      3.21      0.00
   12    5   35    -12.11      0.00
   14    5   35     -4.02      0.00
   16    5   35      5.34      0.00
   18    5   35     -0.56      0.00
   20    5   35     -8.78      0.00
   22    5   35     -0.32      0.00
   24    5   35     -8.61      0.00
    1    6   35      1.48      0.00
    3    6   35    -12.93      0.00
    5    6   35     -4.94      0.00
    7    6   35      4.81      0.00
    9    6   35     -9.35      0.00
   11    6   35     -2.21      0.00
   13    6   35    -17.23      0.00
   15    6   35    -19.15      0.00
   17    6   35     10.01      0.00
   19    6   35      3.23      0.00
   21    6   35     -0.25      0.00
   23    6   35      5.43      0.00
    2    7   35      9.53      0.00
    4    7   35     -1.26      0.00
    6    7   35     -2.85      0.00
    8    7   35     20.26      0.00
   10    7   35     19.76      0.00
   12    7   35     12.45      0.00
   14    7   35      6.87      0.00
   16    7   35     22.91      0.00
   18    7   35     18.94      0.00
   20    7   35      4.79      0.00
   22    7   35     10.28      0.00
    1    8   35      4.37      0.00
    3    8   35     -9.00      0.00
    5    8   35     17.15      0.00
    7    8   35      5.13      0.00
    9    8   35     -7.11      0.00
   11    8   35      9.08      0.00
   13    8   35      5.21      0.00
   15    8   35      6.82      0.00
   17    8   35      0.73      0.00
   19    8   35     11.03      0.00
   21    8   35      9.54      0.00
   23    8   35      4.75      0.00
    2    9   35     10.26      0.00
    4    9   35      2.64      0.00
    6    9   35     -2.09      0.00
    8    9   35    -10.84      0.00
   10    9   35      1.77      0.00
   12    9   35      0.05      0.00
   14    9   35      4.25      0.00
   16    9   35      4.58      0.00
   18    9   35     -9.99      0.00
   20    9   35     -5.66      0.00
   22    9   35     -5.02      0.00
    1   10   35    -16.45      0.00
    3   10   35      6.19      0.00
    5   10   35     17.76      0.00
    7   10   35      9.87      0.00
    9   10   35      1.46      0.00
   11   10   35     -9.64      0.00
   13   10   35     13.94      0.00
   15   10   35     -0.40      0.00
   17   10   35     -3.99      0.00
   19   10   35      9.18      0.00
   21   10   35     -6.98      0.00
    2   11   35    -10.62      0.00
    4   11   35    -10.53      0.00
    6   11   35    -28.87      0.00
    8   11   35     -5.73      0.00
   10   11   35     -7.11      0.00
   12   11   35    -10.59      0.00
   14   11   35    -12.04      0.00
   16   11   35     -2.93      0.00
   18   11   35     -2.02      0.00
   20   11   35     -9.20      0.00
   22   11   35    -11.70      0.00
    1   12   35     -2.50      0.00
    3   12   35      0.91      0.00
    5   12   35      0.84      0.00
    7   12   35     -2.72      0.00
    9   12   35    -11.00      0.00
   11   12   35    -10.32      0.00
   13   12   35     12.70      0.00
   15   12   35     -8.95      0.00
   17   12   35     -6.51      0.00
   19   12   35      4.33      0.00
   21   12   35      8.56      0.00
    2   13   35      4.11      0.00
    4   13   35      5.27      0.00
    6   13   35     -2.32      0.00
    8   13   35      2.87      0.00
   10   13   35     10.46      0.00
   12   13   35     13.29      0.00
   14   13   35    -13.46      0.00
   16   13   35      1.95      0.00
   18   13   35      6.22      0.00
   20   13   35      1.08      0.00
    1   14   35      5.63      0.00
    3   14   35    -10.61      0.00
    5   14   35     -1.51      0.00
    7   14   35     16.76      0.00
    9   14   35    -23.17      0.00
   11   14   35      0.52      0.00
   13   14   35     18.75      0.00
   15   14   35      7.44      0.00
   17   14   35     10.17      0.00
   19   14   35     -6.80      0.00
    2   15   35     -2.86      0.00
    4   15   35      6.69      0.00
    6   15   35     34.95      0.00
    8   15   35      2.15      0.00
   10   15   35     10.50      0.00
   12   15   35      6.21      0.00
   14   15   35     16.76      0.00
   16   15   35      7.60      0.00
   18   15   35     -0.91      0.00
    1   16   35      0.78      0.00
    3   16   35      2.31      0.00
    5   16   35     12.48      0.00
    7   16   35      4.38      0.00
    9   16   35    -17.63      0.00
   11   16   35      5.67      0.00
   13   16   35     18.39      0.00
   15   16   35      7.49      0.00
   17   16   35     -4.81      0.00
    2   17   35      0.68      0.00
    4   17   35     -1.68      0.00
    6   17   35     -8.88      0.00
    8   17   35      4.77      0.00
   10   17   35      1.84      0.00
   12   17   35      1.03      0.00
   14   17   35      4.39      0.00
   16   17   35      5.15      0.00
    1   18   35      4.72      0.00
    3   18   35      5.05      0.00
    5   18   35      9.97      0.00
    7   18   35     -7.64      0.00
    9   18   35    -11.32      0.00
   11   18   35     -7.35      0.00
   13   18   35     -3.78      0.00
   15   18   35      2.34      0.00
    2   19   35     -0.01      0.00
    4   19   35     -5.73      0.00
    6   19   35      3.96      0.00
    8   19   35      3.12      0.00
   10   19   35     -9.22      0.00
   12   19   35    -10.43      0.00
   14   19   35     10.54      0.00
    1   20   35      1.02      0.00
    3   20   35     -4.34      0.00
    5   20   35     11.28      0.00
    7   20   35      9.30      0.00
    9   20   35     -4.36      0.00
   11   20   35    -17.04      0.00
   13   20   35     -1.01      0.00
    2   21   35     -2.54      0.00
    4   21   35     -0.80      0.00
    6   21   35      5.40      0.00
    8   21   35      2.91      0.00
   10   21   35     -9.76      0.00
   12   21   35      8.56      0.00
    1   22   35     -7.46      0.00
    3   22   35     -5.25      0.00
    5   22   35      6.11      0.00
    7   22   35      3.86      0.00
    9   22   35      5.45      0.00
   11   22   35     -5.97      0.00
    2   23   35     11.43      0.00
    4   23   35     -5.95      0.00
    6   23   35      1.89      0.00
    8   23   35     -4.52      0.00
    1   24   35     -5.17      0.00
    3   24   35      4.61      0.00
    5   24   35     -8.07      0.00
    0    0   36    -10.48      0.00
    2    0   36      2.69      0.00
    4    0   36     17.90      0.00
    6    0   36      3.92      0.00
    8    0   36      4.55      0.00
   10    0   36      9.21      0.00
   12    0   36     10.95      0.00
   14    0   36    -11.97      0.00
   16    0   36     10.95      0.00
   18    0   36     -2.37      0.00
   20    0   36      8.38      0.00
   22    0   36      4.07      0.00
    1    1   36      0.87      0.00
    3    1   36     11.28      0.00
    5    1   36     26.61      0.00
    7    1   36     12.92      0.00
    9    1   36      7.31      0.00
   11    1   36     18.57      0.00
   13    1   36     12.01      0.00
   15    1   36     -0.16      0.00
   17    1   36     -7.58      0.00
   19    1   36      5.77      0.00
   21    1   36     -4.18      0.00
   23    1   36      0.25      0.00
    0    2   36     -2.31      0.00
    2    2   36     22.02      0.00
    4    2   36     11.05      0.00
    6    2   36     17.24      0.00
    8    2   36     -1.01      0.00
   10    2   36      5.60      0.00
   12    2   36      6.94      0.00
   14    2   36    -10.37      0.00
   16    2   36      1.49      0.00
   18    2   36      4.02      0.00
   20    2   36      3.34      0.00
   22    2   36      8.54      0.00
    1    3   36      4.44      0.00
    3    3   36      5.32      0.00
    5    3   36     18.73      0.00
    7    3   36      1.14      0.00
    9    3   36      4.35      0.00
   11    3   36      2.75      0.00
   13    3   36      7.63      0.00
   15    3   36     -0.47      0.00
   17    3   36      4.42      0.00
   19    3   36      2.03      0.00
   21    3   36     -0.46      0.00
    0    4   36     17.03      0.00
    2    4   36     -0.53      0.00
    4    4   36      5.66      0.00
    6    4   36      6.09      0.00
    8    4   36      4.18      0.00
   10    4   36     -1.43      0.00
   12    4   36      5.44      0.00
   14    4   36    -11.43      0.00
   16    4   36     -2.75      0.00
   18    4   36      6.01      0.00
   20    4   36     -3.15      0.00
   22    4   36     -2.55      0.00
    1    5   36    -19.60      0.00
    3    5   36     -0.53      0.00
    5    5   36      0.94      0.00
    7    5   36    -18.32      0.00
    9    5   36    -26.85      0.00
   11    5   36    -15.58      0.00
   13    5   36    -12.93      0.00
   15    5   36     -0.76      0.00
   17    5   36     11.80      0.00
   19    5   36     12.84      0.00
   21    5   36      3.03      0.00
    0    6   36    -13.94      0.00
    2    6   36     -4.90      0.00
    4    6   36      0.82      0.00
    6    6   36     -2.15      0.00
    8    6   36    -22.46      0.00
   10    6   36     -5.05      0.00
   12    6   36     -6.87      0.00
   14    6   36     -3.32      0.00
   16    6   36     -1.03      0.00
   18    6   36     -0.68      0.00
   20    6   36     -6.63      0.00
   22    6   36     -7.00      0.00
    1    7   36    -10.01      0.00
    3    7   36     14.69      0.00
    5    7   36      1.68      0.00
    7    7   36     -2.68      0.00
    9    7   36     -0.48      0.00
   11    7   36      6.18      0.00
   13    7   36      2.59      0.00
   15    7   36      0.18      0.00
   17    7   36     13.27      0.00
   19    7   36      3.50      0.00
   21    7   36      8.51      0.00
    0    8   36     -5.12      0.00
    2    8   36    -20.90      0.00
    4    8   36      2.87      0.00
    6    8   36      1.69      0.00
    8    8   36    -10.93      0.00
   10    8   36     -6.84      0.00
   12    8   36    -14.69      0.00
   14    8   36     -0.78      0.00
   16    8   36     12.21      0.00
   18    8   36      0.08      0.00
   20    8   36      3.81      0.00
    1    9   36      9.09      0.00
    3    9   36     21.89      0.00
    5    9   36     17.97      0.00
    7    9   36    -10.63      0.00
    9    9   36     -2.03      0.00
   11    9   36     11.99      0.00
   13    9   36      7.45      0.00
   15    9   36     -1.35      0.00
   17    9   36      3.55      0.00
   19    9   36      0.43      0.00
   21    9   36      5.39      0.00
    0   10   36      8.41      0.00
    2   10   36     -0.49      0.00
    4   10   36      6.59      0.00
    6   10   36      6.72      0.00
    8   10   36      9.15      0.00
   10   10   36     19.28      0.00
   12   10   36     -4.72      0.00
   14   10   36    -10.08      0.00
   16   10   36     -9.19      0.00
   18   10   36      3.79      0.00
   20   10   36      4.70      0.00
    1   11   36     -7.73      0.00
    3   11   36     -4.11      0.00
    5   11   36     14.56      0.00
    7   11   36    -23.81      0.00
    9   11   36    -16.87      0.00
   11   11   36      4.05      0.00
   13   11   36      7.17      0.00
   15   11   36     -9.89      0.00
   17   11   36     -2.87      0.00
   19   11   36     15.42      0.00
    0   12   36    -19.70      0.00
    2   12   36     11.45      0.00
    4   12   36     27.76      0.00
    6   12   36     13.75      0.00
    8   12   36      9.55      0.00
   10   12   36     -4.22      0.00
   12   12   36     10.21      0.00
   14   12   36     -3.27      0.00
   16   12   36    -10.33      0.00
   18   12   36     -1.02      0.00
    1   13   36      4.00      0.00
    3   13   36     -3.49      0.00
    5   13   36     -3.46      0.00
    7   13   36     -0.86      0.00
    9   13   36     -2.81      0.00
   11   13   36     11.77      0.00
   13   13   36      2.32      0.00
   15   13   36    -18.85      0.00
   17   13   36      5.39      0.00
   19   13   36      1.92      0.00
    0   14   36    -10.43      0.00
    2   14   36     -0.83      0.00
    4   14   36     -0.76      0.00
    6   14   36      4.44      0.00
    8   14   36     15.50      0.00
   10   14   36     -5.99      0.00
   12   14   36    -19.31      0.00
   14   14   36     -7.07      0.00
   16   14   36      0.65      0.00
   18   14   36     -2.21      0.00
    1   15   36     10.82      0.00
    3   15   36     21.97      0.00
    5   15   36     13.67      0.00
    7   15   36    -10.17      0.00
    9   15   36      1.69      0.00
   11   15   36     24.44      0.00
   13   15   36    -13.45      0.00
   15   15   36     -4.76      0.00
   17   15   36      4.32      0.00
    0   16   36    -11.73      0.00
    2   16   36     -2.15      0.00
    4   16   36      0.28      0.00
    6   16   36    -10.83      0.00
    8   16   36    -19.74      0.00
   10   16   36     -6.17      0.00
   12   16   36     -3.03      0.00
   14   16   36     -7.20      0.00
   16   16   36     -5.84      0.00
    1   17   36    -15.74      0.00
    3   17   36      7.93      0.00
    5   17   36      3.77      0.00
    7   17   36    -26.33      0.00
    9   17   36     -1.39      0.00
   11   17   36      5.90      0.00
   13   17   36     -0.93      0.00
   15   17   36      4.36      0.00
    0   18   36    -13.22      0.00
    2   18   36      2.18      0.00
    4   18   36      7.46      0.00
    6   18   36      1.82      0.00
    8   18   36    -11.50      0.00
   10   18   36     -1.46      0.00
   12   18   36     -1.29      0.00
   14   18   36    -11.16      0.00
    1   19   36    -12.49      0.00
    3   19   36      2.89      0.00
    5   19   36    -20.60      0.00
    7   19   36    -16.22      0.00
    9   19   36     -8.53      0.00
   11   19   36      9.04      0.00
   13   19   36      9.79      0.00
    0   20   36     13.46      0.00
    2   20   36     -0.27      0.00
    4   20   36     -3.09      0.00
    6   20   36      1.48      0.00
    8   20   36      0.48      0.00
   10   20   36     17.31      0.00
    1   21   36      7.79      0.00
    3   21   36     13.31      0.00
    5   21   36      6.31      0.00
    7   21   36      5.61      0.00
    9   21   36     -2.07      0.00
    0   22   36      3.58      0.00
    2   22   36     -0.71      0.00
    4   22   36     25.79      0.00
    6   22   36     -4.38      0.00
    1   23   36      2.15      0.00
    2    1   37     21.29      0.00
    4    1   37      1.21      0.00
    6    1   37     -5.15      0.00
    8    1   37      0.89      0.00
   10    1   37      7.81      0.00
   12    1   37    -13.52      0.00
   14    1   37     -2.21      0.00
   16    1   37     15.77      0.00
   18    1   37      5.37      0.00
   20    1   37      4.63      0.00
    1    2   37     13.84      0.00
    3    2   37     11.11      0.00
    5    2   37      5.44      0.00
    7    2   37     -8.31      0.00
    9    2   37     -0.80      0.00
   11    2   37      5.45      0.00
   13    2   37     -0.22      0.00
   15    2   37      4.07      0.00
   17    2   37     -2.53      0.00
   19    2   37     -3.54      0.00
   21    2   37     -4.48      0.00
    2    3   37      5.49      0.00
    4    3   37     -0.52      0.00
    6    3   37     -9.41      0.00
    8    3   37      2.83      0.00
   10    3   37      4.73      0.00
   12    3   37    -22.06      0.00
   14    3   37    -22.86      0.00
   16    3   37     -9.31      0.00
   18    3   37     -8.06      0.00
   20    3   37     -8.30      0.00
    1    4   37     -0.06      0.00
    3    4   37     -3.14      0.00
    5    4   37      2.60      0.00
    7    4   37     -0.25      0.00
    9    4   37    -12.82      0.00
   11    4   37     -0.55      0.00
   13    4   37      3.22      0.00
   15    4   37      8.09      0.00
   17    4   37     10.97      0.00
   19    4   37     -3.81      0.00
   21    4   37      0.52      0.00
    2    5   37     11.26      0.00
    4    5   37      6.59      0.00
    6    5   37    -22.22      0.00
    8    5   37     -6.76      0.00
   10    5   37      0.89      0.00
   12    5   37      3.76      0.00
   14    5   37      5.35      0.00
   16    5   37      8.75      0.00
   18    5   37     -4.54      0.00
   20    5   37    -12.88      0.00
    1    6   37     -1.23      0.00
    3    6   37     -8.85      0.00
    5    6   37    -10.19      0.00
    7    6   37      1.25      0.00
    9    6   37      4.32      0.00
   11    6   37      1.57      0.00
   13    6   37     -2.13      0.00
   15    6   37      2.19      0.00
   17    6   37      6.05      0.00
   19    6   37      5.29      0.00
    2    7   37     -1.98      0.00
    4    7   37     -3.17      0.00
    6    7   37      5.34      0.00
    8    7   37      9.55      0.00
   10    7   37     12.70      0.00
   12    7   37     -3.68      0.00
   14    7   37     20.79      0.00
   16    7   37     20.56      0.00
   18    7   37      5.03      0.00
   20    7   37    -10.82      0.00
    1    8   37      9.15      0.00
    3    8   37      5.90      0.00
    5    8   37    -17.33      0.00
    7    8   37     -5.96      0.00
    9    8   37     -0.97      0.00
   11    8   37      3.27      0.00
   13    8   37     17.13      0.00
   15    8   37      0.11      0.00
   17    8   37     -5.88      0.00
   19    8   37     -3.41      0.00
    2    9   37     32.03      0.00
    4    9   37      8.76      0.00
    6    9   37      1.18      0.00
    8    9   37     -9.59      0.00
   10    9   37      2.34      0.00
   12    9   37     -6.62      0.00
   14    9   37     -5.31      0.00
   16    9   37      5.19      0.00
   18    9   37    -11.24      0.00
    1   10   37     -5.03      0.00
    3   10   37    -16.47      0.00
    5   10   37    -10.39      0.00
    7   10   37      2.06      0.00
    9   10   37      7.61      0.00
   11   10   37      3.32      0.00
   13   10   37      4.78      0.00
   15   10   37     11.38      0.00
   17   10   37     10.03      0.00
   19   10   37      2.66      0.00
    2   11   37     13.78      0.00
    4   11   37     12.86      0.00
    6   11   37     -9.32      0.00
    8   11   37    -13.26      0.00
   10   11   37     -6.67      0.00
   12   11   37    -13.59      0.00
   14   11   37     -5.88      0.00
   16   11   37      0.56      0.00
   18   11   37      8.59      0.00
    1   12   37     -9.57      0.00
    3   12   37     10.18      0.00
    5   12   37      1.05      0.00
    7   12   37     -0.34      0.00
    9   12   37     14.37      0.00
   11   12   37     10.10      0.00
   13   12   37      0.00      0.00
   15   12   37      4.01      0.00
   17   12   37     18.26      0.00
    2   13   37      0.17      0.00
    4   13   37     17.56      0.00
    6   13   37      0.03      0.00
    8   13   37      8.09      0.00
   10   13   37      5.82      0.00
   12   13   37      8.56      0.00
   14   13   37      0.51      0.00
   16   13   37      2.48      0.00
    1   14   37     -4.26      0.00
    3   14   37      7.45      0.00
    5   14   37      5.49      0.00
    7   14   37      3.88      0.00
    9   14   37      5.38      0.00
   11   14   37     -0.06      0.00
   13   14   37      7.13      0.00
   15   14   37     11.73      0.00
    2   15   37      3.97      0.00
    4   15   37     14.08      0.00
    6   15   37     12.94      0.00
    8   15   37     -1.73      0.00
   10   15   37     -7.70      0.00
   12   15   37     16.19      0.00
   14   15   37     -1.95      0.00
    1   16   37      7.90      0.00
    3   16   37     -3.06      0.00
    5   16   37     -8.69      0.00
    7   16   37      1.41      0.00
    9   16   37     -1.54      0.00
   11   16   37     -0.40      0.00
   13   16   37      4.80      0.00
    2   17   37     -2.07      0.00
    4   17   37     -4.94      0.00
    6   17   37      3.48      0.00
    8   17   37      3.06      0.00
   10   17   37     -6.89      0.00
   12   17   37    -17.31      0.00
    1   18   37     14.27      0.00
    3   18   37     -0.57      0.00
    5   18   37    -13.31      0.00
    7   18   37      1.14      0.00
    9   18   37     -6.09      0.00
   11   18   37      4.62      0.00
    2   19   37     11.85      0.00
    4   19   37     -0.94      0.00
    6   19   37     -8.28      0.00
    8   19   37     11.10      0.00
   10   19   37      9.49      0.00
    1   20   37      4.59      0.00
    3   20   37     -9.61      0.00
    5   20   37      7.70      0.00
    7   20   37     -1.86      0.00
    2   21   37      1.90      0.00
    4   21   37    -13.90      0.00
    0    0   38      7.10      0.00
    2    0   38     31.57      0.00
    4    0   38     16.53      0.00
    6    0   38     24.90      0.00
    8    0   38      3.39      0.00
   10    0   38      3.60      0.00
   12    0   38      1.72      0.00
   14    0   38      6.87      0.00
   16    0   38     15.05      0.00
   18    0   38      6.18      0.00
    1    1   38      5.11      0.00
    3    1   38     12.77      0.00
    5    1   38     12.98      0.00
    7    1   38     -1.46      0.00
    9    1   38      5.29      0.00
   11    1   38      4.81      0.00
   13    1   38      8.08      0.00
   15    1   38      1.50      0.00
   17    1   38    -10.78      0.00
   19    1   38     -3.67      0.00
    0    2   38     40.29      0.00
    2    2   38     11.02      0.00
    4    2   38     -4.69      0.00
    6    2   38    -10.21      0.00
    8    2   38     12.04      0.00
   10    2   38     -5.02      0.00
   12    2   38     -7.27      0.00
   14    2   38      1.19      0.00
   16    2   38      6.27      0.00
   18    2   38      3.47      0.00
    1    3   38     -2.69      0.00
    3    3   38     -4.21      0.00
    5    3   38     -5.83      0.00
    7    3   38    -10.48      0.00
    9    3   38     -1.20      0.00
   11    3   38      1.84      0.00
   13    3   38     -3.30      0.00
   15    3   38      4.57      0.00
   17    3   38     -6.81      0.00
   19    3   38     -4.35      0.00
    0    4   38      1.40      0.00
    2    4   38      2.58      0.00
    4    4   38     -4.93      0.00
    6    4   38      0.12      0.00
    8    4   38     -8.03      0.00
   10    4   38     -8.49      0.00
   12    4   38     -7.45      0.00
   14    4   38     -0.33      0.00
   16    4   38     -5.94      0.00
   18    4   38    -12.26      0.00
    1    5   38    -17.60      0.00
    3    5   38     -9.44      0.00
    5    5   38    -20.56      0.00
    7    5   38    -23.61      0.00
    9    5   38    -30.05      0.00
   11    5   38     -1.72      0.00
   13    5   38    -13.37      0.00
   15    5   38    -12.36      0.00
   17    5   38      2.94      0.00
   19    5   38      1.18      0.00
    0    6   38     10.04      0.00
    2    6   38     -6.46      0.00
    4    6   38     11.40      0.00
    6    6   38     -5.48      0.00
    8    6   38      3.81      0.00
   10    6   38     12.48      0.00
   12    6   38      7.35      0.00
   14    6   38      7.15      0.00
   16    6   38     -7.96      0.00
   18    6   38    -19.03      0.00
    1    7   38    -11.78      0.00
    3    7   38      2.25      0.00
    5    7   38      7.34      0.00
    7    7   38      8.15      0.00
    9    7   38    -11.47      0.00
   11    7   38      6.17      0.00
   13    7   38      0.21      0.00
   15    7   38    -10.41      0.00
   17    7   38      4.54      0.00
    0    8   38      2.11      0.00
    2    8   38      9.89      0.00
    4    8   38    -11.67      0.00
    6    8   38    -11.46      0.00
    8    8   38      3.39      0.00
   10    8   38      3.97      0.00
   12    8   38     -1.67      0.00
   14    8   38      2.17      0.00
   16    8   38     -1.09      0.00
   18    8   38     -4.17      0.00
    1    9   38      4.59      0.00
    3    9   38      8.08      0.00
    5    9   38     25.50      0.00
    7    9   38     14.69      0.00
    9    9   38      8.29      0.00
   11    9   38     10.67      0.00
   13    9   38      4.07      0.00
   15    9   38     -8.70      0.00
   17    9   38    -11.29      0.00
    0   10   38     14.00      0.00
    2   10   38      3.42      0.00
    4   10   38     -6.41      0.00
    6   10   38     -9.97      0.00
    8   10   38     -4.34      0.00
   10   10   38     -3.39      0.00
   12   10   38      1.27      0.00
   14   10   38     -7.35      0.00
   16   10   38     -0.63      0.00
    1   11   38    -10.45      0.00
    3   11   38    -16.12      0.00
    5   11   38     16.74      0.00
    7   11   38    -14.06      0.00
    9   11   38     -9.26      0.00
   11   11   38      3.91      0.00
   13   11   38      8.34      0.00
   15   11   38     -3.59      0.00
    0   12   38     17.30      0.00
    2   12   38      8.72      0.00
    4   12   38      4.14      0.00
    6   12   38     -8.10      0.00
    8   12   38      2.45      0.00
   10   12   38      9.48      0.00
   12   12   38    -11.61      0.00
   14   12   38      0.18      0.00
    1   13   38    -14.10      0.00
    3   13   38    -19.70      0.00
    5   13   38    -20.22      0.00
    7   13   38     -7.51      0.00
    9   13   38     -5.26      0.00
   11   13   38     -8.88      0.00
   13   13   38      0.58      0.00
    0   14   38    -26.59      0.00
    2   14   38      9.58      0.00
    4   14   38      3.09      0.00
    6   14   38     -4.21      0.00
    8   14   38      1.36      0.00
   10   14   38     -2.48      0.00
   12   14   38      1.81      0.00
    1   15   38      7.70      0.00
    3   15   38      7.67      0.00
    5   15   38    -16.13      0.00
    7   15   38    -19.70      0.00
    9   15   38     -8.94      0.00
   11   15   38      4.19      0.00
    0   16   38    -31.42      0.00
    2   16   38    -10.01      0.00
    4   16   38     -3.16      0.00
    6   16   38     -7.58      0.00
    8   16   38     -1.57      0.00
   10   16   38     -4.56      0.00
    1   17   38     -4.03      0.00
    3   17   38      6.13      0.00
    5   17   38      8.97      0.00
    7   17   38     -8.23      0.00
    9   17   38     -5.45      0.00
    0   18   38      0.01      0.00
    2   18   38     -4.08      0.00
    4   18   38     -5.40      0.00
    6   18   38     -0.10      0.00
    8   18   38    -12.78      0.00
    1   19   38     -3.48      0.00
    3   19   38    -14.04      0.00
    5   19   38    -14.16      0.00
    2    1   39     -0.30      0.00
    4    1   39     -7.98      0.00
    6    1   39      0.23      0.00
    8    1   39      4.09      0.00
   10    1   39      5.92      0.00
   12    1   39      1.36      0.00
   14    1   39     11.50      0.00
   16    1   39     17.57      0.00
    1    2   39      6.22      0.00
    3    2   39     -4.47      0.00
    5    2   39     -7.72      0.00
    7    2   39      2.88      0.00
    9    2   39     18.06      0.00
   11    2   39      3.48      0.00
   13    2   39     -0.76      0.00
   15    2   39     -3.03      0.00
   17    2   39     -4.35      0.00
    2    3   39      2.91      0.00
    4    3   39     -4.83      0.00
    6    3   39    -11.01      0.00
    8    3   39      2.24      0.00
   10    3   39     -5.72      0.00
   12    3   39     -0.44      0.00
   14    3   39     -8.84      0.00
   16    3   39    -12.02      0.00
    1    4   39      7.04      0.00
    3    4   39     -7.46      0.00
    5    4   39     -6.39      0.00
    7    4   39     -9.97      0.00
    9    4   39     -8.43      0.00
   11    4   39      3.30      0.00
   13    4   39      4.20      0.00
   15    4   39      9.82      0.00
   17    4   39      6.51      0.00
    2    5   39      1.60      0.00
    4    5   39      0.29      0.00
    6    5   39     -2.26      0.00
    8    5   39      4.01      0.00
   10    5   39      2.90      0.00
   12    5   39     -2.47      0.00
   14    5   39     -3.25      0.00
   16    5   39    -11.58      0.00
    1    6   39     -4.49      0.00
    3    6   39     -8.27      0.00
    5    6   39     -9.40      0.00
    7    6   39     -0.71      0.00
    9    6   39      6.47      0.00
   11    6   39      2.09      0.00
   13    6   39    -11.75      0.00
   15    6   39      0.11      0.00
    2    7   39     -0.14      0.00
    4    7   39     -8.01      0.00
    6    7   39     -3.87      0.00
    8    7   39      6.67      0.00
   10    7   39     14.21      0.00
   12    7   39     -2.61      0.00
   14    7   39     -1.25      0.00
   16    7   39      9.70      0.00
    1    8   39      6.74      0.00
    3    8   39     27.87      0.00
    5    8   39     -6.62      0.00
    7    8   39    -13.33      0.00
    9    8   39      2.19      0.00
   11    8   39      5.34      0.00
   13    8   39      4.08      0.00
   15    8   39    -10.38      0.00
    2    9   39     -0.58      0.00
    4    9   39    -21.78      0.00
    6    9   39      5.35      0.00
    8    9   39      8.75      0.00
   10    9   39      2.31      0.00
   12    9   39    -10.89      0.00
   14    9   39      9.31      0.00
    1   10   39     -2.77      0.00
    3   10   39     -4.25      0.00
    5   10   39      0.37      0.00
    7   10   39      3.49      0.00
    9   10   39      1.58      0.00
   11   10   39      6.63      0.00
   13   10   39      0.47      0.00
    2   11   39      6.71      0.00
    4   11   39     -4.15      0.00
    6   11   39      2.45      0.00
    8   11   39      4.95      0.00
   10   11   39     -6.67      0.00
   12   11   39     -3.01      0.00
    1   12   39    -11.22      0.00
    3   12   39     -5.77      0.00
    5   12   39     -3.91      0.00
    7   12   39     -3.34      0.00
    9   12   39     20.15      0.00
   11   12   39     19.08      0.00
    2   13   39      6.83      0.00
    4   13   39     13.68      0.00
    6   13   39     -2.24      0.00
    8   13   39     -0.35      0.00
   10   13   39     -2.73      0.00
    1   14   39     -7.08      0.00
    3   14   39     -0.46      0.00
    5   14   39     -7.40      0.00
    7   14   39     -7.81      0.00
    9   14   39      6.25      0.00
    2   15   39      1.02      0.00
    4   15   39      3.94      0.00
    6   15   39      6.62      0.00
    8   15   39     -3.34      0.00
    1   16   39     -2.37      0.00
    3   16   39    -15.47      0.00
    5   16   39     -7.95      0.00
    7   16   39      8.72      0.00
    2   17   39      2.92      0.00
    4   17   39     -2.09      0.00
    0    0   40     10.37      0.00
    2    0   40     -1.48      0.00
    4    0   40     13.94      0.00
    6    0   40      8.35      0.00
    8    0   40     -1.80      0.00
   10    0   40     -0.53      0.00
   12    0   40      5.55      0.00
   14    0   40      4.92      0.00
    1    1   40      4.55      0.00
    3    1   40     -8.48      0.00
    5    1   40     -8.31      0.00
    7    1   40     -6.55      0.00
    9    1   40      2.40      0.00
   11    1   40     -0.48      0.00
   13    1   40      0.61      0.00
   15    1   40     -2.25      0.00
    0    2   40      7.27      0.00
    2    2   40      3.91      0.00
    4    2   40    -18.24      0.00
    6    2   40      2.41      0.00
    8    2   40      0.45      0.00
   10    2   40      2.59      0.00
   12    2   40     -6.46      0.00
   14    2   40     -0.82      0.00
    1    3   40    -13.44      0.00
    3    3   40     -8.70      0.00
    5    3   40      6.05      0.00
    7    3   40      5.10      0.00
    9    3   40    -10.14      0.00
   11    3   40    -14.14      0.00
   13    3   40     -1.12      0.00
    0    4   40     15.57      0.00
    2    4   40     -1.24      0.00
    4    4   40      3.41      0.00
    6    4   40    -12.09      0.00
    8    4   40      6.42      0.00
   10    4   40     -3.10      0.00
   12    4   40     -6.55      0.00
   14    4   40     -6.07      0.00
    1    5   40      0.69      0.00
    3    5   40    -15.04      0.00
    5    5   40     -3.51      0.00
    7    5   40     -0.07      0.00
    9    5   40      0.16      0.00
   11    5   40      9.69      0.00
   13    5   40     -3.78      0.00
    0    6   40      5.21      0.00
    2    6   40      4.11      0.00
    4    6   40      6.95      0.00
    6    6   40      5.81      0.00
    8    6   40      8.98      0.00
   10    6   40      8.90      0.00
   12    6   40     -2.70      0.00
   14    6   40      7.77      0.00
    1    7   40     -8.91      0.00
    3    7   40     -2.77      0.00
    5    7   40     -4.58      0.00
    7    7   40      0.23      0.00
    9    7   40      0.85      0.00
   11    7   40     10.29      0.00
   13    7   40     -7.99      0.00
    0    8   40      0.06      0.00
    2    8   40     -6.97      0.00
    4    8   40      1.90      0.00
    6    8   40      1.91      0.00
    8    8   40      3.35      0.00
   10    8   40     -5.65      0.00
   12    8   40      0.66      0.00
    1    9   40     -6.88      0.00
    3    9   40      0.72      0.00
    5    9   40      3.46      0.00
    7    9   40      8.77      0.00
    9    9   40      3.53      0.00
   11    9   40     -6.90      0.00
    0   10   40     -6.76      0.00
    2   10   40     -5.82      0.00
    4   10   40    -16.10      0.00
    6   10   40     -1.72      0.00
    8   10   40     -7.47      0.00
   10   10   40     -5.60      0.00
    1   11   40     -7.66      0.00
    3   11   40    -13.75      0.00
    5   11   40     -1.46      0.00
    7   11   40      5.03      0.00
    9   11   40      0.07      0.00
    0   12   40      3.36      0.00
    2   12   40     -3.23      0.00
    4   12   40     -0.59      0.00
    6   12   40      3.76      0.00
    8   12   40     -7.88      0.00
    1   13   40    -21.00      0.00
    3   13   40    -18.82      0.00
    5   13   40      8.22      0.00
    7   13   40      2.77      0.00
    0   14   40      5.87      0.00
    2   14   40     13.49      0.00
    4   14   40      5.86      0.00
    6   14   40    -15.27      0.00
    1   15   40     -7.42      0.00
    2    1   41     -4.07      0.00
    4    1   41     -2.07      0.00
    6    1   41      2.68      0.00
    8    1   41     10.58      0.00
   10    1   41     14.51      0.00
   12    1   41      2.36      0.00
    1    2   41     -3.66      0.00
    3    2   41     -2.77      0.00
    5    2   41      0.48      0.00
    7    2   41    -14.30      0.00
    9    2   41     -4.93      0.00
   11    2   41      2.07      0.00
    2    3   41     -4.41      0.00
    4    3   41     -6.10      0.00
    6    3   41     -2.13      0.00
    8    3   41      5.06      0.00
   10    3   41     -9.85      0.00
    1    4   41     -7.38      0.00
    3    4   41     -6.86      0.00
    5    4   41      6.39      0.00
    7    4   41     -4.45      0.00
    9    4   41     -1.94      0.00
   11    4   41     -5.76      0.00
    2    5   41     -4.73      0.00
    4    5   41    -10.72      0.00
    6    5   41      2.86      0.00
    8    5   41     14.15      0.00
   10    5   41     -2.97      0.00
    1    6   41     -0.06      0.00
    3    6   41     -4.64      0.00
    5    6   41     -8.40      0.00
    7    6   41      0.51      0.00
    9    6   41      0.97      0.00
    2    7   41     -2.41      0.00
    4    7   41     -1.46      0.00
    6    7   41      0.27      0.00
    8    7   41      5.07      0.00
   10    7   41     11.59      0.00
    1    8   41      1.47      0.00
    3    8   41      5.37      0.00
    5    8   41     -0.09      0.00
    7    8   41      0.88      0.00
    9    8   41      5.60      0.00
    2    9   41     -4.27      0.00
    4    9   41     -6.98      0.00
    6    9   41     -1.10      0.00
    8    9   41      7.68      0.00
    1   10   41     -2.52      0.00
    3   10   41      8.44      0.00
    5   10   41      6.22      0.00
    7   10   41      4.24      0.00
    2   11   41      6.69      0.00
    4   11   41    -10.77      0.00
    1   12   41     -1.86      0.00
    0    0   42      0.65      0.00
    2    0   42      3.67      0.00
    4    0   42     -8.83      0.00
    6    0   42      2.94      0.00
    8    0   42     -6.39      0.00
    1    1   42     -1.61      0.00
    3    1   42     -2.55      0.00
    5    1   42     -3.28      0.00
    7    1   42      1.30      0.00
    0    2   42      0.80      0.00
    2    2   42     -7.44      0.00
    4    2   42      5.14      0.00
    6    2   42     11.46      0.00
    8    2   42      7.00      0.00
    1    3   42    -11.77      0.00
    3    3   42      3.04      0.00
    5    3   42      9.22      0.00
    7    3   42      1.24      0.00
    0    4   42     -7.29      0.00
    2    4   42      4.94      0.00
    4    4   42     -0.14      0.00
    6    4   42      8.39      0.00
    1    5   42     -6.50      0.00
    3    5   42     -4.94      0.00
    5    5   42     -2.59      0.00
    0    6   42    -16.25      0.00
    2    6   42    -14.34      0.00
    4    6   42      8.06      0.00
    1    7   42     -5.60      0.00
    3    7   42     -6.92      0.00
    0    8   42     -1.96      0.00
    2    8   42    -12.21      0.00
    0    0    2    621.58      0.00
   22   26   26    -11.58      0.00
   26   21   27     -5.65      0.00
   25   22   27    -10.83      0.00
   24   23   27      5.70      0.00
   23   24   27      1.47      0.00
   22   25   27      5.06      0.00
   21   26   27     10.40      0.00
   20   27   27     11.62      0.00
   25   21   28     -0.07      0.00
   24   22   28     -6.30      0.00
   23   23   28     -2.96      0.00
   22   24   28     -3.97      0.00
   21   25   28      2.38      0.00
   28   15   29      4.05      0.00
   24   21   29     -3.80      0.00
   23   22   29     -4.54      0.00
   22   23   29     -3.14      0.00
   21   24   29      3.96      0.00
   15   28   29      3.03      0.00
   27   15   30      4.14      0.00
   15   27   30      8.57      0.00
    6   30   30      1.40      0.00
   29    6   31     11.78      0.00
   27   12   31      3.49      0.00
   25   16   31     -1.14      0.00
   16   25   31     -2.13      0.00
   12   27   31     -9.75      0.00
    6   29   31      0.40      0.00
   28    6   32     -8.18      0.00
   27    9   32     -1.43      0.00
   26   12   32     -3.41      0.00
   24   16   32      5.27      0.00
   23   17   32     -1.56      0.00
   17   23   32    -17.67      0.00
   16   24   32      4.60      0.00
   12   26   32     -2.27      0.00
    9   27   32      4.23      0.00
    6   28   32      5.86      0.00
   27    4   33     -8.04      0.00
   27    6   33      8.55      0.00
   26    9   33     -7.72      0.00
   25   12   33     -1.69      0.00
   24   13   33     -1.38      0.00
   21   18   33      4.23      0.00
   20   19   33      9.14      0.00
   19   20   33      0.58      0.00
   18   21   33     -2.25      0.00
   13   24   33     -7.68      0.00
   12   25   33     -7.01      0.00
    9   26   33     -9.52      0.00
    4   27   33     -2.80      0.00
    6   27   33      1.15      0.00
   26    0   34     10.20      0.00
   26    2   34     -1.49      0.00
   26    4   34      2.87      0.00
   24   10   34      4.45      0.00
   23   13   34     -0.02      0.00
   22   14   34     -2.62      0.00
   14   22   34      0.39      0.00
   13   23   34      9.63      0.00
    0   26   34     -5.66      0.00
    2   26   34      2.81      0.00
    4   26   34     -3.89      0.00
   25    2   35      5.39      0.00
   24    7   35     -6.27      0.00
   23   10   35      5.89      0.00
   20   15   35     -3.44      0.00
   19   16   35      3.83      0.00
   18   17   35      2.22      0.00
   17   18   35     -1.44      0.00
   16   19   35     -5.18      0.00
   15   20   35     -2.84      0.00
   10   23   35      1.73      0.00
    7   24   35     -1.71      0.00
    2   25   35     -0.58      0.00
   23    3   36      4.05      0.00
   23    5   36      4.33      0.00
   22    8   36     -5.90      0.00
   21   11   36     -1.55      0.00
   20   12   36     -4.35      0.00
   12   20   36      2.61      0.00
   11   21   36     -4.05      0.00
    8   22   36     -5.39      0.00
    3   23   36      7.42      0.00
    5   23   36     14.24      0.00
   22    1   37     -1.20      0.00
   21    6   37      2.57      0.00
   20    9   37     -1.77      0.00
   17   14   37     13.45      0.00
   16   15   37      3.43      0.00
   15   16   37      3.92      0.00
   14   17   37      5.36      0.00
    9   20   37      1.21      0.00
    6   21   37      5.93      0.00
    1   22   37     -5.52      0.00
   20    0   38     -9.20      0.00
   20    2   38     -2.24      0.00
   19    7   38     -2.73      0.00
   17   11   38    -13.44      0.00
   16   12   38      0.48      0.00
   15   13   38     -1.58      0.00
   14   14   38      1.10      0.00
   13   15   38      2.69      0.00
   12   16   38      8.73      0.00
   11   17   38     10.05      0.00
    7   19   38     -5.01      0.00
    0   20   38     12.86      0.00
    2   20   38     -4.71      0.00
   18    1   39     -7.53      0.00
   18    3   39     -1.95      0.00
   17    6   39      6.67      0.00
   16    9   39      9.10      0.00
   15   10   39      5.10      0.00
   14   11   39      6.67      0.00
   13   12   39     -3.53      0.00
   12   13   39      1.07      0.00
   11   14   39     -0.12      0.00
   10   15   39     -7.25      0.00
    9   16   39     -3.40      0.00
    6   17   39     -5.96      0.00
    1   18   39      6.24      0.00
    3   18   39      0.89      0.00
   16    0   40     -8.80      0.00
   15    3   40      1.83      0.00
   15    5   40     -5.74      0.00
   13    9   40     -3.43      0.00
   12   10   40     10.78      0.00
   11   11   40     -3.85      0.00
   10   12   40      4.50      0.00
    9   13   40      0.87      0.00
    3   15   40     -2.91      0.00
    5   15   40     -5.25      0.00
    0   16   40    -17.28      0.00
   13    2   41     -3.66      0.00
   12    3   41     -3.35      0.00
   12    5   41      4.68      0.00
   11    6   41     -0.56      0.00
    6   11   41      0.07      0.00
    3   12   41      2.46      0.00
    5   12   41      8.78      0.00
    2   13   41      2.04      0.00
    9    1   42      9.75      0.00
    9    3   42      6.06      0.00
    8    4   42      6.95      0.00
    7    5   42      2.42      0.00
    6    6   42      5.02      0.00
    5    7   42      7.50      0.00
    4    8   42     -4.15      0.00
    1    9   42     -4.81      0.00
    3    9   42      5.32      0.00
    0    0    0      0.00      0.00
# SQUEEZE RESULTS (Version =  50315)
# Note: Data are Listed for all Voids in the P1 Unit Cell
# i.e. Centre of Gravity, Solvent Accessible Volume,
# Recovered number of Electrons in the Void and
# Details about the Squeezed Material
loop_
  _platon_squeeze_void_nr
  _platon_squeeze_void_average_x
  _platon_squeeze_void_average_y
  _platon_squeeze_void_average_z
  _platon_squeeze_void_volume
  _platon_squeeze_void_count_electrons
  _platon_squeeze_void_content
   1  0.013 -0.015  0.000     12693      3050 ' '
   2  0.250  0.250  0.250        88         8 ' '
   3  0.750  0.250  0.250        88         8 ' '
   4  0.750  0.250  0.750        88         8 ' '
   5  0.250  0.250  0.750        88         8 ' '
   6  0.250  0.750  0.250        88         8 ' '
   7  0.750  0.750  0.250        88         8 ' '
   8  0.750  0.750  0.750        88         8 ' '
   9  0.250  0.750  0.750        88         8 ' '
# Missing Reflections Below sin(th)/lambda = 0.25
loop_
  _platon_missing_refln_index_h
  _platon_missing_refln_index_k
  _platon_missing_refln_index_l
  _platon_missing_refln_theta
    0    0    2     1.269
_platon_squeeze_void_probe_radius                  1.20
_platon_squeeze_details
)
TITL N151012A  I a -3       R = 0.06
CELL   32.1011   32.1011   32.1011     90.00     90.00     90.00
SPGR Ia-3
# Solvent Accessible Volume =   13742.6
# Electrons Found in S.A.V. =    3108.6
# Note: Atoms in Void as Cxxx and Qxxx all others
C101 0.992 0.013 0.142 !       8.07 eA-3
C102 0.364 0.485 0.103 !       7.39 eA-3
C103 0.654 0.924 0.010 !       6.38 eA-3
C104 0.618 0.319 0.017 !       5.89 eA-3
C105 0.250 0.750 0.250 !       5.00 eA-3
C106 0.409 0.546 0.173 !       4.50 eA-3
C107 0.101 0.298 0.164 !       4.43 eA-3
C108 0.385 0.411 0.210 !       4.28 eA-3
C109 0.773 0.274 0.226 !       4.07 eA-3
C110 0.714 0.426 0.105 !       3.85 eA-3
C111 0.291 0.193 0.118 !       3.63 eA-3
C112 0.040 0.040 0.040 !       3.10 eA-3
Q113 0.286 0.881 0.054 !       1.71 eA-3
C114 0.515 0.984 0.016 !       1.53 eA-3
C115 0.995 0.015-0.005 !       1.43 eA-3
C116 0.111 0.009 0.020 !       1.30 eA-3
C117 0.712 0.953 0.101 !       1.29 eA-3
C118 0.258 0.111 0.073 !       0.92 eA-3
C119 0.895 0.432 0.148 !       0.88 eA-3
Q120 0.813 0.726 0.078 !       0.87 eA-3
C121 0.890 0.391 0.109 !       0.86 eA-3
C122 0.128 0.005 0.122 !       0.81 eA-3
C123 0.559 0.801 0.101 !       0.80 eA-3
C124 0.552 1.000 0.023 !       0.79 eA-3
Q125 0.500 0.253 0.227 !       0.78 eA-3
C126 0.065 0.192 0.063 !       0.77 eA-3
C127 0.435 0.308 0.437 !       0.77 eA-3
C128 0.935 0.808 0.937 !       0.77 eA-3
Q129 0.382 0.159 0.200 !       0.76 eA-3
C130 0.117 0.692 0.044 !       0.76 eA-3
C131 0.410 0.726 0.071 !       0.74 eA-3
Q132 0.186 0.121 0.029 !       0.73 eA-3
C133 0.114 0.314 0.125 !       0.73 eA-3
Q134 0.110 0.536 0.094 !       0.72 eA-3
C135 0.854 0.474 0.029 !       0.71 eA-3
Q136 0.891 0.954 0.126 !       0.70 eA-3
C137 0.078 0.321 0.162 !       0.68 eA-3
C138 0.662 0.995 0.143 !       0.68 eA-3
C139 0.120 0.976 0.134 !       0.66 eA-3
C140 0.510 0.844 0.134 !       0.66 eA-3
C141 0.368 0.201 0.024 !       0.66 eA-3
C142 0.078 0.087 0.124 !       0.63 eA-3
Q143 0.375 0.500 0.250 !       0.63 eA-3
C144 0.595 0.906 0.154 !       0.61 eA-3
C145 0.352 0.615 0.044 !       0.60 eA-3
Q146 0.595 0.811 0.187 !       0.60 eA-3
C147 0.835 0.633 0.207 !       0.59 eA-3
Q148 0.234 0.445 0.021 !       0.59 eA-3
C149 0.034 0.111 0.038 !       0.59 eA-3
Q150 0.780 0.025 0.209 !       0.58 eA-3
C151 0.779 0.243 0.230 !       0.57 eA-3
Q152 0.335 0.916 0.034 !       0.56 eA-3
Q153 0.687 0.592 0.049 !       0.56 eA-3
C154 0.572 0.931 0.069 !       0.55 eA-3
Q155 0.764 0.933 0.203 !       0.55 eA-3
C156 0.004 0.353 0.045 !       0.55 eA-3
Q157 0.320 0.076 0.100 !       0.55 eA-3
Q158 0.719 0.381 0.126 !       0.55 eA-3
Q159 0.274 0.584 0.204 !       0.55 eA-3
C160 0.368 0.608 0.092 !       0.54 eA-3
C161 0.301 0.743 0.226 !       0.54 eA-3
Q162 0.093 0.651 0.226 !       0.54 eA-3
C163 0.312 0.471 0.089 !       0.53 eA-3
Q164 0.797 0.149 0.129 !       0.53 eA-3
C165 0.084 0.159 0.068 !       0.52 eA-3
C166 0.218 0.584 0.125 !       0.52 eA-3
C167 0.608 0.980 0.062 !       0.51 eA-3
Q168 0.085 0.118 0.241 !       0.51 eA-3
Q169 0.086 0.554 0.147 !       0.51 eA-3
C170 0.365 0.501 0.056 !       0.51 eA-3
C171 0.435 0.437 0.215 !       0.50 eA-3
Q172 0.213 0.873 0.043 !       0.50 eA-3
)
;
_shelx_fab_checksum              5161
_platon_squeeze_void_probe_radius 1.20
_olex2_submission_special_instructions 'No special instructions were received'
loop_
_space_group_symop_operation_xyz
'x, y, z'
'-x, -y+1/2, z'
'x, -y, -z+1/2'
'-x, y+1/2, -z+1/2'
'z, x, y'
'-z, -x+1/2, y'
'z, -x, -y+1/2'
'-z, x+1/2, -y+1/2'
'y, z, x'
'y, -z, -x+1/2'
'-y, z+1/2, -x+1/2'
'-y, -z+1/2, x'
'x+1/2, y+1/2, z+1/2'
'-x+1/2, -y+1, z+1/2'
'x+1/2, -y+1/2, -z+1'
'-x+1/2, y+1, -z+1'
'z+1/2, x+1/2, y+1/2'
'-z+1/2, -x+1, y+1/2'
'z+1/2, -x+1/2, -y+1'
'-z+1/2, x+1, -y+1'
'y+1/2, z+1/2, x+1/2'
'y+1/2, -z+1/2, -x+1'
'-y+1/2, z+1, -x+1'
'-y+1/2, -z+1, x+1/2'
'-x, -y, -z'
'x, y-1/2, -z'
'-x, y, z-1/2'
'x, -y-1/2, z-1/2'
'-z, -x, -y'
'z, x-1/2, -y'
'-z, x, y-1/2'
'z, -x-1/2, y-1/2'
'-y, -z, -x'
'-y, z, x-1/2'
'y, -z-1/2, x-1/2'
'y, z-1/2, -x'
'-x+1/2, -y+1/2, -z+1/2'
'x+1/2, y, -z+1/2'
'-x+1/2, y+1/2, z'
'x+1/2, -y, z'
'-z+1/2, -x+1/2, -y+1/2'
'z+1/2, x, -y+1/2'
'-z+1/2, x+1/2, y'
'z+1/2, -x, y'
'-y+1/2, -z+1/2, -x+1/2'
'-y+1/2, z+1/2, x'
'y+1/2, -z, x'
'y+1/2, z, -x+1/2'
loop_
_atom_site_label
_atom_site_type_symbol
_atom_site_fract_x
_atom_site_fract_y
_atom_site_fract_z
_atom_site_U_iso_or_equiv
_atom_site_adp_type
_atom_site_occupancy
_atom_site_site_symmetry_order
_atom_site_calc_flag
_atom_site_refinement_flags_posn
_atom_site_refinement_flags_adp
_atom_site_refinement_flags_occupancy
_atom_site_disorder_assembly
_atom_site_disorder_group
Dy1 Dy 0.38244(2) 0.55082(2) 0.78458(2) 0.01246(3) Uani 1 1 d . . . . .
Ni1 Ni 0.27122(2) 0.500000 0.750000 0.01177(8) Uani 1 2 d S T P . .
O1 O 0.30873(4) 0.54725(4) 0.77640(4) 0.0126(3) Uani 1 1 d . . . . .
O2 O 0.18702(5) 0.53161(5) 0.77182(6) 0.0243(4) Uani 1 1 d . . . . .
H2 H 0.181909 0.515509 0.751834 0.036 Uiso 0.5 1 d R . . A -1
O3 O 0.38177(5) 0.58811(5) 0.71822(5) 0.0177(3) Uani 1 1 d . . . . .
O4 O 0.37296(5) 0.52071(5) 0.71165(5) 0.0155(3) Uani 1 1 d . . . . .
O5 O 0.42531(5) 0.54096(6) 0.84640(6) 0.0286(4) Uani 1 1 d . . . . .
O6 O 0.35834(6) 0.55114(5) 0.85614(5) 0.0261(4) Uani 1 1 d . . . . .
O7 O 0.44776(5) 0.53295(5) 0.76081(5) 0.0214(4) Uani 1 1 d . . . . .
N1 N 0.42561(6) 0.61732(6) 0.78915(6) 0.0160(4) Uani 1 1 d . . . . .
N2 N 0.46816(6) 0.69211(6) 0.77667(6) 0.0149(4) Uani 1 1 d . . . . .
N3 N 0.34323(6) 0.61699(6) 0.79519(6) 0.0142(4) Uani 1 1 d . . . . .
N4 N 0.30027(6) 0.61544(6) 0.80020(6) 0.0159(4) Uani 1 1 d . . . . .
N5 N 0.22821(6) 0.53961(6) 0.77340(6) 0.0152(4) Uani 1 1 d . . . . .
C1 C 0.46688(7) 0.61861(7) 0.78448(8) 0.0199(5) Uani 1 1 d . . . . .
H1 H 0.482190 0.593298 0.785133 0.024 Uiso 1 1 calc R . . . .
C2 C 0.48808(7) 0.65574(7) 0.77871(7) 0.0191(5) Uani 1 1 d . . . . .
H2A H 0.517563 0.655274 0.776141 0.023 Uiso 1 1 calc R . . . .
C3 C 0.42672(7) 0.69081(7) 0.78155(7) 0.0160(5) Uani 1 1 d . . . . .
H3 H 0.411462 0.716147 0.780404 0.019 Uiso 1 1 calc R . . . .
C4 C 0.40528(7) 0.65400(7) 0.78819(7) 0.0150(4) Uani 1 1 d . . . . .
C5 C 0.35969(7) 0.65364(7) 0.79447(7) 0.0157(4) Uani 1 1 d . . . . .
C6 C 0.33674(8) 0.69404(7) 0.79879(9) 0.0269(6) Uani 1 1 d . . . . .
H6A H 0.306859 0.688496 0.801691 0.040 Uiso 1 1 d R . . . .
H6B H 0.341549 0.711056 0.773911 0.040 Uiso 1 1 d R . . . .
H6C H 0.346749 0.708986 0.823451 0.040 Uiso 1 1 d R . . . .
C7 C 0.28616(7) 0.57851(7) 0.79019(7) 0.0132(4) Uani 1 1 d . . . . .
C8 C 0.24025(7) 0.57325(7) 0.79163(7) 0.0167(5) Uani 1 1 d . . . . .
C9 C 0.21195(8) 0.60440(8) 0.81117(10) 0.0324(7) Uani 1 1 d . . . . .
H9A H 0.190047 0.612216 0.791404 0.049 Uiso 1 1 d R . . . .
H9B H 0.227937 0.629206 0.819004 0.049 Uiso 1 1 d R . . . .
H9C H 0.199257 0.592186 0.836105 0.049 Uiso 1 1 d R . . . .
C10 C 0.38082(7) 0.55651(7) 0.69561(7) 0.0168(5) Uani 1 1 d . . . . .
C11 C 0.38945(8) 0.55944(7) 0.64996(7) 0.0231(5) Uani 1 1 d . . . . .
H11A H 0.385742 0.588305 0.640775 0.035 Uiso 1 1 d R . . . .
H11B H 0.370082 0.541355 0.634795 0.035 Uiso 1 1 d R . . . .
H11C H 0.418132 0.550575 0.644365 0.035 Uiso 1 1 d R . . . .
C12 C 0.39443(9) 0.54403(8) 0.87057(8) 0.0269(6) Uani 1 1 d . . . . .
C13 C 0.40008(11) 0.53866(10) 0.91701(9) 0.0423(8) Uani 1 1 d . . . . .
H13A H 0.429849 0.536540 0.923426 0.063 Uiso 1 1 d R . . . .
H13B H 0.385849 0.513270 0.926206 0.063 Uiso 1 1 d R . . . .
H13C H 0.388239 0.562780 0.931506 0.063 Uiso 1 1 d R . . . .
C14 C 0.46613(10) 0.500000 0.750000 0.0195(7) Uani 1 2 d S T P . .
C15 C 0.51324(11) 0.500000 0.750000 0.0400(11) Uani 1 2 d S T P . .
H15A H 0.523418 0.489100 0.776640 0.060 Uiso 0.5 1 d R . . . .
H15B H 0.523418 0.528520 0.746120 0.060 Uiso 0.5 1 d R . . . .
H15C H 0.523418 0.482380 0.727240 0.060 Uiso 0.5 1 d R . . . .
loop_
_atom_site_aniso_label
_atom_site_aniso_U_11
_atom_site_aniso_U_22
_atom_site_aniso_U_33
_atom_site_aniso_U_23
_atom_site_aniso_U_13
_atom_site_aniso_U_12
Dy1 0.01182(5) 0.01039(5) 0.01515(6) -0.00048(4) -0.00117(4) 0.00025(4)
Ni1 0.01087(18) 0.01137(19) 0.01306(19) 0.00086(15) 0.000 0.000
O1 0.0125(7) 0.0118(7) 0.0134(7) 0.0001(6) 0.0012(6) -0.0001(6)
O2 0.0097(8) 0.0231(9) 0.0401(11) -0.0078(8) 0.0026(7) -0.0025(7)
O3 0.0214(8) 0.0123(8) 0.0195(8) -0.0004(6) -0.0009(7) 0.0006(6)
O4 0.0162(8) 0.0134(8) 0.0170(8) 0.0010(6) -0.0003(6) -0.0002(6)
O5 0.0244(10) 0.0353(11) 0.0263(10) 0.0058(8) -0.0087(8) -0.0036(8)
O6 0.0326(10) 0.0277(10) 0.0178(9) -0.0007(7) -0.0003(8) 0.0083(8)
O7 0.0156(8) 0.0146(8) 0.0340(10) -0.0063(7) 0.0005(7) 0.0005(6)
N1 0.0170(10) 0.0129(9) 0.0183(10) -0.0029(7) -0.0017(8) -0.0009(7)
N2 0.0155(9) 0.0150(9) 0.0143(9) -0.0032(7) -0.0006(7) -0.0027(7)
N3 0.0138(9) 0.0147(9) 0.0141(9) -0.0011(7) 0.0010(7) -0.0013(7)
N4 0.0150(9) 0.0148(9) 0.0179(10) -0.0004(8) 0.0012(7) 0.0006(7)
N5 0.0107(9) 0.0161(10) 0.0189(10) 0.0028(8) 0.0006(7) -0.0002(7)
C1 0.0158(11) 0.0142(11) 0.0295(13) -0.0032(10) -0.0022(10) 0.0012(9)
C2 0.0171(12) 0.0146(11) 0.0254(13) -0.0048(9) -0.0010(9) -0.0001(9)
C3 0.0165(11) 0.0145(11) 0.0171(11) -0.0032(9) -0.0039(9) 0.0010(9)
C4 0.0170(11) 0.0146(11) 0.0135(11) -0.0036(8) -0.0039(9) 0.0008(9)
C5 0.0161(11) 0.0133(11) 0.0176(11) -0.0012(9) -0.0020(9) 0.0003(9)
C6 0.0167(12) 0.0154(12) 0.0487(17) -0.0051(11) -0.0010(11) -0.0002(9)
C7 0.0145(11) 0.0129(10) 0.0121(10) 0.0014(8) 0.0013(8) 0.0022(8)
C8 0.0148(11) 0.0155(11) 0.0199(12) -0.0004(9) 0.0021(9) 0.0017(9)
C9 0.0162(13) 0.0269(14) 0.0543(19) -0.0154(13) 0.0094(12) -0.0006(10)
C10 0.0118(11) 0.0173(11) 0.0214(12) 0.0020(9) -0.0013(9) 0.0020(9)
C11 0.0344(14) 0.0197(12) 0.0151(12) 0.0032(9) 0.0008(10) 0.0001(10)
C12 0.0401(16) 0.0210(13) 0.0195(13) -0.0013(10) -0.0085(11) -0.0023(11)
C13 0.060(2) 0.0456(19) 0.0217(15) 0.0040(13) -0.0124(14) 0.0010(16)
C14 0.0148(16) 0.0191(17) 0.0246(18) -0.0013(14) 0.000 0.000
C15 0.0163(19) 0.028(2) 0.075(3) -0.008(2) 0.000 0.000
loop_
_atom_type_symbol
_atom_type_description
_atom_type_scat_dispersion_real
_atom_type_scat_dispersion_imag
_atom_type_scat_source
C C 0.0033 0.0016 'International Tables Vol C Tables 4.2.6.8 and 6.1.1.4'
H H 0.0000 0.0000 'International Tables Vol C Tables 4.2.6.8 and 6.1.1.4'
Dy Dy -0.1892 4.4098 'International Tables Vol C Tables 4.2.6.8 and 6.1.1.4'
N N 0.0061 0.0033 'International Tables Vol C Tables 4.2.6.8 and 6.1.1.4'
Ni Ni 0.3393 1.1124 'International Tables Vol C Tables 4.2.6.8 and 6.1.1.4'
O O 0.0106 0.0060 'International Tables Vol C Tables 4.2.6.8 and 6.1.1.4'
loop_
_geom_angle_atom_site_label_1
_geom_angle_atom_site_label_2
_geom_angle_atom_site_label_3
_geom_angle
_geom_angle_site_symmetry_1
_geom_angle_site_symmetry_3
O1 Dy1 Dy1 84.16(3) . 3_566
O1 Dy1 O3 85.35(5) . .
O1 Dy1 O4 76.25(5) . .
O1 Dy1 O5 130.12(6) . .
O1 Dy1 O6 77.75(5) . .
O1 Dy1 N1 125.90(5) . .
O1 Dy1 N3 63.56(5) . .
O3 Dy1 Dy1 85.10(4) . 3_566
O3 Dy1 O4 52.02(5) . .
O3 Dy1 N1 69.19(6) . .
O3 Dy1 N3 72.38(5) . .
O4 Dy1 Dy1 33.95(3) . 3_566
O4 Dy1 Dy1 37.89(4) 3_566 3_566
O4 Dy1 O1 80.09(5) 3_566 .
O4 Dy1 O3 121.95(5) 3_566 .
O4 Dy1 O4 69.94(6) 3_566 .
O4 Dy1 O5 84.43(6) 3_566 .
O4 Dy1 O6 85.00(6) 3_566 .
O4 Dy1 N1 153.79(6) 3_566 .
O4 Dy1 N3 140.38(6) 3_566 .
O5 Dy1 Dy1 110.53(4) . 3_566
O5 Dy1 O3 141.16(6) . .
O5 Dy1 O4 139.97(6) . .
O5 Dy1 N1 75.80(6) . .
O5 Dy1 N3 106.55(6) . .
O6 Dy1 Dy1 122.45(4) . 3_566
O6 Dy1 O3 145.22(5) . .
O6 Dy1 O4 146.43(6) . .
O6 Dy1 O5 53.75(6) . .
O6 Dy1 N1 96.63(6) . .
O6 Dy1 N3 72.89(6) . .
O7 Dy1 Dy1 66.91(4) . 3_566
O7 Dy1 O1 148.77(5) . .
O7 Dy1 O3 80.86(6) . .
O7 Dy1 O4 73.16(5) . .
O7 Dy1 O4 83.69(5) . 3_566
O7 Dy1 O5 73.93(6) . .
O7 Dy1 O6 127.25(6) . .
O7 Dy1 N1 74.50(6) . .
O7 Dy1 N3 135.82(6) . .
N1 Dy1 Dy1 136.44(4) . 3_566
N1 Dy1 O4 115.79(5) . .
N3 Dy1 Dy1 141.40(4) . 3_566
N3 Dy1 O4 112.85(5) . .
N3 Dy1 N1 63.46(6) . .
O1 Ni1 O1 110.56(8) 3_566 .
O1 Ni1 N2 87.00(6) . 42_456
O1 Ni1 N2 87.00(6) 3_566 44_465
O1 Ni1 N2 87.64(6) . 44_465
O1 Ni1 N2 87.63(6) 3_566 42_456
N2 Ni1 N2 170.57(10) 42_456 44_465
N5 Ni1 O1 77.81(7) . .
N5 Ni1 O1 171.58(7) 3_566 .
N5 Ni1 O1 171.58(7) . 3_566
N5 Ni1 O1 77.81(6) 3_566 3_566
N5 Ni1 N2 94.50(7) 3_566 42_456
N5 Ni1 N2 94.50(7) . 44_465
N5 Ni1 N2 91.94(7) . 42_456
N5 Ni1 N2 91.94(7) 3_566 44_465
N5 Ni1 N5 93.85(11) 3_566 .
Ni1 O1 Dy1 130.10(7) . .
C7 O1 Dy1 118.25(13) . .
C7 O1 Ni1 111.64(13) . .
N5 O2 H2 109.7 . .
C10 O3 Dy1 96.26(13) . .
Dy1 O4 Dy1 108.16(6) 3_566 .
C10 O4 Dy1 151.77(14) . 3_566
C10 O4 Dy1 90.30(13) . .
C12 O5 Dy1 92.70(15) . .
C12 O6 Dy1 93.09(15) . .
C14 O7 Dy1 136.58(16) . .
C1 N1 Dy1 124.03(15) . .
C1 N1 C4 116.85(19) . .
C4 N1 Dy1 117.86(14) . .
C2 N2 Ni1 122.58(15) . 34_656
C2 N2 C3 116.32(19) . .
C3 N2 Ni1 120.89(15) . 34_656
N4 N3 Dy1 119.11(13) . .
C5 N3 Dy1 124.60(15) . .
C5 N3 N4 116.20(18) . .
C7 N4 N3 110.34(18) . .
O2 N5 Ni1 122.43(14) . .
C8 N5 Ni1 119.43(15) . .
C8 N5 O2 118.12(18) . .
N1 C1 H1 119.0 . .
N1 C1 C2 122.0(2) . .
C2 C1 H1 119.0 . .
N2 C2 C1 121.6(2) . .
N2 C2 H2A 119.2 . .
C1 C2 H2A 119.2 . .
N2 C3 H3 118.7 . .
N2 C3 C4 122.5(2) . .
C4 C3 H3 118.7 . .
N1 C4 C3 120.6(2) . .
N1 C4 C5 118.1(2) . .
C3 C4 C5 121.3(2) . .
N3 C5 C4 114.55(19) . .
N3 C5 C6 125.9(2) . .
C4 C5 C6 119.54(19) . .
C5 C6 H6A 109.5 . .
C5 C6 H6B 109.3 . .
C5 C6 H6C 109.7 . .
H6A C6 H6B 109.4 . .
H6A C6 H6C 109.5 . .
H6B C6 H6C 109.5 . .
O1 C7 C8 118.10(19) . .
N4 C7 O1 125.7(2) . .
N4 C7 C8 116.04(19) . .
N5 C8 C7 112.29(19) . .
N5 C8 C9 124.8(2) . .
C7 C8 C9 122.9(2) . .
C8 C9 H9A 109.7 . .
C8 C9 H9B 109.5 . .
C8 C9 H9C 109.2 . .
H9A C9 H9B 109.5 . .
H9A C9 H9C 109.5 . .
H9B C9 H9C 109.5 . .
O3 C10 O4 119.9(2) . .
O3 C10 C11 121.0(2) . .
O4 C10 C11 119.1(2) . .
C10 C11 H11A 109.4 . .
C10 C11 H11B 109.4 . .
C10 C11 H11C 109.6 . .
H11A C11 H11B 109.5 . .
H11A C11 H11C 109.5 . .
H11B C11 H11C 109.4 . .
O5 C12 O6 120.4(2) . .
O5 C12 C13 120.2(3) . .
O6 C12 C13 119.4(3) . .
C12 C13 H13A 109.4 . .
C12 C13 H13B 109.6 . .
C12 C13 H13C 109.4 . .
H13A C13 H13B 109.5 . .
H13A C13 H13C 109.5 . .
H13B C13 H13C 109.5 . .
O7 C14 O7 124.2(3) . 3_566
O7 C14 C15 117.91(15) 3_566 .
O7 C14 C15 117.91(15) . .
C14 C15 H15A 109.480(1) . 3_566
C14 C15 H15A 109.5 . .
C14 C15 H15B 109.5 . .
C14 C15 H15B 109.483(2) . 3_566
C14 C15 H15C 109.5 . .
C14 C15 H15C 109.481(1) . 3_566
H15A C15 H15A 141.0 . 3_566
H15A C15 H15B 109.5 3_566 3_566
H15A C15 H15B 109.5 . .
H15A C15 H15B 56.2 . 3_566
H15A C15 H15C 109.5 . .
H15A C15 H15C 109.5 3_566 3_566
H15A C15 H15C 56.3 . 3_566
H15B C15 H15A 56.2 . 3_566
H15B C15 H15B 141.0 . 3_566
H15B C15 H15C 109.5 . .
H15B C15 H15C 109.5 3_566 3_566
H15B C15 H15C 56.2 . 3_566
H15C C15 H15A 56.2 . 3_566
H15C C15 H15B 56.3 . 3_566
H15C C15 H15C 141.0 . 3_566
loop_
_geom_bond_atom_site_label_1
_geom_bond_atom_site_label_2
_geom_bond_distance
_geom_bond_site_symmetry_2
Dy1 Dy1 3.9465(2) 3_566
Dy1 O1 2.3833(15) .
Dy1 O3 2.4436(15) .
Dy1 O4 2.3193(15) 3_566
Dy1 O4 2.5509(15) .
Dy1 O5 2.4357(17) .
Dy1 O6 2.4241(17) .
Dy1 O7 2.3042(16) .
Dy1 N1 2.5493(18) .
Dy1 N3 2.4923(18) .
Ni1 O1 2.1138(15) 3_566
Ni1 O1 2.1138(15) .
Ni1 N2 2.1281(18) 44_465
Ni1 N2 2.1281(18) 42_456
Ni1 N5 2.0218(19) 3_566
Ni1 N5 2.0218(19) .
O1 C7 1.315(3) .
O2 H2 0.8401 .
O2 N5 1.348(2) .
O3 C10 1.248(3) .
O4 C10 1.285(3) .
O5 C12 1.263(3) .
O6 C12 1.268(3) .
O7 C14 1.260(2) .
N1 C1 1.334(3) .
N1 C4 1.347(3) .
N2 C2 1.333(3) .
N2 C3 1.340(3) .
N3 N4 1.389(2) .
N3 C5 1.290(3) .
N4 C7 1.309(3) .
N5 C8 1.288(3) .
C1 H1 0.9500 .
C1 C2 1.385(3) .
C2 H2A 0.9500 .
C3 H3 0.9500 .
C3 C4 1.384(3) .
C4 C5 1.478(3) .
C5 C6 1.498(3) .
C6 H6A 0.9800 .
C6 H6B 0.9799 .
C6 H6C 0.9799 .
C7 C8 1.484(3) .
C8 C9 1.490(3) .
C9 H9A 0.9798 .
C9 H9B 0.9803 .
C9 H9C 0.9798 .
C10 C11 1.494(3) .
C11 H11A 0.9798 .
C11 H11B 0.9801 .
C11 H11C 0.9802 .
C12 C13 1.511(4) .
C13 H13A 0.9800 .
C13 H13B 0.9799 .
C13 H13C 0.9801 .
C14 C15 1.512(5) .
C15 H15A 0.9802 3_566
C15 H15A 0.9801 .
C15 H15B 0.9800 3_566
C15 H15B 0.9800 .
C15 H15C 0.9801 3_566
C15 H15C 0.9801 .
loop_
_geom_hbond_atom_site_label_D
_geom_hbond_atom_site_label_H
_geom_hbond_atom_site_label_A
_geom_hbond_distance_DH
_geom_hbond_distance_HA
_geom_hbond_distance_DA
_geom_hbond_angle_DHA
_geom_hbond_site_symmetry_A
_geom_hbond_publ_flag
O2 H2 N5 0.84 2.45 3.014(2) 125.4 3_566 yes
C1 H1 O7 0.95 2.36 2.918(3) 116.9 . yes
C3 H3 O1 0.95 2.51 3.001(3) 111.9 34_656 yes
loop_
_geom_torsion_atom_site_label_1
_geom_torsion_atom_site_label_2
_geom_torsion_atom_site_label_3
_geom_torsion_atom_site_label_4
_geom_torsion
_geom_torsion_site_symmetry_1
_geom_torsion_site_symmetry_4
Dy1 O1 C7 N4 15.3(3) . .
Dy1 O1 C7 C8 -169.86(14) . .
Dy1 O3 C10 O4 12.6(2) . .
Dy1 O3 C10 C11 -166.30(19) . .
Dy1 O4 C10 O3 -12.0(2) . .
Dy1 O4 C10 O3 -144.0(2) 3_566 .
Dy1 O4 C10 C11 35.0(4) 3_566 .
Dy1 O4 C10 C11 166.93(19) . .
Dy1 O5 C12 O6 -1.7(2) . .
Dy1 O5 C12 C13 177.5(2) . .
Dy1 O6 C12 O5 1.7(2) . .
Dy1 O6 C12 C13 -177.5(2) . .
Dy1 O7 C14 O7 20.18(12) . 3_566
Dy1 O7 C14 C15 -159.83(12) . .
Dy1 N1 C1 C2 166.54(17) . .
Dy1 N1 C4 C3 -166.04(16) . .
Dy1 N1 C4 C5 14.0(3) . .
Dy1 N3 N4 C7 -12.5(2) . .
Dy1 N3 C5 C4 -2.1(3) . .
Dy1 N3 C5 C6 177.03(18) . .
Ni1 O1 C7 N4 -165.25(18) . .
Ni1 O1 C7 C8 9.6(2) . .
Ni1 N2 C2 C1 176.50(17) 34_656 .
Ni1 N2 C3 C4 -175.24(16) 34_656 .
Ni1 N5 C8 C7 3.3(3) . .
Ni1 N5 C8 C9 -178.2(2) . .
O1 C7 C8 N5 -8.9(3) . .
O1 C7 C8 C9 172.6(2) . .
O2 N5 C8 C7 -178.70(18) . .
O2 N5 C8 C9 -0.2(4) . .
N1 C1 C2 N2 -1.4(4) . .
N1 C4 C5 N3 -8.2(3) . .
N1 C4 C5 C6 172.6(2) . .
N2 C3 C4 N1 -1.4(3) . .
N2 C3 C4 C5 178.5(2) . .
N3 N4 C7 O1 -1.4(3) . .
N3 N4 C7 C8 -176.40(18) . .
N4 N3 C5 C4 -178.75(18) . .
N4 N3 C5 C6 0.4(3) . .
N4 C7 C8 N5 166.5(2) . .
N4 C7 C8 C9 -12.0(3) . .
C1 N1 C4 C3 1.6(3) . .
C1 N1 C4 C5 -178.3(2) . .
C2 N2 C3 C4 -0.3(3) . .
C3 N2 C2 C1 1.6(3) . .
C3 C4 C5 N3 171.9(2) . .
C3 C4 C5 C6 -7.3(3) . .
C4 N1 C1 C2 -0.3(3) . .
C5 N3 N4 C7 164.26(19) . .
loop_
_platon_squeeze_void_nr
_platon_squeeze_void_average_x
_platon_squeeze_void_average_y
_platon_squeeze_void_average_z
_platon_squeeze_void_volume
_platon_squeeze_void_count_electrons
_platon_squeeze_void_content
1 0.013 -0.015 0.000 12693 3050 ' '
2 0.250 0.250 0.250 88 8 ' '
3 0.750 0.250 0.250 88 8 ' '
4 0.750 0.250 0.750 88 8 ' '
5 0.250 0.250 0.750 88 8 ' '
6 0.250 0.750 0.250 88 8 ' '
7 0.750 0.750 0.250 88 8 ' '
8 0.750 0.750 0.750 88 8 ' '
9 0.250 0.750 0.750 88 8 ' '
