#------------------------------------------------------------------------------
#$Date: 2019-11-17 13:04:36 +0200 (Sun, 17 Nov 2019) $
#$Revision: 230036 $
#$URL: file:///home/coder/svn-repositories/cod/cif/7/04/75/7047518.cif $
#------------------------------------------------------------------------------
#
# This file is available in the Crystallography Open Database (COD),
# http://www.crystallography.net/
#
# All data on this site have been placed in the public domain by the
# contributors.
#
data_7047518
loop_
_publ_author_name
'Chao, Meng-Yao'
'Chen, Jing'
'Young, David J.'
'Zhang, Wen-Hua'
'Lang, Jian-Ping'
_publ_section_title
;
 Smoothing the single-crystal to single-crystal conversions of a
 two-dimensional metal-organic framework via the hetero-metal doping of
 the linear trimetallic secondary building unit.
;
_journal_issue                   38
_journal_name_full
'Dalton transactions (Cambridge, England : 2003)'
_journal_page_first              13722
_journal_page_last               13729
_journal_paper_doi               10.1039/c8dt02813c
_journal_volume                  47
_journal_year                    2018
_chemical_formula_moiety         'C37 H23 Cd1.13 Co0.38 N2 O6 S2 [+ solvent]'
_chemical_formula_sum            'C37 H23 Cd1.12 Co0.38 N2 O6 S2'
_chemical_formula_weight         804.24
_space_group_crystal_system      triclinic
_space_group_IT_number           2
_space_group_name_Hall           '-P 1'
_space_group_name_H-M_alt        'P -1'
_symmetry_space_group_name_Hall  '-P 1'
_symmetry_space_group_name_H-M   'P -1'
_atom_sites_solution_hydrogens   geom
_audit_creation_method           SHELXL-2016/6
_audit_update_record
;
2018-07-09 deposited with the CCDC.
2018-09-10 downloaded from the CCDC.
;
_cell_angle_alpha                116.369(5)
_cell_angle_beta                 105.982(5)
_cell_angle_gamma                98.879(5)
_cell_formula_units_Z            2
_cell_length_a                   13.029(3)
_cell_length_b                   16.264(3)
_cell_length_c                   16.856(4)
_cell_measurement_reflns_used    9867
_cell_measurement_temperature    248(2)
_cell_measurement_theta_max      28.46
_cell_measurement_theta_min      2.32
_cell_volume                     2913.5(11)
_computing_cell_refinement       'Bruker D8 Quest'
_computing_data_collection       'Bruker D8 Quest'
_computing_data_reduction        'Bruker D8 Quest'
_computing_molecular_graphics    'SHELXL-2013 (Sheldrick, 2013)'
_computing_publication_material  'publCIF (Westrip, 2010)'
_computing_structure_refinement  'SHELXL-2016/6 (Sheldrick, 2016)'
_computing_structure_solution    'SHELXT 2014/5 (Sheldrick, 2014)'
_diffrn_ambient_temperature      248(2)
_diffrn_measured_fraction_theta_full 0.998
_diffrn_measured_fraction_theta_max 0.998
_diffrn_measurement_device_type  'Bruker D8 Quest'
_diffrn_measurement_method       'phi and omega scans'
_diffrn_radiation_type           MoK\a
_diffrn_radiation_wavelength     0.71073
_diffrn_reflns_av_R_equivalents  0.0956
_diffrn_reflns_av_unetI/netI     0.0763
_diffrn_reflns_Laue_measured_fraction_full 0.998
_diffrn_reflns_Laue_measured_fraction_max 0.998
_diffrn_reflns_limit_h_max       15
_diffrn_reflns_limit_h_min       -15
_diffrn_reflns_limit_k_max       19
_diffrn_reflns_limit_k_min       -19
_diffrn_reflns_limit_l_max       20
_diffrn_reflns_limit_l_min       -20
_diffrn_reflns_number            82345
_diffrn_reflns_point_group_measured_fraction_full 0.998
_diffrn_reflns_point_group_measured_fraction_max 0.998
_diffrn_reflns_theta_full        25.242
_diffrn_reflns_theta_max         25.682
_diffrn_reflns_theta_min         2.319
_diffrn_standards_decay_%        0
_diffrn_standards_interval_count 0
_diffrn_standards_interval_time  0
_diffrn_standards_number         0
_exptl_absorpt_coefficient_mu    0.623
_exptl_absorpt_correction_T_max  0.896
_exptl_absorpt_correction_T_min  0.858
_exptl_absorpt_correction_type   multi-scan
_exptl_absorpt_process_details
;
 Sheldrick, G.M. SADABS (Program for Scaling and Correction of Area Detector
 Data), version 2008/1; University of G\"ottingen: G\"ottingen, Germany, 2008.
;
_exptl_crystal_colour            purple
_exptl_crystal_density_diffrn    0.917
_exptl_crystal_description       BLOCK
_exptl_crystal_F_000             806
_exptl_crystal_size_max          0.250
_exptl_crystal_size_mid          0.250
_exptl_crystal_size_min          0.180
_refine_diff_density_max         2.645
_refine_diff_density_min         -1.428
_refine_diff_density_rms         0.142
_refine_ls_extinction_method     none
_refine_ls_goodness_of_fit_ref   1.061
_refine_ls_hydrogen_treatment    constr
_refine_ls_matrix_type           full
_refine_ls_number_parameters     439
_refine_ls_number_reflns         11044
_refine_ls_number_restraints     0
_refine_ls_restrained_S_all      1.061
_refine_ls_R_factor_all          0.1497
_refine_ls_R_factor_gt           0.0983
_refine_ls_shift/su_max          0.000
_refine_ls_shift/su_mean         0.000
_refine_ls_structure_factor_coef Fsqd
_refine_ls_weighting_details
'w=1/[\s^2^(Fo^2^)+(0.0800P)^2^+30.2676P] where P=(Fo^2^+2Fc^2^)/3'
_refine_ls_weighting_scheme      calc
_refine_ls_wR_factor_gt          0.2181
_refine_ls_wR_factor_ref         0.2578
_reflns_Friedel_coverage         0.000
_reflns_number_gt                6816
_reflns_number_total             11044
_reflns_threshold_expression     'I > 2\s(I)'
_cod_data_source_file            c8dt02813c2.cif
_cod_data_source_block           3
_cod_depositor_comments
'Adding full bibliography for 7047515--7047518.cif.'
_cod_original_cell_volume        2913.4(10)
_cod_database_code               7047518
_publcif_datablock.id            {4a805750-8b7d-4908-a29b-8136dc5ed1fe}
_shelx_shelxl_version_number     2016/6
_shelx_space_group_comment
;
The symmetry employed for this shelxl refinement is uniquely defined
by the following loop, which should always be used as a source of
symmetry information in preference to the above space-group names.
They are only intended as comments.
;
_shelx_estimated_absorpt_t_min   0.860
_shelx_estimated_absorpt_t_max   0.896
_shelx_res_file
;
TITL B170407A_0m_a.res in P-1
    CD2CO1.res
    created by SHELXL-2016/6 at 13:32:01 on 09-Jul-2018
REM Old TITL B170407A_0m in P-1

REM SHELXT solution in P-1
REM R1 0.307,  Rweak 0.059,  Alpha 0.165,  Orientation as input
REM Formula found by SHELXT:  C74 N20 O18 S4 Co3

CELL  0.71073  13.0285  16.2640  16.8560  116.369  105.982   98.879
ZERR    2.000   0.0027   0.0033   0.0035    0.005    0.005    0.005
LATT  1
SFAC C H N O S CO CD
UNIT 74 46 4 12 4 0.75 2.25

TEMP -25.000
SIZE 0.18 0.25 0.25
L.S. 30
BOND $H
ACTA
FMAP 2
PLAN 20
EXYZ CD1 CO1
EADP CD1 CO1
EXYZ CD2 CO2
EADP CD2 CO2
OMIT     1   2   1
OMIT    -2  -3   2
OMIT    -1  -2   6
OMIT    -1  -1   4
OMIT     3  -3   1
OMIT     2  -5   1
OMIT    -3   2   5
OMIT    -2   1   5
OMIT    -4   0   4
OMIT    -2  -4   1
OMIT    -4   1   4
OMIT     0   2   0
OMIT    -3   0   7
OMIT     0  -2   7
OMIT    -2   0   1
ABIN
WGHT    0.080000   30.267605
FVAR       0.08863
PART 1
CD1   7    0.214178   -0.091837    0.285097    10.75000    0.05870    0.03388 =
         0.03228    0.01793    0.02378    0.02064
PART 2
CO1   6    0.214178   -0.091837    0.285097    10.25000    0.05870    0.03388 =
         0.03228    0.01793    0.02378    0.02064
PART 0
PART 1
CD2   7    0.500000    0.000000    0.500000    10.37500    0.04998    0.02911 =
         0.03977    0.02098    0.02355    0.02142
PART 2
CO2   6    0.500000    0.000000    0.500000    10.12500    0.04998    0.02911 =
         0.03977    0.02098    0.02355    0.02142
PART 0
S1    5    0.641942   -0.008438    0.138988    11.00000    0.08007    0.11496 =
         0.06622    0.06365    0.04999    0.05094
S2    5    0.669427   -0.134980    0.067685    11.00000    0.07176    0.12172 =
         0.04714    0.02940    0.03220    0.04026
O1    4    0.261779    0.063852    0.375849    11.00000    0.08570    0.04012 =
         0.04220    0.01731    0.02740    0.04059
O2    4    0.411450    0.102635    0.502520    11.00000    0.06152    0.04196 =
         0.04066    0.02516    0.02428    0.02839
O3    4    0.286342    0.904193    1.180432    11.00000    0.08193    0.05470 =
         0.03944    0.00903    0.03455    0.00534
O4    4    0.189399    0.763337    1.143743    11.00000    0.08718    0.05949 =
         0.05652    0.03530    0.04623    0.03218
O5    4    0.161107    0.849801    0.373641    11.00000    0.04383    0.08816 =
         0.06859    0.06064    0.02741    0.02533
O6    4    0.338502    0.877500    0.393798    11.00000    0.05393    0.03557 =
         0.04790    0.02583    0.03157    0.01484
N1    3    0.538137   -0.012783    0.373118    11.00000    0.06372    0.02123 =
         0.04451    0.01993    0.03331    0.02153
N2    3    1.034369   -0.101592    0.214038    11.00000    0.06510    0.05010 =
         0.04476    0.02027    0.02195    0.01994
C1    1    0.336030    0.122036    0.457293    11.00000    0.04743    0.04023 =
         0.03062    0.02361    0.02565    0.01920
C2    1    0.335049    0.223680    0.504534    11.00000    0.05486    0.02708 =
         0.03021    0.01628    0.02536    0.01578
C3    1    0.267541    0.254479    0.452503    11.00000    0.07515    0.04298 =
         0.02543    0.01521    0.01288    0.02437
AFIX  43
H3    2    0.221159    0.210570    0.387461    11.00000   -1.20000
AFIX   0
C4    1    0.267160    0.348278    0.494359    11.00000    0.10349    0.04538 =
         0.04788    0.03300    0.03084    0.04453
AFIX  43
H4    2    0.222851    0.368317    0.456646    11.00000   -1.20000
AFIX   0
C5    1    0.330518    0.414443    0.591003    11.00000    0.08367    0.03069 =
         0.04088    0.02521    0.03385    0.02590
C6    1    0.397689    0.383245    0.642110    11.00000    0.07062    0.03101 =
         0.03689    0.01354    0.02517    0.02357
AFIX  43
H6    2    0.442879    0.426354    0.707583    11.00000   -1.20000
AFIX   0
C7    1    0.399764    0.289530    0.598699    11.00000    0.05562    0.04250 =
         0.04376    0.02735    0.02178    0.02264
AFIX  43
H7    2    0.447459    0.270348    0.635290    11.00000   -1.20000
AFIX   0
C8    1    0.247087    0.813675    1.123631    11.00000    0.07416    0.04032 =
         0.03757    0.01254    0.02881    0.02408
C9    1    0.269288    0.771500    1.036042    11.00000    0.05435    0.04204 =
         0.03533    0.01449    0.01890    0.01418
C10   1    0.219479    0.672508    0.968879    11.00000    0.09774    0.05388 =
         0.06724    0.03691    0.05321    0.03286
AFIX  43
H10   2    0.174620    0.632201    0.981184    11.00000   -1.20000
AFIX   0
C11   1    0.236810    0.634263    0.883928    11.00000    0.11020    0.03113 =
         0.04645    0.01768    0.05177    0.02496
AFIX  43
H11   2    0.203936    0.567534    0.838814    11.00000   -1.20000
AFIX   0
C12   1    0.300324    0.691561    0.865016    11.00000    0.08155    0.04252 =
         0.04346    0.02741    0.04252    0.03734
C13   1    0.348476    0.787327    0.929582    11.00000    0.09395    0.04370 =
         0.04954    0.02136    0.05117    0.02057
AFIX  43
H13   2    0.392694    0.827174    0.916436    11.00000   -1.20000
AFIX   0
C14   1    0.332872    0.826649    1.014624    11.00000    0.06573    0.04108 =
         0.04656    0.01185    0.01990    0.00306
AFIX  43
H14   2    0.367109    0.893433    1.059077    11.00000   -1.20000
AFIX   0
C15   1    0.255893    0.845097    0.408770    11.00000    0.06115    0.02758 =
         0.03262    0.01602    0.02218    0.01298
C16   1    0.272309    0.798806    0.467407    11.00000    0.05139    0.02697 =
         0.03429    0.01733    0.02040    0.01073
C17   1    0.208399    0.802254    0.521780    11.00000    0.06281    0.04744 =
         0.05984    0.03891    0.03693    0.03002
AFIX  43
H17   2    0.155850    0.835944    0.522479    11.00000   -1.20000
AFIX   0
C18   1    0.220500    0.757342    0.574611    11.00000    0.06688    0.04227 =
         0.05081    0.03325    0.03597    0.01943
AFIX  43
H18   2    0.176690    0.760902    0.611269    11.00000   -1.20000
AFIX   0
C19   1    0.296582    0.707100    0.574092    11.00000    0.09949    0.02668 =
         0.03723    0.02149    0.03537    0.02743
C20   1    0.360305    0.703209    0.518764    11.00000    0.07281    0.03326 =
         0.04661    0.02446    0.03350    0.02651
AFIX  43
H20   2    0.411775    0.668425    0.516897    11.00000   -1.20000
AFIX   0
C21   1    0.349138    0.749030    0.467370    11.00000    0.05426    0.03415 =
         0.04385    0.02237    0.02987    0.01469
AFIX  43
H21   2    0.394013    0.746679    0.431750    11.00000   -1.20000
AFIX   0
C22   1    0.324709    0.513674    0.637111    11.00000    0.07447    0.03456 =
         0.04535    0.02756    0.03220    0.02542
C23   1    0.321260    0.557326    0.726999    11.00000    0.08468    0.03614 =
         0.04403    0.03277    0.03602    0.02892
AFIX  43
H23   2    0.325779    0.523950    0.760604    11.00000   -1.20000
AFIX   0
C24   1    0.311503    0.647329    0.768493    11.00000    0.07647    0.02875 =
         0.04033    0.01757    0.03747    0.01919
C25   1    0.304224    0.697149    0.718642    11.00000    0.07523    0.03085 =
         0.04644    0.02442    0.03868    0.02872
AFIX  43
H25   2    0.297398    0.759435    0.746955    11.00000   -1.20000
AFIX   0
C26   1    0.306994    0.655469    0.628022    11.00000    0.06835    0.03943 =
         0.05301    0.03516    0.03277    0.02444
C27   1    0.319753    0.564955    0.590515    11.00000    0.07760    0.02652 =
         0.03854    0.01539    0.03463    0.01833
AFIX  43
H27   2    0.325319    0.537045    0.530276    11.00000   -1.20000
AFIX   0
C28   1    0.586296   -0.073098    0.332232    11.00000    0.11118    0.04567 =
         0.04648    0.02466    0.04415    0.04595
AFIX  43
H28   2    0.597656   -0.118135    0.351566    11.00000   -1.20000
AFIX   0
C29   1    0.623153   -0.075561    0.259844    11.00000    0.10023    0.07246 =
         0.06448    0.03820    0.05903    0.05826
AFIX  43
H29   2    0.663455   -0.117246    0.235680    11.00000   -1.20000
AFIX   0
C30   1    0.598912   -0.016810    0.226879    11.00000    0.05279    0.05821 =
         0.04692    0.03077    0.02769    0.01313
C31   1    0.543307    0.044245    0.265839    11.00000    0.05290    0.05584 =
         0.03840    0.02819    0.02400    0.02018
AFIX  43
H31   2    0.526485    0.086892    0.244502    11.00000   -1.20000
AFIX   0
C32   1    0.512280    0.042872    0.336134    11.00000    0.04754    0.04256 =
         0.04718    0.02210    0.01970    0.01515
AFIX  43
H32   2    0.470479    0.083079    0.360076    11.00000   -1.20000
AFIX   0
C33   1    0.812491   -0.116531    0.128539    11.00000    0.07495    0.07414 =
         0.04527    0.02597    0.04418    0.02769
C34   1    0.880810   -0.038292    0.209544    11.00000    0.05772    0.08600 =
         0.09067    0.04503    0.03445    0.04912
AFIX  43
H34   2    0.855566    0.014690    0.237287    11.00000   -1.20000
AFIX   0
C35   1    0.989783   -0.033005    0.254584    11.00000    0.08265    0.06379 =
         0.04500    0.00779   -0.01458    0.02826
AFIX  43
H35   2    1.034293    0.020855    0.316075    11.00000   -1.20000
AFIX   0
C36   1    0.960707   -0.180796    0.128079    11.00000    0.08332    0.02457 =
         0.22151    0.01655    0.11067    0.00393
AFIX  43
H36   2    0.987628   -0.229999    0.093910    11.00000   -1.20000
AFIX   0
C37   1    0.851569   -0.190380    0.091162    11.00000    0.07350    0.08820 =
         0.03929    0.00764    0.01820    0.01561
AFIX  43
H37   2    0.801368   -0.250152    0.037934    11.00000   -1.20000

AFIX   0
HKLF 4

REM  B170407A_0m_a.res in P-1
REM R1 =  0.0983 for    6816 Fo > 4sig(Fo)  and  0.1497 for all   11044 data
REM    439 parameters refined using      0 restraints

END

WGHT      0.0827     29.3067

REM Highest difference peak  2.645,  deepest hole -1.428,  1-sigma level  0.142
Q1    1   0.3006 -0.0659  0.3142  11.00000  0.05    2.65
Q2    1   0.1269 -0.1189  0.2514  11.00000  0.05    2.50
Q3    1   0.4136 -0.0246  0.4762  11.00000  0.05    2.11
Q4    1   0.9352 -0.1842  0.0638  11.00000  0.05    1.49
Q5    1   0.2356 -0.0534  0.3480  11.00000  0.05    1.23
Q6    1   0.2060 -0.1275  0.2271  11.00000  0.05    1.18
Q7    1   0.2134 -0.0668  0.2510  11.00000  0.05    1.15
Q8    1   0.2269 -0.1083  0.3298  11.00000  0.05    1.13
Q9    1   0.4851  0.0214  0.4513  11.00000  0.05    1.08
Q10   1   0.9990 -0.1495  0.1462  11.00000  0.05    0.98
Q11   1   0.4826 -0.0503  0.4317  11.00000  0.05    0.96
Q12   1   0.2584  0.0691  0.4459  11.00000  0.05    0.91
Q13   1   0.4545 -0.0772  0.4468  11.00000  0.05    0.81
Q14   1   0.3059  0.8040  0.2880  11.00000  0.05    0.77
Q15   1   0.7258  0.0208  0.1695  11.00000  0.05    0.76
Q16   1   0.1873  0.0280  0.3471  11.00000  0.05    0.74
Q17   1   0.2360  0.7896  1.2205  11.00000  0.05    0.74
Q18   1   0.5552  0.0611  0.4188  11.00000  0.05    0.73
Q19   1   0.6316  0.0023  0.1932  11.00000  0.05    0.72
Q20   1   0.1978  0.8603  0.4320  11.00000  0.05    0.72
;
_shelx_res_checksum              92422
_shelx_fab_file
;
    2    0    0     95.84      0.00
    3    0    0     48.02      0.00
    4    0    0    -27.90      0.00
    5    0    0      4.49      0.00
    6    0    0      0.68      0.00
    7    0    0    -12.37      0.00
    8    0    0      3.32      0.00
    9    0    0     -0.04      0.00
   10    0    0      8.20      0.00
   11    0    0      4.60      0.00
   12    0    0     -0.15      0.00
   13    0    0      0.26      0.00
   14    0    0      0.33      0.00
  -14    1    0      1.80      0.00
  -13    1    0      2.57      0.00
  -12    1    0      2.84      0.00
  -11    1    0     -0.28      0.00
  -10    1    0     -8.19      0.00
   -9    1    0     -8.18      0.00
   -8    1    0    -12.66      0.00
   -7    1    0    -10.76      0.00
   -6    1    0     14.36      0.00
   -5    1    0    -21.81      0.00
   -4    1    0     -1.69      0.00
   -3    1    0     42.35      0.00
   -2    1    0    -21.15      0.00
    1    1    0    -93.33      0.00
    2    1    0    -25.87      0.00
    3    1    0    -77.81      0.00
    4    1    0    -17.25      0.00
    5    1    0      6.52      0.00
    6    1    0    -17.45      0.00
    7    1    0      8.19      0.00
    8    1    0      3.82      0.00
    9    1    0      5.17      0.00
   10    1    0      0.36      0.00
   11    1    0     -0.54      0.00
   12    1    0      1.37      0.00
   13    1    0     -0.86      0.00
   14    1    0      2.97      0.00
  -14    2    0      1.45      0.00
  -13    2    0     -6.10      0.00
  -12    2    0      1.06      0.00
  -11    2    0     -3.83      0.00
  -10    2    0     -3.64      0.00
   -9    2    0      1.23      0.00
   -8    2    0      2.37      0.00
   -7    2    0     23.46      0.00
   -6    2    0    -13.71      0.00
   -5    2    0    -15.09      0.00
   -4    2    0      9.63      0.00
   -3    2    0    -53.35      0.00
   -2    2    0     13.87      0.00
   -1    2    0      7.39      0.00
    0    2    0     18.36      0.00
    1    2    0     33.46      0.00
    2    2    0      2.51      0.00
    3    2    0     19.27      0.00
    4    2    0     12.37      0.00
    5    2    0     -4.94      0.00
    6    2    0     15.58      0.00
    7    2    0      3.73      0.00
    8    2    0     -2.46      0.00
    9    2    0     -0.65      0.00
   10    2    0     -5.06      0.00
   11    2    0      2.01      0.00
   12    2    0      1.25      0.00
   13    2    0     -1.16      0.00
  -15    3    0     -1.76      0.00
  -14    3    0     -3.76      0.00
  -13    3    0      5.87      0.00
  -12    3    0      3.66      0.00
  -11    3    0      2.71      0.00
  -10    3    0      5.02      0.00
   -9    3    0      4.76      0.00
   -8    3    0      8.55      0.00
   -7    3    0     -4.06      0.00
   -6    3    0     -1.97      0.00
   -5    3    0      3.65      0.00
   -4    3    0     -8.09      0.00
   -3    3    0     27.17      0.00
   -2    3    0    -12.90      0.00
   -1    3    0    -20.67      0.00
    0    3    0     22.34      0.00
    1    3    0     12.88      0.00
    2    3    0      0.31      0.00
    3    3    0    -30.30      0.00
    4    3    0     -5.46      0.00
    5    3    0     -3.79      0.00
    6    3    0    -10.68      0.00
    7    3    0     -7.45      0.00
    8    3    0     -4.02      0.00
    9    3    0     -4.96      0.00
   10    3    0      1.87      0.00
   11    3    0     -1.55      0.00
   12    3    0     -2.78      0.00
   13    3    0     -0.73      0.00
  -15    4    0     -1.53      0.00
  -14    4    0      1.28      0.00
  -13    4    0      1.13      0.00
  -12    4    0      1.11      0.00
  -11    4    0      3.42      0.00
  -10    4    0      0.27      0.00
   -9    4    0      0.81      0.00
   -8    4    0     -5.60      0.00
   -7    4    0      0.02      0.00
   -6    4    0     -6.37      0.00
   -5    4    0     10.04      0.00
   -4    4    0      9.39      0.00
   -3    4    0    -28.11      0.00
   -2    4    0     17.76      0.00
   -1    4    0     35.97      0.00
    0    4    0    -15.47      0.00
    1    4    0     -7.21      0.00
    2    4    0    -30.57      0.00
    3    4    0      2.97      0.00
    4    4    0      1.85      0.00
    5    4    0      2.55      0.00
    6    4    0      5.85      0.00
    7    4    0      3.68      0.00
    8    4    0      0.07      0.00
    9    4    0      2.71      0.00
   10    4    0      3.42      0.00
   11    4    0      5.95      0.00
   12    4    0      2.85      0.00
  -15    5    0      1.20      0.00
  -14    5    0      0.77      0.00
  -13    5    0      1.70      0.00
  -12    5    0      1.34      0.00
  -11    5    0     -3.97      0.00
  -10    5    0     -1.54      0.00
   -9    5    0     -6.75      0.00
   -8    5    0      0.53      0.00
   -7    5    0      1.38      0.00
   -6    5    0      7.56      0.00
   -5    5    0      8.57      0.00
   -4    5    0     -1.30      0.00
   -3    5    0     26.78      0.00
   -2    5    0      7.99      0.00
   -1    5    0    -11.95      0.00
    0    5    0     12.84      0.00
    1    5    0     -5.92      0.00
    2    5    0      1.22      0.00
    3    5    0     18.76      0.00
    4    5    0      4.52      0.00
    5    5    0      6.83      0.00
    6    5    0      6.19      0.00
    7    5    0     -1.86      0.00
    8    5    0     -2.12      0.00
    9    5    0      1.18      0.00
   10    5    0     -1.77      0.00
   11    5    0     -0.96      0.00
   12    5    0     -5.54      0.00
  -15    6    0     -0.90      0.00
  -14    6    0     -1.21      0.00
  -13    6    0     -1.27      0.00
  -12    6    0     -1.84      0.00
  -11    6    0      0.23      0.00
  -10    6    0      0.32      0.00
   -9    6    0      1.45      0.00
   -8    6    0      4.20      0.00
   -7    6    0     -7.28      0.00
   -6    6    0      3.06      0.00
   -5    6    0     -6.64      0.00
   -4    6    0     -5.54      0.00
   -3    6    0      0.36      0.00
   -2    6    0    -10.57      0.00
   -1    6    0     -9.80      0.00
    0    6    0     -4.82      0.00
    1    6    0     -2.73      0.00
    2    6    0     17.41      0.00
    3    6    0     -5.02      0.00
    4    6    0     -0.09      0.00
    5    6    0      3.62      0.00
    6    6    0      0.51      0.00
    7    6    0     -5.01      0.00
    8    6    0     -1.06      0.00
    9    6    0     -2.76      0.00
   10    6    0      4.04      0.00
   11    6    0      3.69      0.00
  -15    7    0     -0.17      0.00
  -14    7    0     -0.55      0.00
  -13    7    0      0.99      0.00
  -12    7    0      0.60      0.00
  -11    7    0     -2.28      0.00
  -10    7    0     -0.87      0.00
   -9    7    0      1.37      0.00
   -8    7    0     -8.62      0.00
   -7    7    0      0.03      0.00
   -6    7    0     -6.70      0.00
   -5    7    0     -3.77      0.00
   -4    7    0     20.03      0.00
   -3    7    0      6.98      0.00
   -2    7    0      6.31      0.00
   -1    7    0     23.57      0.00
    0    7    0      2.33      0.00
    1    7    0     -0.79      0.00
    2    7    0     -6.01      0.00
    3    7    0     -6.37      0.00
    4    7    0      0.65      0.00
    5    7    0      0.23      0.00
    6    7    0     -3.81      0.00
    7    7    0     -0.86      0.00
    8    7    0      0.68      0.00
    9    7    0      2.32      0.00
   10    7    0      4.47      0.00
   11    7    0     -3.50      0.00
  -15    8    0     -2.42      0.00
  -14    8    0      0.15      0.00
  -13    8    0      0.27      0.00
  -12    8    0      0.52      0.00
  -11    8    0     -0.26      0.00
  -10    8    0      2.68      0.00
   -9    8    0     -4.41      0.00
   -8    8    0     -2.14      0.00
   -7    8    0     -1.23      0.00
   -6    8    0     -1.06      0.00
   -5    8    0      1.84      0.00
   -4    8    0     -0.56      0.00
   -3    8    0     -7.91      0.00
   -2    8    0     -5.09      0.00
   -1    8    0    -14.18      0.00
    0    8    0     -8.85      0.00
    1    8    0     11.19      0.00
    2    8    0      2.60      0.00
    3    8    0      6.61      0.00
    4    8    0      5.10      0.00
    5    8    0     -0.17      0.00
    6    8    0      1.58      0.00
    7    8    0      0.82      0.00
    8    8    0     -1.71      0.00
    9    8    0     -0.62      0.00
   10    8    0     -4.29      0.00
  -14    9    0      1.14      0.00
  -13    9    0     -1.94      0.00
  -12    9    0     -1.64      0.00
  -11    9    0      3.84      0.00
  -10    9    0     -2.14      0.00
   -9    9    0     -3.00      0.00
   -8    9    0     -2.31      0.00
   -7    9    0     -2.83      0.00
   -6    9    0     -2.93      0.00
   -5    9    0      2.66      0.00
   -4    9    0     -2.84      0.00
   -3    9    0      1.54      0.00
   -2    9    0     14.25      0.00
   -1    9    0      4.70      0.00
    0    9    0      7.87      0.00
    1    9    0     -5.81      0.00
    2    9    0     -2.29      0.00
    3    9    0     -1.90      0.00
    4    9    0     -3.46      0.00
    5    9    0     -2.86      0.00
    6    9    0     -4.05      0.00
    7    9    0     -3.78      0.00
    8    9    0     -1.76      0.00
    9    9    0     -5.67      0.00
  -14   10    0     -2.23      0.00
  -13   10    0      1.36      0.00
  -12   10    0     -0.33      0.00
  -11   10    0     -1.34      0.00
  -10   10    0     -1.80      0.00
   -9   10    0     -1.17      0.00
   -8   10    0      2.27      0.00
   -7   10    0     -2.78      0.00
   -6   10    0     -2.70      0.00
   -5   10    0     -0.44      0.00
   -4   10    0      6.43      0.00
   -3   10    0      8.24      0.00
   -2   10    0     -2.36      0.00
   -1   10    0      3.47      0.00
    0   10    0      2.23      0.00
    1   10    0      3.57      0.00
    2   10    0      3.73      0.00
    3   10    0      4.79      0.00
    4   10    0     -1.57      0.00
    5   10    0     -1.07      0.00
    6   10    0     -0.55      0.00
    7   10    0      0.11      0.00
    8   10    0     -1.10      0.00
    9   10    0      2.74      0.00
  -14   11    0     -0.12      0.00
  -13   11    0     -1.76      0.00
  -12   11    0      1.88      0.00
  -11   11    0      0.70      0.00
  -10   11    0      1.12      0.00
   -9   11    0      3.15      0.00
   -8   11    0     -6.04      0.00
   -7   11    0     -2.53      0.00
   -6   11    0     -0.27      0.00
   -5   11    0      3.26      0.00
   -4   11    0     -2.44      0.00
   -3   11    0      1.98      0.00
   -2   11    0      5.71      0.00
   -1   11    0     -0.13      0.00
    0   11    0      1.26      0.00
    1   11    0      1.01      0.00
    2   11    0     -0.86      0.00
    3   11    0     -3.34      0.00
    4   11    0     -2.01      0.00
    5   11    0      1.08      0.00
    6   11    0      1.50      0.00
    7   11    0      0.21      0.00
    8   11    0      3.28      0.00
  -13   12    0      0.26      0.00
  -12   12    0     -3.68      0.00
  -11   12    0     -2.99      0.00
  -10   12    0     -0.29      0.00
   -9   12    0     -2.43      0.00
   -8   12    0      1.56      0.00
   -7   12    0     -0.48      0.00
   -6   12    0      2.68      0.00
   -5   12    0     -0.24      0.00
   -4   12    0      5.07      0.00
   -3   12    0      0.74      0.00
   -2   12    0     -1.76      0.00
   -1   12    0      0.71      0.00
    0   12    0     -1.34      0.00
    1   12    0     -1.24      0.00
    2   12    0      3.97      0.00
    3   12    0      1.09      0.00
    4   12    0      1.94      0.00
    5   12    0     -1.63      0.00
    6   12    0     -6.04      0.00
    7   12    0      0.57      0.00
  -13   13    0     -1.71      0.00
  -12   13    0     -1.22      0.00
  -11   13    0      0.93      0.00
  -10   13    0      2.11      0.00
   -9   13    0      3.97      0.00
   -8   13    0     -0.21      0.00
   -7   13    0      0.44      0.00
   -6   13    0     -1.72      0.00
   -5   13    0     -2.55      0.00
   -4   13    0     -2.47      0.00
   -3   13    0     -2.19      0.00
   -2   13    0      1.23      0.00
   -1   13    0      1.05      0.00
    0   13    0      1.62      0.00
    1   13    0      3.94      0.00
    2   13    0      0.46      0.00
    3   13    0      2.88      0.00
    4   13    0     -1.42      0.00
    5   13    0     -1.24      0.00
    6   13    0      3.02      0.00
  -12   14    0     -0.71      0.00
  -11   14    0     -0.11      0.00
  -10   14    0      4.21      0.00
   -9   14    0     -2.55      0.00
   -8   14    0      1.37      0.00
   -7   14    0     -1.09      0.00
   -6   14    0      1.47      0.00
   -5   14    0      2.26      0.00
   -4   14    0      0.65      0.00
   -3   14    0      2.52      0.00
   -2   14    0     -3.25      0.00
   -1   14    0     -1.20      0.00
    0   14    0      0.04      0.00
    1   14    0     -4.29      0.00
    2   14    0      1.08      0.00
    3   14    0     -8.82      0.00
    4   14    0     -2.38      0.00
    5   14    0     -3.34      0.00
  -11   15    0      4.72      0.00
  -10   15    0     -0.38      0.00
   -9   15    0      2.00      0.00
   -8   15    0     -0.26      0.00
   -7   15    0     -0.46      0.00
   -6   15    0      0.05      0.00
   -5   15    0     -2.31      0.00
   -4   15    0     -2.62      0.00
   -3   15    0     -5.06      0.00
   -2   15    0     -2.95      0.00
   -1   15    0     -0.09      0.00
    0   15    0     -3.70      0.00
    1   15    0     11.08      0.00
    2   15    0     -0.42      0.00
    3   15    0      4.98      0.00
  -10   16    0     -2.93      0.00
   -9   16    0      0.62      0.00
   -8   16    0     -0.87      0.00
   -7   16    0      4.17      0.00
   -6   16    0     -3.34      0.00
   -5   16    0     -0.44      0.00
   -4   16    0     -0.82      0.00
   -3   16    0     -0.69      0.00
   -2   16    0      2.19      0.00
   -1   16    0     -2.92      0.00
    0   16    0      7.91      0.00
    1   16    0     -2.65      0.00
   -8   17    0     -1.37      0.00
   -7   17    0     -3.99      0.00
   -6   17    0      2.68      0.00
   -5   17    0     -0.01      0.00
   -4   17    0      1.35      0.00
   -3   17    0      1.33      0.00
   -2   17    0     -4.27      0.00
   -1   17    0     -2.63      0.00
    3  -18    1      3.51      0.00
    4  -18    1      2.52      0.00
    5  -18    1      0.84      0.00
    6  -18    1      0.50      0.00
    0  -17    1     -3.31      0.00
    1  -17    1     -2.86      0.00
    2  -17    1     -2.85      0.00
    3  -17    1     -1.70      0.00
    4  -17    1     -2.36      0.00
    5  -17    1      0.48      0.00
    6  -17    1      3.00      0.00
    7  -17    1      1.39      0.00
    8  -17    1      2.38      0.00
    9  -17    1      0.92      0.00
   -2  -16    1     -1.49      0.00
   -1  -16    1     -3.97      0.00
    0  -16    1     -2.93      0.00
    1  -16    1     -3.20      0.00
    2  -16    1      0.08      0.00
    3  -16    1      0.60      0.00
    4  -16    1      0.51      0.00
    5  -16    1     -1.79      0.00
    6  -16    1     -0.24      0.00
    7  -16    1      1.36      0.00
    8  -16    1     -3.15      0.00
    9  -16    1      0.70      0.00
   10  -16    1     -2.65      0.00
   11  -16    1      2.92      0.00
   -4  -15    1     -0.21      0.00
   -3  -15    1     -0.40      0.00
   -2  -15    1      1.27      0.00
   -1  -15    1      5.70      0.00
    0  -15    1      0.23      0.00
    1  -15    1      5.33      0.00
    2  -15    1      3.18      0.00
    3  -15    1      0.48      0.00
    4  -15    1      1.54      0.00
    5  -15    1      1.51      0.00
    6  -15    1      1.14      0.00
    7  -15    1     -1.56      0.00
    8  -15    1      3.18      0.00
    9  -15    1     -2.28      0.00
   10  -15    1     -0.39      0.00
   11  -15    1     -0.65      0.00
   12  -15    1     -2.18      0.00
   -5  -14    1      0.36      0.00
   -4  -14    1      0.00      0.00
   -3  -14    1     -2.55      0.00
   -2  -14    1     -0.68      0.00
   -1  -14    1     -5.31      0.00
    0  -14    1     -0.31      0.00
    1  -14    1      1.37      0.00
    2  -14    1      0.60      0.00
    3  -14    1      2.49      0.00
    4  -14    1      2.65      0.00
    5  -14    1      0.71      0.00
    6  -14    1      0.47      0.00
    7  -14    1      2.05      0.00
    8  -14    1     -0.25      0.00
    9  -14    1     -2.80      0.00
   10  -14    1      2.00      0.00
   11  -14    1     -1.91      0.00
   12  -14    1      3.92      0.00
   -6  -13    1      2.76      0.00
   -5  -13    1     -0.11      0.00
   -4  -13    1     -0.80      0.00
   -3  -13    1     -2.44      0.00
   -2  -13    1     -0.92      0.00
   -1  -13    1      2.17      0.00
    0  -13    1      2.29      0.00
    1  -13    1      3.09      0.00
    2  -13    1      2.01      0.00
    3  -13    1      1.22      0.00
    4  -13    1     -0.66      0.00
    5  -13    1     -0.40      0.00
    6  -13    1     -1.25      0.00
    7  -13    1     -1.64      0.00
    8  -13    1     -3.61      0.00
    9  -13    1      1.89      0.00
   10  -13    1     -0.24      0.00
   11  -13    1      2.75      0.00
   12  -13    1     -0.48      0.00
   13  -13    1     -0.46      0.00
   -7  -12    1      0.16      0.00
   -6  -12    1     -1.37      0.00
   -5  -12    1      0.81      0.00
   -4  -12    1      1.08      0.00
   -3  -12    1      1.80      0.00
   -2  -12    1      1.36      0.00
   -1  -12    1     -2.63      0.00
    0  -12    1      0.27      0.00
    1  -12    1     -0.79      0.00
    2  -12    1     -2.81      0.00
    3  -12    1      3.06      0.00
    4  -12    1     -0.55      0.00
    5  -12    1     -5.20      0.00
    6  -12    1     -0.29      0.00
    7  -12    1      0.56      0.00
    8  -12    1      1.77      0.00
    9  -12    1      1.46      0.00
   10  -12    1      1.80      0.00
   11  -12    1     -0.93      0.00
   12  -12    1     -1.04      0.00
   13  -12    1     -0.02      0.00
   -8  -11    1     -0.56      0.00
   -7  -11    1     -1.82      0.00
   -6  -11    1     -1.74      0.00
   -5  -11    1     -0.46      0.00
   -4  -11    1     -7.33      0.00
   -3  -11    1     -5.76      0.00
   -2  -11    1     -2.24      0.00
   -1  -11    1      0.15      0.00
    0  -11    1      4.70      0.00
    1  -11    1      1.08      0.00
    2  -11    1      3.03      0.00
    3  -11    1     -5.82      0.00
    4  -11    1     -4.40      0.00
    5  -11    1      4.80      0.00
    6  -11    1      3.19      0.00
    7  -11    1     -3.77      0.00
    8  -11    1     -3.03      0.00
    9  -11    1     -0.79      0.00
   10  -11    1     -2.77      0.00
   11  -11    1      0.00      0.00
   12  -11    1     -0.89      0.00
   13  -11    1     -0.31      0.00
   14  -11    1      0.51      0.00
   -9  -10    1     -0.11      0.00
   -8  -10    1     -4.19      0.00
   -7  -10    1      1.82      0.00
   -6  -10    1      2.31      0.00
   -5  -10    1     -0.64      0.00
   -4  -10    1      2.97      0.00
   -3  -10    1      7.32      0.00
   -2  -10    1      1.84      0.00
   -1  -10    1      4.10      0.00
    0  -10    1     -3.70      0.00
    1  -10    1     -8.05      0.00
    2  -10    1     -6.40      0.00
    3  -10    1     -0.01      0.00
    4  -10    1      2.10      0.00
    5  -10    1      4.61      0.00
    6  -10    1     -0.56      0.00
    7  -10    1      1.79      0.00
    8  -10    1      2.43      0.00
    9  -10    1      3.91      0.00
   10  -10    1      1.85      0.00
   11  -10    1      4.46      0.00
   12  -10    1      3.37      0.00
   13  -10    1     -0.04      0.00
   14  -10    1     -0.22      0.00
  -10   -9    1      3.87      0.00
   -9   -9    1     -1.23      0.00
   -8   -9    1      5.68      0.00
   -7   -9    1      3.16      0.00
   -6   -9    1      1.21      0.00
   -5   -9    1     -0.68      0.00
   -4   -9    1     -1.23      0.00
   -3   -9    1     -5.14      0.00
   -2   -9    1     -4.13      0.00
   -1   -9    1     -0.09      0.00
    0   -9    1      0.20      0.00
    1   -9    1     -2.41      0.00
    2   -9    1     -0.46      0.00
    3   -9    1     -4.66      0.00
    4   -9    1      3.09      0.00
    5   -9    1     -0.73      0.00
    6   -9    1     -2.31      0.00
    7   -9    1      1.42      0.00
    8   -9    1      3.75      0.00
    9   -9    1     -3.08      0.00
   10   -9    1      1.76      0.00
   11   -9    1     -0.91      0.00
   12   -9    1     -1.77      0.00
   13   -9    1      4.15      0.00
   14   -9    1     -0.40      0.00
  -11   -8    1      5.28      0.00
  -10   -8    1     -0.02      0.00
   -9   -8    1     -2.72      0.00
   -8   -8    1     -3.56      0.00
   -7   -8    1     -4.08      0.00
   -6   -8    1     -1.79      0.00
   -5   -8    1     -3.68      0.00
   -4   -8    1     -3.38      0.00
   -3   -8    1     -4.65      0.00
   -2   -8    1      1.05      0.00
   -1   -8    1     -2.48      0.00
    0   -8    1    -14.63      0.00
    1   -8    1     -5.25      0.00
    2   -8    1      2.85      0.00
    3   -8    1     -3.19      0.00
    4   -8    1      7.07      0.00
    5   -8    1      5.79      0.00
    6   -8    1      3.80      0.00
    7   -8    1      7.32      0.00
    8   -8    1     -1.15      0.00
    9   -8    1     -0.55      0.00
   10   -8    1      2.43      0.00
   11   -8    1     -0.37      0.00
   12   -8    1      2.83      0.00
   13   -8    1     -1.46      0.00
   14   -8    1     -0.23      0.00
  -11   -7    1     -0.97      0.00
  -10   -7    1     -0.28      0.00
   -9   -7    1     -1.88      0.00
   -8   -7    1      0.55      0.00
   -7   -7    1      1.71      0.00
   -6   -7    1      0.08      0.00
   -5   -7    1      3.87      0.00
   -4   -7    1      2.72      0.00
   -3   -7    1      4.76      0.00
   -2   -7    1     16.70      0.00
   -1   -7    1      8.43      0.00
    0   -7    1     11.50      0.00
    1   -7    1     13.70      0.00
    2   -7    1     -9.78      0.00
    3   -7    1      7.65      0.00
    4   -7    1      1.99      0.00
    5   -7    1    -10.56      0.00
    6   -7    1     10.42      0.00
    7   -7    1     -6.63      0.00
    8   -7    1     -7.09      0.00
    9   -7    1     -1.05      0.00
   10   -7    1     -4.37      0.00
   11   -7    1     -0.22      0.00
   12   -7    1      1.91      0.00
   13   -7    1      1.25      0.00
   14   -7    1     -1.40      0.00
   15   -7    1     -1.08      0.00
  -12   -6    1     -4.22      0.00
  -11   -6    1     -1.83      0.00
  -10   -6    1     -2.24      0.00
   -9   -6    1      2.34      0.00
   -8   -6    1      2.84      0.00
   -7   -6    1     -1.46      0.00
   -6   -6    1      1.11      0.00
   -5   -6    1     -2.86      0.00
   -4   -6    1    -13.50      0.00
   -3   -6    1      0.05      0.00
   -2   -6    1    -14.24      0.00
   -1   -6    1    -23.69      0.00
    0   -6    1      6.55      0.00
    1   -6    1    -10.03      0.00
    2   -6    1     -6.12      0.00
    3   -6    1     -0.18      0.00
    4   -6    1     -0.36      0.00
    5   -6    1     20.91      0.00
    6   -6    1     -4.23      0.00
    7   -6    1     -4.30      0.00
    8   -6    1      5.64      0.00
    9   -6    1     -0.03      0.00
   10   -6    1      4.28      0.00
   11   -6    1      2.44      0.00
   12   -6    1     -0.08      0.00
   13   -6    1     -2.32      0.00
   14   -6    1     -1.16      0.00
   15   -6    1      1.97      0.00
  -12   -5    1     -6.35      0.00
  -11   -5    1     -3.60      0.00
  -10   -5    1      2.01      0.00
   -9   -5    1      1.23      0.00
   -8   -5    1     -4.52      0.00
   -7   -5    1     -4.22      0.00
   -6   -5    1     -2.61      0.00
   -5   -5    1    -15.44      0.00
   -4   -5    1      4.50      0.00
   -3   -5    1      3.25      0.00
   -2   -5    1      7.95      0.00
   -1   -5    1     39.96      0.00
    0   -5    1      0.21      0.00
    1   -5    1    -17.44      0.00
    2   -5    1     21.46      0.00
    3   -5    1     -0.59      0.00
    4   -5    1      0.51      0.00
    5   -5    1     -3.44      0.00
    6   -5    1     -5.17      0.00
    7   -5    1      4.41      0.00
    8   -5    1      2.19      0.00
    9   -5    1      2.63      0.00
   10   -5    1      3.01      0.00
   11   -5    1      1.93      0.00
   12   -5    1      3.22      0.00
   13   -5    1      1.18      0.00
   14   -5    1      0.40      0.00
   15   -5    1      2.33      0.00
  -13   -4    1      0.85      0.00
  -12   -4    1     -2.16      0.00
  -11   -4    1     -0.41      0.00
  -10   -4    1     -3.95      0.00
   -9   -4    1     -2.46      0.00
   -8   -4    1     -3.16      0.00
   -7   -4    1      0.90      0.00
   -6   -4    1    -11.29      0.00
   -4   -4    1      9.87      0.00
   -3   -4    1     16.14      0.00
   -2   -4    1     -3.30      0.00
   -1   -4    1      1.13      0.00
    0   -4    1    -10.37      0.00
    1   -4    1     28.34      0.00
    2   -4    1    -53.81      0.00
    3   -4    1    -27.67      0.00
    4   -4    1      0.65      0.00
    5   -4    1      0.38      0.00
    6   -4    1     14.84      0.00
    7   -4    1     21.10      0.00
    8   -4    1      3.54      0.00
    9   -4    1     -4.02      0.00
   10   -4    1     -2.11      0.00
   11   -4    1      0.08      0.00
   12   -4    1     -2.67      0.00
   13   -4    1     -2.40      0.00
   14   -4    1     -0.74      0.00
  -13   -3    1     -3.91      0.00
  -12   -3    1     -5.05      0.00
  -11   -3    1      0.76      0.00
  -10   -3    1      3.93      0.00
   -9   -3    1      5.63      0.00
   -8   -3    1     11.16      0.00
   -7   -3    1     -1.98      0.00
   -6   -3    1     11.83      0.00
   -5   -3    1      6.06      0.00
   -4   -3    1      0.07      0.00
   -3   -3    1    -25.05      0.00
   -2   -3    1     -5.72      0.00
   -1   -3    1    -18.33      0.00
    0   -3    1    -22.96      0.00
    1   -3    1     -6.02      0.00
    2   -3    1     19.07      0.00
    3   -3    1      1.60      0.00
    4   -3    1      2.42      0.00
    5   -3    1     19.51      0.00
    6   -3    1     -3.63      0.00
    7   -3    1     -8.70      0.00
    8   -3    1    -13.79      0.00
    9   -3    1     -2.82      0.00
   10   -3    1     -4.80      0.00
   11   -3    1     -2.85      0.00
   12   -3    1      1.74      0.00
   13   -3    1      0.88      0.00
   14   -3    1     -1.16      0.00
  -14   -2    1     -4.80      0.00
  -13   -2    1     -7.12      0.00
  -12   -2    1      0.20      0.00
  -11   -2    1      0.56      0.00
  -10   -2    1     -0.49      0.00
   -9   -2    1     -3.07      0.00
   -8   -2    1    -17.22      0.00
   -7   -2    1     -7.46      0.00
   -6   -2    1    -20.29      0.00
   -5   -2    1    -15.17      0.00
   -4   -2    1      4.90      0.00
   -3   -2    1     -9.06      0.00
   -2   -2    1     71.19      0.00
   -1   -2    1     73.84      0.00
    0   -2    1     99.73      0.00
    1   -2    1    -25.42      0.00
    2   -2    1   -102.52      0.00
    4   -2    1    -10.53      0.00
    5   -2    1    -49.76      0.00
    6   -2    1    -13.73      0.00
    7   -2    1    -15.46      0.00
    8   -2    1     -2.84      0.00
    9   -2    1      0.92      0.00
   10   -2    1      1.12      0.00
   11   -2    1      3.80      0.00
   12   -2    1     -2.14      0.00
   13   -2    1     -2.39      0.00
   14   -2    1      5.57      0.00
  -14   -1    1     -0.06      0.00
  -13   -1    1      3.40      0.00
  -12   -1    1      4.11      0.00
  -11   -1    1     -2.54      0.00
  -10   -1    1     -2.78      0.00
   -9   -1    1     -3.09      0.00
   -8   -1    1      7.66      0.00
   -7   -1    1      8.08      0.00
   -6   -1    1     17.53      0.00
   -5   -1    1     49.86      0.00
   -4   -1    1     11.61      0.00
   -3   -1    1    112.83      0.00
   -2   -1    1     79.79      0.00
    1   -1    1     45.93      0.00
    2   -1    1     -9.46      0.00
    3   -1    1     87.36      0.00
    4   -1    1      1.26      0.00
    5   -1    1     31.72      0.00
    6   -1    1     15.80      0.00
    7   -1    1     14.98      0.00
    8   -1    1     17.27      0.00
    9   -1    1      2.98      0.00
   10   -1    1      0.98      0.00
   11   -1    1     -4.57      0.00
   12   -1    1     -0.99      0.00
   13   -1    1     -1.57      0.00
   14   -1    1      2.39      0.00
  -14    0    1      0.00      0.00
  -13    0    1     -6.85      0.00
  -12    0    1     -6.82      0.00
  -11    0    1     -2.85      0.00
  -10    0    1     -1.90      0.00
   -9    0    1      2.04      0.00
   -8    0    1      7.22      0.00
   -7    0    1     -0.72      0.00
   -6    0    1     23.65      0.00
   -5    0    1    -17.97      0.00
   -4    0    1     24.61      0.00
   -3    0    1    -13.27      0.00
   -2    0    1   -122.34      0.00
    1    0    1   -138.11      0.00
    2    0    1     81.10      0.00
    3    0    1    -27.60      0.00
    4    0    1     -3.05      0.00
    5    0    1     10.36      0.00
    6    0    1      5.01      0.00
    7    0    1      3.80      0.00
    8    0    1     -8.38      0.00
    9    0    1     -5.72      0.00
   10    0    1     -3.78      0.00
   11    0    1     -3.70      0.00
   12    0    1     -0.06      0.00
   13    0    1     -3.58      0.00
   14    0    1     -4.77      0.00
  -15    1    1      1.98      0.00
  -14    1    1      0.39      0.00
  -13    1    1      2.01      0.00
  -12    1    1      1.42      0.00
  -11    1    1      3.25      0.00
  -10    1    1      2.64      0.00
   -9    1    1     10.32      0.00
   -8    1    1     -7.05      0.00
   -7    1    1     12.69      0.00
   -6    1    1     -9.09      0.00
   -5    1    1    -10.40      0.00
   -4    1    1     -9.72      0.00
   -3    1    1    -76.01      0.00
   -2    1    1    -63.72      0.00
   -1    1    1     -3.87      0.00
    0    1    1    -71.27      0.00
    1    1    1    101.08      0.00
    2    1    1     15.54      0.00
    3    1    1      6.01      0.00
    4    1    1     38.58      0.00
    5    1    1      5.69      0.00
    6    1    1     -7.12      0.00
    7    1    1     -5.97      0.00
    8    1    1     -7.54      0.00
    9    1    1     -0.48      0.00
   10    1    1     -3.28      0.00
   11    1    1      1.45      0.00
   12    1    1     -4.99      0.00
   13    1    1      0.08      0.00
  -15    2    1      1.56      0.00
  -14    2    1     -2.21      0.00
  -13    2    1     -4.73      0.00
  -12    2    1     -0.16      0.00
  -11    2    1     -3.35      0.00
  -10    2    1      2.70      0.00
   -9    2    1     -8.50      0.00
   -8    2    1      3.51      0.00
   -7    2    1      2.22      0.00
   -6    2    1    -10.17      0.00
   -5    2    1     10.57      0.00
   -4    2    1    -27.30      0.00
   -3    2    1    -35.66      0.00
   -2    2    1     32.62      0.00
   -1    2    1      5.46      0.00
    0    2    1     -8.38      0.00
    1    2    1     -7.83      0.00
    2    2    1    -22.43      0.00
    3    2    1      5.87      0.00
    4    2    1    -19.20      0.00
    5    2    1    -12.34      0.00
    6    2    1     -4.39      0.00
    7    2    1     -4.24      0.00
    8    2    1      7.37      0.00
    9    2    1      3.34      0.00
   10    2    1      1.35      0.00
   11    2    1      2.17      0.00
   12    2    1     -2.48      0.00
   13    2    1     -3.55      0.00
  -15    3    1      1.08      0.00
  -14    3    1     -2.62      0.00
  -13    3    1      0.50      0.00
  -12    3    1     -2.60      0.00
  -11    3    1     -1.49      0.00
  -10    3    1     -3.77      0.00
   -9    3    1     -2.56      0.00
   -8    3    1     -0.37      0.00
   -7    3    1      4.73      0.00
   -6    3    1      8.82      0.00
   -5    3    1      0.82      0.00
   -4    3    1      9.45      0.00
   -3    3    1     24.49      0.00
   -2    3    1    -23.72      0.00
   -1    3    1    -16.00      0.00
    0    3    1     20.29      0.00
    1    3    1      8.00      0.00
    2    3    1     17.85      0.00
    3    3    1     18.03      0.00
    4    3    1     22.02      0.00
    5    3    1      7.11      0.00
    6    3    1      8.92      0.00
    7    3    1      7.02      0.00
    8    3    1      0.96      0.00
    9    3    1      0.37      0.00
   10    3    1      1.86      0.00
   11    3    1     -4.98      0.00
   12    3    1     -4.76      0.00
   13    3    1      1.00      0.00
  -15    4    1      2.42      0.00
  -14    4    1     -1.24      0.00
  -13    4    1     -4.38      0.00
  -12    4    1     -2.32      0.00
  -11    4    1      0.46      0.00
  -10    4    1      1.81      0.00
   -9    4    1      1.58      0.00
   -8    4    1      7.02      0.00
   -7    4    1     -4.77      0.00
   -6    4    1     -2.66      0.00
   -5    4    1      8.65      0.00
   -4    4    1    -11.47      0.00
   -3    4    1    -20.94      0.00
   -2    4    1     -3.70      0.00
   -1    4    1    -18.92      0.00
    0    4    1      4.86      0.00
    1    4    1     17.94      0.00
    2    4    1     11.95      0.00
    3    4    1      7.85      0.00
    4    4    1     -8.09      0.00
    5    4    1     -3.97      0.00
    6    4    1     -7.43      0.00
    7    4    1     -6.95      0.00
    8    4    1     -4.27      0.00
    9    4    1     -0.42      0.00
   10    4    1     -2.02      0.00
   11    4    1     -4.16      0.00
   12    4    1     -4.55      0.00
  -15    5    1     -3.57      0.00
  -14    5    1     -3.27      0.00
  -13    5    1     -0.71      0.00
  -12    5    1      0.00      0.00
  -11    5    1     -2.69      0.00
  -10    5    1     -2.74      0.00
   -9    5    1     -0.38      0.00
   -8    5    1     -5.34      0.00
   -7    5    1     -6.45      0.00
   -6    5    1      6.50      0.00
   -5    5    1     -2.46      0.00
   -4    5    1      8.50      0.00
   -3    5    1     11.16      0.00
   -2    5    1     -5.09      0.00
   -1    5    1     28.82      0.00
    0    5    1      8.40      0.00
    1    5    1    -14.00      0.00
    2    5    1     -4.68      0.00
    3    5    1     -8.33      0.00
    4    5    1    -11.14      0.00
    5    5    1     -3.38      0.00
    6    5    1     -0.46      0.00
    7    5    1     -1.97      0.00
    8    5    1      6.41      0.00
    9    5    1      5.49      0.00
   10    5    1     -2.50      0.00
   11    5    1     -3.53      0.00
   12    5    1     -5.54      0.00
  -15    6    1     -0.61      0.00
  -14    6    1      1.06      0.00
  -13    6    1      2.10      0.00
  -12    6    1      2.55      0.00
  -11    6    1      3.26      0.00
  -10    6    1      1.24      0.00
   -9    6    1      0.01      0.00
   -8    6    1     -4.67      0.00
   -7    6    1      8.10      0.00
   -6    6    1      6.32      0.00
   -5    6    1     -2.62      0.00
   -4    6    1      1.25      0.00
   -3    6    1     -1.56      0.00
   -2    6    1     -7.60      0.00
   -1    6    1    -11.08      0.00
    0    6    1     -0.13      0.00
    1    6    1     13.68      0.00
    2    6    1     14.65      0.00
    3    6    1     -5.04      0.00
    4    6    1      3.90      0.00
    5    6    1      1.32      0.00
    6    6    1     -2.46      0.00
    7    6    1      2.33      0.00
    8    6    1     -1.56      0.00
    9    6    1     -7.00      0.00
   10    6    1     -0.52      0.00
   11    6    1      2.04      0.00
  -15    7    1      0.54      0.00
  -14    7    1     -1.25      0.00
  -13    7    1     -0.15      0.00
  -12    7    1     -0.28      0.00
  -11    7    1     -5.05      0.00
  -10    7    1     -3.09      0.00
   -9    7    1     -7.57      0.00
   -8    7    1      3.17      0.00
   -7    7    1      2.36      0.00
   -6    7    1     -4.01      0.00
   -5    7    1      2.41      0.00
   -4    7    1      5.99      0.00
   -3    7    1     -9.40      0.00
   -2    7    1      9.94      0.00
   -1    7    1      5.98      0.00
    0    7    1    -12.84      0.00
    1    7    1     -3.33      0.00
    2    7    1    -13.09      0.00
    3    7    1     -6.65      0.00
    4    7    1     -2.94      0.00
    5    7    1     -6.47      0.00
    6    7    1     -0.90      0.00
    7    7    1     -2.33      0.00
    8    7    1     -0.50      0.00
    9    7    1      1.18      0.00
   10    7    1      5.17      0.00
  -15    8    1     -0.66      0.00
  -14    8    1      1.30      0.00
  -13    8    1      3.24      0.00
  -12    8    1     -1.91      0.00
  -11    8    1      0.75      0.00
  -10    8    1     -0.34      0.00
   -9    8    1      3.04      0.00
   -8    8    1      2.01      0.00
   -7    8    1      1.30      0.00
   -6    8    1     -4.36      0.00
   -5    8    1      5.61      0.00
   -4    8    1      2.72      0.00
   -3    8    1     -0.07      0.00
   -2    8    1     -7.48      0.00
   -1    8    1    -11.85      0.00
    0    8    1     11.54      0.00
    1    8    1      9.89      0.00
    2    8    1      1.30      0.00
    3    8    1      8.19      0.00
    4    8    1     -4.23      0.00
    5    8    1      1.08      0.00
    6    8    1      0.66      0.00
    7    8    1     -0.16      0.00
    8    8    1      0.96      0.00
    9    8    1      0.37      0.00
   10    8    1     -4.88      0.00
  -15    9    1     -0.71      0.00
  -14    9    1      0.77      0.00
  -13    9    1     -0.89      0.00
  -12    9    1      3.13      0.00
  -11    9    1      2.22      0.00
  -10    9    1      2.33      0.00
   -9    9    1      1.36      0.00
   -8    9    1      0.27      0.00
   -7    9    1     -0.66      0.00
   -6    9    1      7.49      0.00
   -5    9    1      5.39      0.00
   -4    9    1     -7.12      0.00
   -3    9    1      1.06      0.00
   -2    9    1      1.45      0.00
   -1    9    1      2.01      0.00
    0    9    1     -1.45      0.00
    1    9    1     -6.86      0.00
    2    9    1     -1.79      0.00
    3    9    1     -7.83      0.00
    4    9    1     -0.15      0.00
    5    9    1      0.87      0.00
    6    9    1     -0.49      0.00
    7    9    1     -0.54      0.00
    8    9    1     -2.64      0.00
    9    9    1     -0.68      0.00
  -14   10    1      0.60      0.00
  -13   10    1     -0.32      0.00
  -12   10    1     -1.93      0.00
  -11   10    1      3.34      0.00
  -10   10    1      0.65      0.00
   -9   10    1      3.73      0.00
   -8   10    1      1.95      0.00
   -7   10    1     -0.04      0.00
   -6   10    1      1.03      0.00
   -5   10    1     -4.43      0.00
   -4   10    1      0.51      0.00
   -3   10    1     -7.25      0.00
   -2   10    1     -4.73      0.00
   -1   10    1      0.76      0.00
    0   10    1      0.75      0.00
    1   10    1      2.28      0.00
    2   10    1      3.50      0.00
    3   10    1      1.18      0.00
    4   10    1     -1.34      0.00
    5   10    1      1.24      0.00
    6   10    1      0.00      0.00
    7   10    1      1.13      0.00
    8   10    1      4.33      0.00
  -14   11    1     -1.13      0.00
  -13   11    1      0.61      0.00
  -12   11    1      1.12      0.00
  -11   11    1     -0.93      0.00
  -10   11    1      2.50      0.00
   -9   11    1     -4.29      0.00
   -8   11    1     -2.29      0.00
   -7   11    1      0.29      0.00
   -6   11    1     -2.32      0.00
   -5   11    1     -3.61      0.00
   -4   11    1     -5.28      0.00
   -3   11    1      3.27      0.00
   -2   11    1      2.33      0.00
   -1   11    1      1.11      0.00
    0   11    1      2.21      0.00
    1   11    1     -0.29      0.00
    2   11    1     -0.82      0.00
    3   11    1      2.52      0.00
    4   11    1      6.66      0.00
    5   11    1      5.16      0.00
    6   11    1      2.07      0.00
    7   11    1      4.25      0.00
  -13   12    1     -2.93      0.00
  -12   12    1     -0.17      0.00
  -11   12    1      1.24      0.00
  -10   12    1     -2.18      0.00
   -9   12    1      0.21      0.00
   -8   12    1      1.66      0.00
   -7   12    1     -0.99      0.00
   -6   12    1     -1.07      0.00
   -5   12    1      0.04      0.00
   -4   12    1      2.23      0.00
   -3   12    1     -1.04      0.00
   -2   12    1     -3.44      0.00
   -1   12    1     -3.50      0.00
    0   12    1     -5.47      0.00
    1   12    1      0.03      0.00
    2   12    1     -1.28      0.00
    3   12    1     -1.93      0.00
    4   12    1     -4.46      0.00
    5   12    1     -5.60      0.00
    6   12    1     -1.06      0.00
  -13   13    1     -0.20      0.00
  -12   13    1     -1.69      0.00
  -11   13    1     -3.91      0.00
  -10   13    1     -2.94      0.00
   -9   13    1     -2.86      0.00
   -8   13    1     -1.94      0.00
   -7   13    1     -1.25      0.00
   -6   13    1      0.58      0.00
   -5   13    1      0.81      0.00
   -4   13    1      0.93      0.00
   -3   13    1     -2.15      0.00
   -2   13    1      4.33      0.00
   -1   13    1      3.03      0.00
    0   13    1      5.96      0.00
    1   13    1      2.19      0.00
    2   13    1      1.72      0.00
    3   13    1      0.09      0.00
    4   13    1     -0.01      0.00
    5   13    1      3.82      0.00
  -12   14    1      0.13      0.00
  -11   14    1      1.76      0.00
  -10   14    1     -1.76      0.00
   -9   14    1      0.42      0.00
   -8   14    1      0.87      0.00
   -7   14    1      2.56      0.00
   -6   14    1      2.04      0.00
   -5   14    1      0.96      0.00
   -4   14    1      0.37      0.00
   -3   14    1      4.20      0.00
   -2   14    1     -1.32      0.00
   -1   14    1      1.52      0.00
    0   14    1     -2.03      0.00
    1   14    1     -1.58      0.00
    2   14    1      2.04      0.00
    3   14    1      0.28      0.00
    4   14    1      7.36      0.00
  -11   15    1     -2.19      0.00
  -10   15    1     -3.53      0.00
   -9   15    1     -0.74      0.00
   -8   15    1     -0.62      0.00
   -7   15    1      1.45      0.00
   -6   15    1      1.34      0.00
   -5   15    1     -0.65      0.00
   -4   15    1     -3.35      0.00
   -3   15    1     -4.36      0.00
   -2   15    1     -3.79      0.00
   -1   15    1     -8.31      0.00
    0   15    1     -2.49      0.00
    1   15    1      6.82      0.00
    2   15    1     -0.98      0.00
  -10   16    1     -2.52      0.00
   -9   16    1     -2.12      0.00
   -8   16    1     -0.48      0.00
   -7   16    1      3.05      0.00
   -6   16    1      0.81      0.00
   -5   16    1      0.09      0.00
   -4   16    1      0.25      0.00
   -3   16    1      3.82      0.00
   -2   16    1     -1.87      0.00
   -1   16    1     -0.86      0.00
    0   16    1      4.27      0.00
   -7   17    1      2.19      0.00
   -6   17    1      0.46      0.00
   -5   17    1     -2.96      0.00
   -4   17    1      2.59      0.00
   -3   17    1     -1.27      0.00
    1  -18    2      1.90      0.00
    2  -18    2      0.81      0.00
    3  -18    2     -2.26      0.00
    4  -18    2     -0.45      0.00
    5  -18    2     -2.23      0.00
    6  -18    2     -0.09      0.00
    7  -18    2      1.28      0.00
   -1  -17    2      7.80      0.00
    0  -17    2      1.40      0.00
    1  -17    2     -0.52      0.00
    2  -17    2     -1.21      0.00
    3  -17    2      0.59      0.00
    4  -17    2     -0.36      0.00
    5  -17    2      1.51      0.00
    6  -17    2     -1.26      0.00
    7  -17    2     -0.37      0.00
    8  -17    2      4.11      0.00
    9  -17    2     -1.81      0.00
   -3  -16    2     -0.99      0.00
   -2  -16    2      0.88      0.00
   -1  -16    2     -0.17      0.00
    0  -16    2     -0.71      0.00
    1  -16    2      0.88      0.00
    2  -16    2      0.61      0.00
    3  -16    2     -0.85      0.00
    4  -16    2      0.02      0.00
    5  -16    2     -3.35      0.00
    6  -16    2      0.95      0.00
    7  -16    2     -0.03      0.00
    8  -16    2     -5.17      0.00
    9  -16    2     -1.16      0.00
   10  -16    2      1.11      0.00
   11  -16    2      0.83      0.00
   -5  -15    2     -3.26      0.00
   -4  -15    2     -3.88      0.00
   -3  -15    2     -4.99      0.00
   -2  -15    2      0.15      0.00
   -1  -15    2      2.44      0.00
    0  -15    2      0.82      0.00
    1  -15    2      2.85      0.00
    2  -15    2     -2.92      0.00
    3  -15    2     -2.50      0.00
    4  -15    2     -1.27      0.00
    5  -15    2      1.03      0.00
    6  -15    2      0.64      0.00
    7  -15    2     -1.36      0.00
    8  -15    2      0.67      0.00
    9  -15    2      0.57      0.00
   10  -15    2      0.61      0.00
   11  -15    2     -2.02      0.00
   12  -15    2     -0.95      0.00
   -6  -14    2     -3.15      0.00
   -5  -14    2     -0.67      0.00
   -4  -14    2      3.98      0.00
   -3  -14    2      4.60      0.00
   -2  -14    2      5.16      0.00
   -1  -14    2     -1.89      0.00
    0  -14    2     -0.76      0.00
    1  -14    2     -1.05      0.00
    2  -14    2     -1.09      0.00
    3  -14    2      1.67      0.00
    4  -14    2      0.11      0.00
    5  -14    2     -4.22      0.00
    6  -14    2      0.72      0.00
    7  -14    2      0.35      0.00
    8  -14    2      1.63      0.00
    9  -14    2      2.65      0.00
   10  -14    2      2.22      0.00
   11  -14    2     -2.65      0.00
   12  -14    2      0.07      0.00
   -7  -13    2     -2.93      0.00
   -6  -13    2     -5.49      0.00
   -5  -13    2      0.81      0.00
   -4  -13    2     -4.03      0.00
   -3  -13    2     -2.88      0.00
   -2  -13    2     -3.11      0.00
   -1  -13    2     -3.08      0.00
    0  -13    2      0.83      0.00
    1  -13    2     -1.56      0.00
    2  -13    2     -2.40      0.00
    3  -13    2     -2.10      0.00
    4  -13    2     -2.45      0.00
    5  -13    2      4.54      0.00
    6  -13    2     -0.02      0.00
    7  -13    2     -1.82      0.00
    8  -13    2     -0.55      0.00
    9  -13    2      4.01      0.00
   10  -13    2     -4.25      0.00
   11  -13    2      0.77      0.00
   12  -13    2     -2.31      0.00
   13  -13    2     -0.14      0.00
   -8  -12    2     -3.75      0.00
   -7  -12    2     -2.31      0.00
   -6  -12    2     -1.36      0.00
   -5  -12    2     -1.26      0.00
   -4  -12    2      3.72      0.00
   -3  -12    2      5.86      0.00
   -2  -12    2      1.73      0.00
   -1  -12    2      2.01      0.00
    0  -12    2     -1.48      0.00
    1  -12    2     -1.93      0.00
    2  -12    2      1.85      0.00
    3  -12    2      6.37      0.00
    4  -12    2      0.29      0.00
    5  -12    2     -1.30      0.00
    6  -12    2     -2.81      0.00
    7  -12    2     -2.61      0.00
    8  -12    2      0.76      0.00
    9  -12    2     -0.66      0.00
   10  -12    2     -0.36      0.00
   11  -12    2      1.10      0.00
   12  -12    2     -0.72      0.00
   13  -12    2      0.82      0.00
   -9  -11    2     -6.41      0.00
   -8  -11    2      0.87      0.00
   -7  -11    2     -3.02      0.00
   -6  -11    2      2.07      0.00
   -5  -11    2      2.96      0.00
   -4  -11    2     -0.13      0.00
   -3  -11    2      2.38      0.00
   -2  -11    2      1.45      0.00
   -1  -11    2     -1.68      0.00
    0  -11    2      6.28      0.00
    1  -11    2      1.48      0.00
    2  -11    2      5.42      0.00
    3  -11    2     -6.59      0.00
    4  -11    2     -0.74      0.00
    5  -11    2      1.26      0.00
    6  -11    2     -3.33      0.00
    7  -11    2     -0.16      0.00
    8  -11    2      0.61      0.00
    9  -11    2     -2.97      0.00
   10  -11    2      1.04      0.00
   11  -11    2     -0.62      0.00
   12  -11    2     -0.08      0.00
   13  -11    2     -0.94      0.00
   14  -11    2     -0.38      0.00
  -10  -10    2     -3.64      0.00
   -9  -10    2      0.75      0.00
   -8  -10    2     -2.01      0.00
   -7  -10    2      1.72      0.00
   -6  -10    2     -2.38      0.00
   -5  -10    2     -5.94      0.00
   -4  -10    2      1.37      0.00
   -3  -10    2     -2.57      0.00
   -2  -10    2     -9.03      0.00
   -1  -10    2     -2.75      0.00
    0  -10    2     -9.41      0.00
    1  -10    2     -2.02      0.00
    2  -10    2      1.30      0.00
    3  -10    2      0.76      0.00
    4  -10    2      2.98      0.00
    5  -10    2     -0.81      0.00
    6  -10    2     -0.51      0.00
    7  -10    2     -2.50      0.00
    8  -10    2     -2.87      0.00
    9  -10    2     -0.26      0.00
   10  -10    2      1.72      0.00
   11  -10    2      3.08      0.00
   12  -10    2     -2.30      0.00
   13  -10    2     -2.21      0.00
   14  -10    2      1.12      0.00
  -10   -9    2      1.70      0.00
   -9   -9    2     -2.29      0.00
   -8   -9    2     -1.68      0.00
   -7   -9    2     -3.95      0.00
   -6   -9    2     -5.06      0.00
   -5   -9    2      4.44      0.00
   -4   -9    2      4.64      0.00
   -3   -9    2      4.77      0.00
   -2   -9    2     13.66      0.00
   -1   -9    2     14.07      0.00
    0   -9    2     10.20      0.00
    1   -9    2      9.38      0.00
    2   -9    2      1.74      0.00
    3   -9    2     -2.79      0.00
    4   -9    2     -2.24      0.00
    5   -9    2     -4.71      0.00
    6   -9    2     -4.65      0.00
    7   -9    2     -1.95      0.00
    8   -9    2     -2.40      0.00
    9   -9    2      0.49      0.00
   10   -9    2      5.48      0.00
   11   -9    2     -0.05      0.00
   12   -9    2      3.06      0.00
   13   -9    2      3.20      0.00
   14   -9    2      0.36      0.00
  -11   -8    2      3.93      0.00
  -10   -8    2      0.70      0.00
   -9   -8    2     -0.52      0.00
   -8   -8    2     -0.66      0.00
   -7   -8    2     -1.69      0.00
   -6   -8    2      5.83      0.00
   -5   -8    2      1.53      0.00
   -4   -8    2      3.17      0.00
   -3   -8    2     -1.82      0.00
   -2   -8    2     -1.99      0.00
   -1   -8    2     -9.50      0.00
    0   -8    2     -5.71      0.00
    1   -8    2      5.56      0.00
    2   -8    2     -0.84      0.00
    3   -8    2      2.44      0.00
    4   -8    2     10.50      0.00
    5   -8    2     -6.90      0.00
    6   -8    2     -4.64      0.00
    7   -8    2     -4.13      0.00
    8   -8    2     -2.89      0.00
    9   -8    2      2.60      0.00
   10   -8    2      2.19      0.00
   11   -8    2     -1.50      0.00
   12   -8    2     -1.61      0.00
   13   -8    2     -1.96      0.00
   14   -8    2     -0.88      0.00
  -12   -7    2     -4.72      0.00
  -11   -7    2      1.02      0.00
  -10   -7    2      0.21      0.00
   -9   -7    2     -0.01      0.00
   -8   -7    2     -2.59      0.00
   -7   -7    2     -3.33      0.00
   -6   -7    2     -4.06      0.00
   -5   -7    2      0.08      0.00
   -4   -7    2    -10.35      0.00
   -3   -7    2      2.04      0.00
   -2   -7    2     10.37      0.00
   -1   -7    2      1.38      0.00
    0   -7    2     17.02      0.00
    1   -7    2      2.02      0.00
    2   -7    2      8.74      0.00
    3   -7    2      9.63      0.00
    4   -7    2    -20.74      0.00
    5   -7    2     -5.28      0.00
    6   -7    2      5.16      0.00
    7   -7    2     -6.90      0.00
    8   -7    2      2.73      0.00
    9   -7    2     -0.43      0.00
   10   -7    2      0.67      0.00
   11   -7    2     -0.90      0.00
   12   -7    2      1.23      0.00
   13   -7    2     -0.84      0.00
   14   -7    2      0.02      0.00
  -12   -6    2     -2.36      0.00
  -11   -6    2     -3.05      0.00
  -10   -6    2     -0.70      0.00
   -9   -6    2     -0.16      0.00
   -8   -6    2     -1.55      0.00
   -7   -6    2     -1.36      0.00
   -6   -6    2      7.20      0.00
   -5   -6    2      1.84      0.00
   -4   -6    2     17.24      0.00
   -3   -6    2     27.37      0.00
   -2   -6    2    -15.93      0.00
   -1   -6    2     16.88      0.00
    0   -6    2      3.90      0.00
    1   -6    2     -4.55      0.00
    2   -6    2    -14.88      0.00
    3   -6    2    -18.96      0.00
    4   -6    2      2.71      0.00
    5   -6    2     18.43      0.00
    6   -6    2     -6.80      0.00
    7   -6    2      5.81      0.00
    8   -6    2     -6.64      0.00
    9   -6    2     -2.53      0.00
   10   -6    2     -2.73      0.00
   11   -6    2      0.44      0.00
   12   -6    2     -3.82      0.00
   13   -6    2     -2.30      0.00
   14   -6    2      1.62      0.00
  -13   -5    2     -4.99      0.00
  -12   -5    2      0.83      0.00
  -11   -5    2      3.34      0.00
  -10   -5    2      4.45      0.00
   -9   -5    2      1.09      0.00
   -8   -5    2     -0.73      0.00
   -7   -5    2      6.91      0.00
   -6   -5    2     -0.14      0.00
   -5   -5    2      0.63      0.00
   -4   -5    2     -1.00      0.00
   -3   -5    2    -49.08      0.00
   -2   -5    2    -12.01      0.00
   -1   -5    2    -22.64      0.00
    0   -5    2    -29.27      0.00
    1   -5    2     14.42      0.00
    2   -5    2     19.22      0.00
    3   -5    2     -0.39      0.00
    4   -5    2     23.12      0.00
    5   -5    2      0.66      0.00
    6   -5    2     -1.70      0.00
    7   -5    2     -4.56      0.00
    8   -5    2      2.04      0.00
    9   -5    2      1.04      0.00
   10   -5    2     -0.53      0.00
   11   -5    2     -0.04      0.00
   12   -5    2      2.22      0.00
   13   -5    2      5.15      0.00
   14   -5    2     -1.15      0.00
  -13   -4    2      5.68      0.00
  -12   -4    2      2.60      0.00
  -11   -4    2      3.92      0.00
  -10   -4    2      1.84      0.00
   -9   -4    2      0.69      0.00
   -8   -4    2      2.39      0.00
   -7   -4    2     -1.33      0.00
   -6   -4    2     -4.69      0.00
   -5   -4    2      3.99      0.00
   -4   -4    2    -14.48      0.00
   -3   -4    2     17.15      0.00
   -2   -4    2     23.16      0.00
   -1   -4    2     60.81      0.00
    0   -4    2     61.91      0.00
    1   -4    2      7.55      0.00
    2   -4    2    -40.20      0.00
    3   -4    2     15.65      0.00
    4   -4    2    -14.10      0.00
    5   -4    2    -24.10      0.00
    6   -4    2     -9.88      0.00
    7   -4    2      6.09      0.00
    8   -4    2     -4.59      0.00
    9   -4    2     -0.30      0.00
   10   -4    2     -0.23      0.00
   11   -4    2     -0.70      0.00
   12   -4    2      2.22      0.00
   13   -4    2     -2.79      0.00
   14   -4    2     -1.43      0.00
  -14   -3    2      1.20      0.00
  -13   -3    2     -3.22      0.00
  -12   -3    2      1.08      0.00
  -11   -3    2     -0.14      0.00
  -10   -3    2     -4.95      0.00
   -9   -3    2     -0.52      0.00
   -8   -3    2     -2.50      0.00
   -7   -3    2     -3.57      0.00
   -6   -3    2      4.70      0.00
   -5   -3    2     -7.54      0.00
   -4   -3    2     14.61      0.00
   -3   -3    2     -7.12      0.00
   -2   -3    2      2.33      0.00
   -1   -3    2    -65.28      0.00
    0   -3    2    -80.08      0.00
    1   -3    2     15.53      0.00
    2   -3    2    -21.00      0.00
    3   -3    2    -48.98      0.00
    4   -3    2    -33.37      0.00
    5   -3    2    -24.85      0.00
    6   -3    2      0.18      0.00
    7   -3    2      0.24      0.00
    8   -3    2      4.66      0.00
    9   -3    2     -1.10      0.00
   10   -3    2     -5.10      0.00
   11   -3    2      2.12      0.00
   12   -3    2      0.98      0.00
   13   -3    2     -0.08      0.00
   14   -3    2      2.86      0.00
  -14   -2    2     -0.48      0.00
  -13   -2    2     -0.27      0.00
  -12   -2    2      0.99      0.00
  -11   -2    2     -0.77      0.00
  -10   -2    2      4.26      0.00
   -9   -2    2      3.03      0.00
   -8   -2    2     10.43      0.00
   -7   -2    2     11.34      0.00
   -6   -2    2      7.78      0.00
   -5   -2    2     29.99      0.00
   -4   -2    2    -11.16      0.00
   -3   -2    2    -10.40      0.00
   -2   -2    2     28.09      0.00
   -1   -2    2     29.27      0.00
    0   -2    2    209.97      0.00
    1   -2    2     23.79      0.00
    2   -2    2     33.19      0.00
    3   -2    2     39.73      0.00
    4   -2    2     12.94      0.00
    5   -2    2     35.34      0.00
    6   -2    2     30.87      0.00
    7   -2    2      3.31      0.00
    8   -2    2      1.20      0.00
    9   -2    2     -5.06      0.00
   10   -2    2      2.07      0.00
   11   -2    2     -2.61      0.00
   12   -2    2     -1.72      0.00
   13   -2    2     -2.51      0.00
   14   -2    2     -1.57      0.00
  -14   -1    2     -3.10      0.00
  -13   -1    2      0.34      0.00
  -12   -1    2     -0.28      0.00
  -11   -1    2      2.96      0.00
  -10   -1    2      1.62      0.00
   -9   -1    2      2.47      0.00
   -8   -1    2     -4.18      0.00
   -7   -1    2     -8.25      0.00
   -6   -1    2      2.32      0.00
   -5   -1    2    -47.67      0.00
   -4   -1    2    -57.54      0.00
   -3   -1    2     20.76      0.00
   -2   -1    2    -45.12      0.00
   -1   -1    2    143.50      0.00
    0   -1    2     95.10      0.00
    1   -1    2     50.90      0.00
    2   -1    2     13.98      0.00
    3   -1    2      7.59      0.00
    4   -1    2     -4.36      0.00
    5   -1    2     -1.40      0.00
    6   -1    2    -30.90      0.00
    7   -1    2     -8.20      0.00
    8   -1    2     -8.25      0.00
    9   -1    2      0.37      0.00
   10   -1    2      3.56      0.00
   11   -1    2      5.31      0.00
   12   -1    2      3.38      0.00
   13   -1    2      4.52      0.00
   14   -1    2      4.30      0.00
  -15    0    2     -0.99      0.00
  -14    0    2     -0.27      0.00
  -13    0    2     -1.96      0.00
  -12    0    2      2.10      0.00
  -11    0    2     -2.56      0.00
  -10    0    2     -6.41      0.00
   -9    0    2     -2.95      0.00
   -8    0    2     -8.84      0.00
   -7    0    2      2.90      0.00
   -6    0    2    -25.40      0.00
   -5    0    2    -33.08      0.00
   -4    0    2     37.80      0.00
   -3    0    2    -10.04      0.00
   -2    0    2    107.02      0.00
   -1    0    2     88.48      0.00
    0    0    2    -61.44      0.00
    1    0    2    -55.13      0.00
    2    0    2      8.89      0.00
    3    0    2    -56.67      0.00
    4    0    2    -13.12      0.00
    5    0    2    -16.60      0.00
    6    0    2      3.79      0.00
    7    0    2      4.43      0.00
    8    0    2      3.77      0.00
    9    0    2      7.71      0.00
   10    0    2     -1.20      0.00
   11    0    2      3.30      0.00
   12    0    2      2.39      0.00
   13    0    2     -3.50      0.00
  -15    1    2     -2.14      0.00
  -14    1    2     -0.97      0.00
  -13    1    2     -0.15      0.00
  -12    1    2     -1.84      0.00
  -11    1    2     -5.50      0.00
  -10    1    2      3.16      0.00
   -9    1    2     -3.04      0.00
   -8    1    2      4.79      0.00
   -7    1    2      3.86      0.00
   -6    1    2     -7.20      0.00
   -5    1    2     34.94      0.00
   -4    1    2     22.66      0.00
   -3    1    2     29.77      0.00
   -2    1    2     -0.29      0.00
   -1    1    2    -33.40      0.00
    0    1    2      7.40      0.00
    1    1    2     36.26      0.00
    2    1    2    -30.93      0.00
    3    1    2      4.64      0.00
    4    1    2      7.96      0.00
    5    1    2      1.40      0.00
    6    1    2      9.93      0.00
    7    1    2      4.27      0.00
    8    1    2      3.44      0.00
    9    1    2     -2.98      0.00
   10    1    2      0.84      0.00
   11    1    2     -4.14      0.00
   12    1    2     -4.92      0.00
   13    1    2      1.88      0.00
  -15    2    2      0.43      0.00
  -14    2    2     -2.03      0.00
  -13    2    2      0.64      0.00
  -12    2    2     -0.81      0.00
  -11    2    2      3.67      0.00
  -10    2    2      0.79      0.00
   -9    2    2      3.04      0.00
   -8    2    2      3.26      0.00
   -7    2    2     -7.67      0.00
   -6    2    2      4.66      0.00
   -5    2    2     11.44      0.00
   -4    2    2    -18.35      0.00
   -3    2    2     -5.68      0.00
   -2    2    2     25.98      0.00
   -1    2    2      4.19      0.00
    0    2    2     27.20      0.00
    1    2    2     11.69      0.00
    2    2    2     -8.57      0.00
    3    2    2      8.64      0.00
    4    2    2     -2.70      0.00
    5    2    2      4.10      0.00
    6    2    2     -7.83      0.00
    7    2    2    -10.00      0.00
    8    2    2     -4.73      0.00
    9    2    2     -1.09      0.00
   10    2    2      0.73      0.00
   11    2    2      6.43      0.00
   12    2    2      2.51      0.00
  -15    3    2     -1.08      0.00
  -14    3    2      1.76      0.00
  -13    3    2      2.91      0.00
  -12    3    2      0.68      0.00
  -11    3    2     -0.98      0.00
  -10    3    2     -0.80      0.00
   -9    3    2     -5.66      0.00
   -8    3    2     -2.92      0.00
   -7    3    2     -1.73      0.00
   -6    3    2      7.14      0.00
   -5    3    2      6.14      0.00
   -4    3    2     15.66      0.00
   -3    3    2     37.15      0.00
   -2    3    2      2.63      0.00
   -1    3    2     27.60      0.00
    0    3    2    -13.74      0.00
    1    3    2    -50.41      0.00
    2    3    2    -11.23      0.00
    3    3    2    -12.01      0.00
    4    3    2    -10.43      0.00
    5    3    2     -4.45      0.00
    6    3    2     -0.01      0.00
    7    3    2      2.49      0.00
    8    3    2      4.41      0.00
    9    3    2      4.21      0.00
   10    3    2      2.11      0.00
   11    3    2     -2.67      0.00
   12    3    2     -0.55      0.00
  -15    4    2     -0.34      0.00
  -14    4    2      1.93      0.00
  -13    4    2      2.83      0.00
  -12    4    2      3.18      0.00
  -11    4    2      0.12      0.00
  -10    4    2     -1.75      0.00
   -9    4    2      4.09      0.00
   -8    4    2      1.48      0.00
   -7    4    2     -0.35      0.00
   -6    4    2      8.16      0.00
   -5    4    2     -6.85      0.00
   -4    4    2     13.21      0.00
   -3    4    2      6.37      0.00
   -2    4    2     -4.71      0.00
   -1    4    2    -22.84      0.00
    0    4    2      0.21      0.00
    1    4    2     21.78      0.00
    2    4    2     16.85      0.00
    3    4    2      4.24      0.00
    4    4    2     11.27      0.00
    5    4    2      4.58      0.00
    6    4    2      3.79      0.00
    7    4    2     -0.54      0.00
    8    4    2     -3.52      0.00
    9    4    2     -1.18      0.00
   10    4    2      2.10      0.00
   11    4    2      1.71      0.00
   12    4    2     -0.90      0.00
  -15    5    2      1.79      0.00
  -14    5    2      1.52      0.00
  -13    5    2      2.46      0.00
  -12    5    2      1.63      0.00
  -11    5    2     -2.09      0.00
  -10    5    2      3.97      0.00
   -9    5    2      4.18      0.00
   -8    5    2     -1.09      0.00
   -7    5    2      3.51      0.00
   -6    5    2     -4.68      0.00
   -5    5    2      9.29      0.00
   -4    5    2     12.27      0.00
   -3    5    2     -6.89      0.00
   -2    5    2     -0.36      0.00
   -1    5    2      5.07      0.00
    0    5    2    -16.69      0.00
    1    5    2    -12.44      0.00
    2    5    2    -12.36      0.00
    3    5    2     -5.30      0.00
    4    5    2     -3.69      0.00
    5    5    2      6.83      0.00
    6    5    2     -1.64      0.00
    7    5    2     -6.04      0.00
    8    5    2      2.60      0.00
    9    5    2      1.75      0.00
   10    5    2      0.11      0.00
   11    5    2      0.90      0.00
  -15    6    2     -2.42      0.00
  -14    6    2      1.57      0.00
  -13    6    2      2.95      0.00
  -12    6    2     -2.62      0.00
  -11    6    2      0.99      0.00
  -10    6    2      1.40      0.00
   -9    6    2     -5.63      0.00
   -8    6    2     -5.03      0.00
   -7    6    2     -2.78      0.00
   -6    6    2     -5.04      0.00
   -5    6    2     -1.39      0.00
   -4    6    2      2.56      0.00
   -3    6    2     -7.53      0.00
   -2    6    2    -14.24      0.00
   -1    6    2      2.35      0.00
    0    6    2     10.57      0.00
    1    6    2     16.34      0.00
    2    6    2      6.88      0.00
    3    6    2      0.90      0.00
    4    6    2      5.32      0.00
    5    6    2     -6.20      0.00
    6    6    2     -5.42      0.00
    7    6    2      2.56      0.00
    8    6    2     -1.28      0.00
    9    6    2     -0.38      0.00
   10    6    2      2.79      0.00
  -15    7    2      0.12      0.00
  -14    7    2      0.94      0.00
  -13    7    2     -1.79      0.00
  -12    7    2      0.39      0.00
  -11    7    2      3.20      0.00
  -10    7    2     -0.38      0.00
   -9    7    2     -1.00      0.00
   -8    7    2     -0.46      0.00
   -7    7    2     -1.22      0.00
   -6    7    2      3.06      0.00
   -5    7    2     10.35      0.00
   -4    7    2     -3.18      0.00
   -3    7    2     -1.30      0.00
   -2    7    2     20.44      0.00
   -1    7    2    -14.81      0.00
    0    7    2     -8.89      0.00
    1    7    2     -8.07      0.00
    2    7    2     -9.57      0.00
    3    7    2      1.87      0.00
    4    7    2      1.85      0.00
    5    7    2      3.29      0.00
    6    7    2      7.88      0.00
    7    7    2     -1.04      0.00
    8    7    2     -1.62      0.00
    9    7    2     -0.96      0.00
   10    7    2      1.44      0.00
  -15    8    2      0.19      0.00
  -14    8    2      2.00      0.00
  -13    8    2      1.46      0.00
  -12    8    2      2.73      0.00
  -11    8    2      5.03      0.00
  -10    8    2      0.86      0.00
   -9    8    2     -1.01      0.00
   -8    8    2      0.72      0.00
   -7    8    2     -3.70      0.00
   -6    8    2     -3.33      0.00
   -5    8    2      1.41      0.00
   -4    8    2     -4.50      0.00
   -3    8    2      3.18      0.00
   -2    8    2    -15.42      0.00
   -1    8    2      3.08      0.00
    0    8    2      9.38      0.00
    1    8    2     -0.90      0.00
    2    8    2      9.25      0.00
    3    8    2      5.71      0.00
    4    8    2     -2.81      0.00
    5    8    2      6.71      0.00
    6    8    2     -3.38      0.00
    7    8    2     -3.41      0.00
    8    8    2      0.70      0.00
    9    8    2     -3.45      0.00
  -15    9    2      0.47      0.00
  -14    9    2     -3.76      0.00
  -13    9    2     -0.01      0.00
  -12    9    2      0.74      0.00
  -11    9    2     -0.67      0.00
  -10    9    2     -0.58      0.00
   -9    9    2     -2.82      0.00
   -8    9    2     -5.65      0.00
   -7    9    2     -6.32      0.00
   -6    9    2      0.45      0.00
   -5    9    2     -4.80      0.00
   -4    9    2      5.11      0.00
   -3    9    2      8.58      0.00
   -2    9    2      6.90      0.00
   -1    9    2      5.58      0.00
    0    9    2     -3.80      0.00
    1    9    2      2.12      0.00
    2    9    2     -2.93      0.00
    3    9    2     -3.65      0.00
    4    9    2      5.81      0.00
    5    9    2      0.58      0.00
    6    9    2      1.56      0.00
    7    9    2      1.43      0.00
    8    9    2      1.99      0.00
  -14   10    2      1.63      0.00
  -13   10    2     -2.23      0.00
  -12   10    2     -0.95      0.00
  -11   10    2     -1.76      0.00
  -10   10    2     -1.84      0.00
   -9   10    2     -0.16      0.00
   -8   10    2     -1.67      0.00
   -7   10    2      2.47      0.00
   -6   10    2      5.31      0.00
   -5   10    2      6.20      0.00
   -4   10    2      6.83      0.00
   -3   10    2     -5.92      0.00
   -2   10    2     -1.46      0.00
   -1   10    2     -7.22      0.00
    0   10    2     -2.87      0.00
    1   10    2      3.60      0.00
    2   10    2      2.10      0.00
    3   10    2     -0.61      0.00
    4   10    2     -2.60      0.00
    5   10    2      2.41      0.00
    6   10    2      0.30      0.00
    7   10    2      6.11      0.00
  -14   11    2     -1.36      0.00
  -13   11    2     -3.82      0.00
  -12   11    2     -3.11      0.00
  -11   11    2      1.69      0.00
  -10   11    2     -1.53      0.00
   -9   11    2     -2.34      0.00
   -8   11    2      0.92      0.00
   -7   11    2     -0.18      0.00
   -6   11    2     -1.22      0.00
   -5   11    2     -0.58      0.00
   -4   11    2     -1.66      0.00
   -3   11    2      3.11      0.00
   -2   11    2      3.74      0.00
   -1   11    2      6.55      0.00
    0   11    2      5.68      0.00
    1   11    2      0.03      0.00
    2   11    2     -0.85      0.00
    3   11    2      1.24      0.00
    4   11    2      4.12      0.00
    5   11    2     -0.96      0.00
    6   11    2     -1.31      0.00
  -13   12    2     -2.63      0.00
  -12   12    2      3.62      0.00
  -11   12    2     -0.83      0.00
  -10   12    2      1.83      0.00
   -9   12    2      2.93      0.00
   -8   12    2      1.69      0.00
   -7   12    2      1.99      0.00
   -6   12    2      2.47      0.00
   -5   12    2      3.37      0.00
   -4   12    2      1.99      0.00
   -3   12    2      3.73      0.00
   -2   12    2     -1.16      0.00
   -1   12    2     -2.88      0.00
    0   12    2      1.12      0.00
    1   12    2     -0.20      0.00
    2   12    2     -0.41      0.00
    3   12    2     -0.92      0.00
    4   12    2     -2.17      0.00
    5   12    2     -0.03      0.00
  -13   13    2      1.67      0.00
  -12   13    2     -1.07      0.00
  -11   13    2      1.63      0.00
  -10   13    2      0.40      0.00
   -9   13    2      0.93      0.00
   -8   13    2     -1.07      0.00
   -7   13    2     -0.61      0.00
   -6   13    2      1.21      0.00
   -5   13    2     -0.43      0.00
   -4   13    2     -1.13      0.00
   -3   13    2     -2.15      0.00
   -2   13    2     -1.55      0.00
   -1   13    2      2.47      0.00
    0   13    2      3.37      0.00
    1   13    2      4.29      0.00
    2   13    2      0.10      0.00
    3   13    2     -3.04      0.00
    4   13    2      1.09      0.00
  -12   14    2      5.07      0.00
  -11   14    2      2.56      0.00
  -10   14    2      1.74      0.00
   -9   14    2      0.53      0.00
   -8   14    2      1.70      0.00
   -7   14    2      7.77      0.00
   -6   14    2     -0.02      0.00
   -5   14    2      1.85      0.00
   -4   14    2      0.08      0.00
   -3   14    2     -1.80      0.00
   -2   14    2      0.35      0.00
   -1   14    2     -1.01      0.00
    0   14    2      1.62      0.00
    1   14    2     -1.63      0.00
    2   14    2      0.53      0.00
    3   14    2      3.40      0.00
  -11   15    2     -2.20      0.00
  -10   15    2     -3.39      0.00
   -9   15    2     -5.20      0.00
   -8   15    2      0.37      0.00
   -7   15    2     -7.91      0.00
   -6   15    2      0.32      0.00
   -5   15    2     -5.94      0.00
   -4   15    2     -3.82      0.00
   -3   15    2      1.17      0.00
   -2   15    2     -3.85      0.00
   -1   15    2     -1.11      0.00
    0   15    2      1.73      0.00
    1   15    2     -1.13      0.00
   -9   16    2      4.84      0.00
   -8   16    2     -4.93      0.00
   -7   16    2      2.23      0.00
   -6   16    2     -0.62      0.00
   -5   16    2      0.25      0.00
   -4   16    2      5.51      0.00
   -3   16    2      1.11      0.00
   -2   16    2     -3.61      0.00
   -1   16    2      4.55      0.00
    0  -18    3      2.10      0.00
    1  -18    3      1.51      0.00
    2  -18    3     -2.19      0.00
    3  -18    3      0.52      0.00
    4  -18    3     -1.93      0.00
    5  -18    3     -4.50      0.00
    6  -18    3      1.25      0.00
    7  -18    3     -2.79      0.00
    8  -18    3     -6.48      0.00
   -2  -17    3     -0.12      0.00
   -1  -17    3      3.18      0.00
    0  -17    3     -3.70      0.00
    1  -17    3     -1.97      0.00
    2  -17    3      1.46      0.00
    3  -17    3     -3.30      0.00
    4  -17    3     -0.51      0.00
    5  -17    3      1.68      0.00
    6  -17    3     -0.33      0.00
    7  -17    3     -2.68      0.00
    8  -17    3      4.19      0.00
    9  -17    3     -2.81      0.00
   10  -17    3      0.86      0.00
   -4  -16    3      1.73      0.00
   -3  -16    3     -2.45      0.00
   -2  -16    3      2.28      0.00
   -1  -16    3     -0.33      0.00
    0  -16    3      1.76      0.00
    1  -16    3      4.80      0.00
    2  -16    3      0.83      0.00
    3  -16    3      1.94      0.00
    4  -16    3      1.38      0.00
    5  -16    3     -4.20      0.00
    6  -16    3     -1.17      0.00
    7  -16    3      2.24      0.00
    8  -16    3     -2.20      0.00
    9  -16    3      1.61      0.00
   10  -16    3     -0.83      0.00
   11  -16    3      1.34      0.00
   -5  -15    3      0.27      0.00
   -4  -15    3      0.03      0.00
   -3  -15    3     -0.33      0.00
   -2  -15    3      0.45      0.00
   -1  -15    3      0.83      0.00
    0  -15    3      2.17      0.00
    1  -15    3      3.89      0.00
    2  -15    3     -1.33      0.00
    3  -15    3      2.78      0.00
    4  -15    3     -1.36      0.00
    5  -15    3      1.47      0.00
    6  -15    3      1.04      0.00
    7  -15    3     -0.83      0.00
    8  -15    3      1.15      0.00
    9  -15    3      1.97      0.00
   10  -15    3     -0.48      0.00
   11  -15    3      2.85      0.00
   12  -15    3      0.21      0.00
   -7  -14    3     -0.09      0.00
   -6  -14    3     -0.96      0.00
   -5  -14    3      0.78      0.00
   -4  -14    3      0.58      0.00
   -3  -14    3      0.84      0.00
   -2  -14    3      2.07      0.00
   -1  -14    3     -0.57      0.00
    0  -14    3      3.28      0.00
    1  -14    3      0.13      0.00
    2  -14    3      2.60      0.00
    3  -14    3      4.09      0.00
    4  -14    3     -1.39      0.00
    5  -14    3     -2.84      0.00
    6  -14    3     -0.02      0.00
    7  -14    3     -1.26      0.00
    8  -14    3      0.98      0.00
    9  -14    3      1.93      0.00
   10  -14    3      4.15      0.00
   11  -14    3      0.97      0.00
   12  -14    3      2.03      0.00
   -8  -13    3     -2.84      0.00
   -7  -13    3     -0.73      0.00
   -6  -13    3      1.30      0.00
   -5  -13    3      3.45      0.00
   -4  -13    3     -2.24      0.00
   -3  -13    3      1.37      0.00
   -2  -13    3     -1.62      0.00
   -1  -13    3      1.37      0.00
    0  -13    3      5.73      0.00
    1  -13    3     -1.56      0.00
    2  -13    3      0.43      0.00
    3  -13    3     -2.39      0.00
    4  -13    3     -1.25      0.00
    5  -13    3      5.28      0.00
    6  -13    3     -2.65      0.00
    7  -13    3     -3.06      0.00
    8  -13    3     -0.89      0.00
    9  -13    3     -0.51      0.00
   10  -13    3     -2.99      0.00
   11  -13    3      2.20      0.00
   12  -13    3     -3.61      0.00
   13  -13    3      2.26      0.00
   -9  -12    3     -1.42      0.00
   -8  -12    3      0.07      0.00
   -7  -12    3      2.19      0.00
   -6  -12    3     -2.07      0.00
   -5  -12    3     -4.91      0.00
   -4  -12    3     -2.13      0.00
   -3  -12    3     -4.55      0.00
   -2  -12    3     -3.20      0.00
   -1  -12    3      3.84      0.00
    0  -12    3     -4.66      0.00
    1  -12    3     -2.42      0.00
    2  -12    3      4.57      0.00
    3  -12    3      1.27      0.00
    4  -12    3      3.53      0.00
    5  -12    3      3.30      0.00
    6  -12    3     -1.97      0.00
    7  -12    3     -2.35      0.00
    8  -12    3     -1.10      0.00
    9  -12    3     -1.63      0.00
   10  -12    3      1.41      0.00
   11  -12    3     -0.60      0.00
   12  -12    3      1.70      0.00
   13  -12    3      2.21      0.00
   -9  -11    3     -0.05      0.00
   -8  -11    3      4.43      0.00
   -7  -11    3     -1.30      0.00
   -6  -11    3      2.34      0.00
   -5  -11    3     -1.57      0.00
   -4  -11    3      0.92      0.00
   -3  -11    3      4.65      0.00
   -2  -11    3      6.72      0.00
   -1  -11    3      2.49      0.00
    0  -11    3      0.57      0.00
    1  -11    3     -2.19      0.00
    2  -11    3     -5.49      0.00
    3  -11    3    -11.51      0.00
    4  -11    3      2.20      0.00
    5  -11    3     -5.78      0.00
    6  -11    3     -6.73      0.00
    7  -11    3     -2.00      0.00
    8  -11    3     -3.47      0.00
    9  -11    3      0.36      0.00
   10  -11    3      3.26      0.00
   11  -11    3      2.17      0.00
   12  -11    3      2.62      0.00
   13  -11    3      1.94      0.00
  -10  -10    3     -0.13      0.00
   -9  -10    3      1.02      0.00
   -8  -10    3     -1.81      0.00
   -7  -10    3      1.51      0.00
   -6  -10    3     -2.62      0.00
   -5  -10    3     -1.22      0.00
   -4  -10    3      1.45      0.00
   -3  -10    3     -4.33      0.00
   -2  -10    3     -1.85      0.00
   -1  -10    3     -6.57      0.00
    0  -10    3     -8.60      0.00
    1  -10    3     -4.34      0.00
    2  -10    3     -0.48      0.00
    3  -10    3      7.44      0.00
    4  -10    3      6.23      0.00
    5  -10    3      2.29      0.00
    6  -10    3      6.50      0.00
    7  -10    3      1.11      0.00
    8  -10    3      1.45      0.00
    9  -10    3     -1.64      0.00
   10  -10    3      1.64      0.00
   11  -10    3     -1.96      0.00
   12  -10    3      1.36      0.00
   13  -10    3      1.19      0.00
   14  -10    3      2.92      0.00
  -11   -9    3     -3.15      0.00
  -10   -9    3      2.36      0.00
   -9   -9    3     -1.18      0.00
   -8   -9    3      1.73      0.00
   -7   -9    3     -0.65      0.00
   -6   -9    3      0.26      0.00
   -5   -9    3      0.71      0.00
   -4   -9    3     -4.16      0.00
   -3   -9    3      3.48      0.00
   -2   -9    3      6.48      0.00
   -1   -9    3      7.00      0.00
    0   -9    3      5.82      0.00
    1   -9    3     13.09      0.00
    2   -9    3      3.65      0.00
    3   -9    3     -2.48      0.00
    4   -9    3     -3.15      0.00
    5   -9    3      3.28      0.00
    6   -9    3      0.41      0.00
    7   -9    3     -5.01      0.00
    8   -9    3     -4.55      0.00
    9   -9    3      0.43      0.00
   10   -9    3      1.56      0.00
   11   -9    3      1.28      0.00
   12   -9    3      1.97      0.00
   13   -9    3      0.23      0.00
   14   -9    3     -0.60      0.00
  -12   -8    3      0.37      0.00
  -11   -8    3      3.83      0.00
  -10   -8    3      0.29      0.00
   -9   -8    3      1.90      0.00
   -8   -8    3     -0.32      0.00
   -7   -8    3     -0.74      0.00
   -6   -8    3     -2.49      0.00
   -5   -8    3      0.77      0.00
   -4   -8    3      7.33      0.00
   -3   -8    3      8.64      0.00
   -2   -8    3      4.78      0.00
   -1   -8    3     -2.71      0.00
    0   -8    3      1.95      0.00
    1   -8    3    -10.19      0.00
    2   -8    3    -20.58      0.00
    3   -8    3      4.32      0.00
    4   -8    3      9.78      0.00
    5   -8    3      4.08      0.00
    6   -8    3      0.20      0.00
    7   -8    3      0.20      0.00
    8   -8    3     -1.33      0.00
    9   -8    3      0.15      0.00
   10   -8    3     -3.11      0.00
   11   -8    3     -4.86      0.00
   12   -8    3     -2.21      0.00
   13   -8    3     -2.27      0.00
   14   -8    3     -0.55      0.00
  -12   -7    3     -2.24      0.00
  -11   -7    3      0.81      0.00
  -10   -7    3      1.80      0.00
   -9   -7    3      4.92      0.00
   -8   -7    3      1.26      0.00
   -7   -7    3     -1.48      0.00
   -6   -7    3      1.91      0.00
   -5   -7    3     -5.44      0.00
   -4   -7    3    -13.56      0.00
   -3   -7    3     -9.80      0.00
   -2   -7    3    -22.58      0.00
   -1   -7    3    -11.66      0.00
    0   -7    3     -5.82      0.00
    1   -7    3    -13.22      0.00
    2   -7    3     23.47      0.00
    3   -7    3      0.35      0.00
    4   -7    3      3.20      0.00
    5   -7    3      7.80      0.00
    6   -7    3     -2.28      0.00
    7   -7    3     -2.53      0.00
    8   -7    3      0.26      0.00
    9   -7    3     -0.69      0.00
   10   -7    3     -3.54      0.00
   11   -7    3      1.26      0.00
   12   -7    3      0.17      0.00
   13   -7    3      0.53      0.00
   14   -7    3      0.68      0.00
  -13   -6    3      5.21      0.00
  -12   -6    3      2.01      0.00
  -11   -6    3      1.30      0.00
  -10   -6    3      5.23      0.00
   -9   -6    3      0.29      0.00
   -8   -6    3     -1.67      0.00
   -7   -6    3      0.24      0.00
   -6   -6    3     -6.99      0.00
   -5   -6    3     -8.24      0.00
   -4   -6    3     11.41      0.00
   -3   -6    3      1.75      0.00
   -2   -6    3     10.98      0.00
   -1   -6    3     40.29      0.00
    0   -6    3    -13.20      0.00
    1   -6    3     14.32      0.00
    2   -6    3    -20.94      0.00
    3   -6    3     -0.17      0.00
    4   -6    3     -4.07      0.00
    5   -6    3     -3.09      0.00
    6   -6    3      0.50      0.00
    7   -6    3     11.52      0.00
    8   -6    3      0.31      0.00
    9   -6    3     -3.71      0.00
   10   -6    3      1.71      0.00
   11   -6    3      3.34      0.00
   12   -6    3      0.78      0.00
   13   -6    3      2.49      0.00
   14   -6    3     -0.31      0.00
  -13   -5    3     -2.26      0.00
  -12   -5    3     -0.31      0.00
  -11   -5    3     -0.51      0.00
  -10   -5    3     -1.04      0.00
   -9   -5    3     -2.06      0.00
   -8   -5    3      3.61      0.00
   -7   -5    3     -4.67      0.00
   -6   -5    3     -5.88      0.00
   -5   -5    3     11.03      0.00
   -4   -5    3      4.07      0.00
   -3   -5    3     -5.65      0.00
   -2   -5    3     14.63      0.00
   -1   -5    3    -41.53      0.00
    0   -5    3     19.27      0.00
    1   -5    3     25.98      0.00
    2   -5    3     -9.55      0.00
    3   -5    3    -28.91      0.00
    4   -5    3      7.39      0.00
    5   -5    3     -2.34      0.00
    6   -5    3     12.00      0.00
    7   -5    3      8.22      0.00
    8   -5    3     -0.69      0.00
    9   -5    3      0.38      0.00
   10   -5    3      1.09      0.00
   11   -5    3     -0.06      0.00
   12   -5    3      1.21      0.00
   13   -5    3     -2.88      0.00
   14   -5    3     -4.43      0.00
  -14   -4    3     -3.67      0.00
  -13   -4    3     -5.12      0.00
  -12   -4    3     -7.07      0.00
  -11   -4    3     -1.75      0.00
  -10   -4    3     -4.64      0.00
   -9   -4    3      2.23      0.00
   -8   -4    3     -2.21      0.00
   -7   -4    3     -1.93      0.00
   -6   -4    3      8.23      0.00
   -5   -4    3      9.33      0.00
   -4   -4    3     -5.08      0.00
   -3   -4    3      5.16      0.00
   -2   -4    3      6.50      0.00
   -1   -4    3     40.82      0.00
    0   -4    3      7.40      0.00
    1   -4    3    -75.67      0.00
    2   -4    3    -63.99      0.00
    3   -4    3      3.13      0.00
    4   -4    3    -12.22      0.00
    5   -4    3      3.02      0.00
    6   -4    3      3.52      0.00
    7   -4    3    -14.76      0.00
    8   -4    3     -9.43      0.00
    9   -4    3     -0.98      0.00
   10   -4    3     -7.00      0.00
   11   -4    3     -1.43      0.00
   12   -4    3      0.83      0.00
   13   -4    3     -0.56      0.00
   14   -4    3      3.12      0.00
  -14   -3    3     -4.01      0.00
  -13   -3    3      0.91      0.00
  -12   -3    3      6.34      0.00
  -11   -3    3      1.54      0.00
  -10   -3    3      5.50      0.00
   -9   -3    3      4.40      0.00
   -8   -3    3      1.09      0.00
   -7   -3    3      2.64      0.00
   -6   -3    3     -3.98      0.00
   -5   -3    3    -12.04      0.00
   -4   -3    3     -4.03      0.00
   -3   -3    3     24.80      0.00
   -2   -3    3     51.10      0.00
   -1   -3    3     15.19      0.00
    0   -3    3     38.08      0.00
    1   -3    3     52.30      0.00
    2   -3    3     27.48      0.00
    3   -3    3     44.38      0.00
    4   -3    3     13.81      0.00
    5   -3    3     -1.78      0.00
    6   -3    3    -10.96      0.00
    7   -3    3      2.71      0.00
    8   -3    3      8.61      0.00
    9   -3    3     -2.76      0.00
   10   -3    3      7.60      0.00
   11   -3    3      5.55      0.00
   12   -3    3      2.27      0.00
   13   -3    3      2.83      0.00
   14   -3    3      2.93      0.00
  -14   -2    3      1.39      0.00
  -13   -2    3     -2.55      0.00
  -12   -2    3     -1.55      0.00
  -11   -2    3     -3.56      0.00
  -10   -2    3     -7.41      0.00
   -9   -2    3     -8.26      0.00
   -8   -2    3     -9.21      0.00
   -7   -2    3    -13.85      0.00
   -6   -2    3      4.04      0.00
   -5   -2    3      4.98      0.00
   -4   -2    3     31.42      0.00
   -3   -2    3     60.91      0.00
   -2   -2    3      2.53      0.00
   -1   -2    3      1.91      0.00
    0   -2    3      4.59      0.00
    1   -2    3    -70.47      0.00
    2   -2    3     29.46      0.00
    3   -2    3    -42.51      0.00
    4   -2    3    -22.30      0.00
    5   -2    3     -2.91      0.00
    6   -2    3      5.18      0.00
    7   -2    3      5.86      0.00
    8   -2    3     -0.59      0.00
    9   -2    3      4.96      0.00
   10   -2    3      2.25      0.00
   11   -2    3      2.66      0.00
   12   -2    3      5.13      0.00
   13   -2    3     -3.61      0.00
  -15   -1    3      0.65      0.00
  -14   -1    3     -3.77      0.00
  -13   -1    3      2.27      0.00
  -12   -1    3     -3.20      0.00
  -11   -1    3      1.28      0.00
  -10   -1    3      4.47      0.00
   -9   -1    3      5.41      0.00
   -8   -1    3      3.44      0.00
   -7   -1    3     27.92      0.00
   -6   -1    3     21.05      0.00
   -5   -1    3     26.14      0.00
   -4   -1    3     39.22      0.00
   -3   -1    3    -46.36      0.00
   -2   -1    3    -77.29      0.00
   -1   -1    3      9.25      0.00
    0   -1    3    -29.69      0.00
    1   -1    3     20.76      0.00
    2   -1    3    -14.48      0.00
    3   -1    3     18.16      0.00
    4   -1    3     12.76      0.00
    5   -1    3     15.94      0.00
    6   -1    3      9.64      0.00
    7   -1    3      3.44      0.00
    8   -1    3     -3.58      0.00
    9   -1    3     -2.43      0.00
   10   -1    3     -4.54      0.00
   11   -1    3     -2.77      0.00
   12   -1    3     -5.96      0.00
   13   -1    3      2.31      0.00
  -15    0    3      0.01      0.00
  -14    0    3      5.35      0.00
  -13    0    3      1.64      0.00
  -12    0    3      5.37      0.00
  -11    0    3      2.68      0.00
  -10    0    3      3.82      0.00
   -9    0    3      1.86      0.00
   -8    0    3     13.32      0.00
   -7    0    3     14.59      0.00
   -6    0    3      2.85      0.00
   -5    0    3     10.68      0.00
   -4    0    3    -50.05      0.00
   -3    0    3    -51.54      0.00
   -2    0    3     25.06      0.00
   -1    0    3    -24.74      0.00
    0    0    3    -22.59      0.00
    1    0    3     18.55      0.00
    2    0    3     16.37      0.00
    3    0    3     -3.83      0.00
    4    0    3     18.65      0.00
    5    0    3     -7.64      0.00
    6    0    3    -16.28      0.00
    7    0    3    -12.01      0.00
    8    0    3     -1.53      0.00
    9    0    3     -2.55      0.00
   10    0    3     -1.24      0.00
   11    0    3      3.76      0.00
   12    0    3      0.26      0.00
   13    0    3      1.12      0.00
  -15    1    3      2.68      0.00
  -14    1    3     -0.42      0.00
  -13    1    3     -0.89      0.00
  -12    1    3     -2.00      0.00
  -11    1    3     -2.86      0.00
  -10    1    3     -0.54      0.00
   -9    1    3     -1.32      0.00
   -8    1    3      5.09      0.00
   -7    1    3     -2.57      0.00
   -6    1    3      0.76      0.00
   -5    1    3     -9.47      0.00
   -4    1    3     -0.80      0.00
   -3    1    3     11.22      0.00
   -2    1    3    -12.70      0.00
   -1    1    3    -14.19      0.00
    0    1    3      0.38      0.00
    1    1    3      4.27      0.00
    2    1    3      1.95      0.00
    3    1    3     22.99      0.00
    4    1    3    -10.81      0.00
    5    1    3     -9.64      0.00
    6    1    3      8.82      0.00
    7    1    3      5.64      0.00
    8    1    3      3.37      0.00
    9    1    3      2.63      0.00
   10    1    3      3.57      0.00
   11    1    3     -2.53      0.00
   12    1    3      3.81      0.00
  -15    2    3      2.14      0.00
  -14    2    3     -0.77      0.00
  -13    2    3      2.09      0.00
  -12    2    3     -2.69      0.00
  -11    2    3     -2.23      0.00
  -10    2    3     -1.89      0.00
   -9    2    3     -3.45      0.00
   -8    2    3     -4.89      0.00
   -7    2    3    -10.76      0.00
   -6    2    3     -0.68      0.00
   -5    2    3      5.08      0.00
   -4    2    3    -10.90      0.00
   -3    2    3      3.62      0.00
   -2    2    3    -23.54      0.00
   -1    2    3    -19.02      0.00
    0    2    3     42.43      0.00
    1    2    3      9.28      0.00
    2    2    3     12.26      0.00
    3    2    3     -1.66      0.00
    4    2    3     -2.94      0.00
    5    2    3     10.59      0.00
    6    2    3     -0.34      0.00
    7    2    3     -0.59      0.00
    8    2    3      0.58      0.00
    9    2    3     -2.44      0.00
   10    2    3     -5.08      0.00
   11    2    3     -3.48      0.00
   12    2    3     -4.34      0.00
  -15    3    3     -2.01      0.00
  -14    3    3      1.42      0.00
  -13    3    3     -2.71      0.00
  -12    3    3      0.16      0.00
  -11    3    3      3.60      0.00
  -10    3    3     -0.21      0.00
   -9    3    3      6.74      0.00
   -8    3    3     -1.78      0.00
   -7    3    3     -0.23      0.00
   -6    3    3     11.23      0.00
   -5    3    3     -8.99      0.00
   -4    3    3      1.35      0.00
   -3    3    3    -23.03      0.00
   -2    3    3    -21.01      0.00
   -1    3    3     23.65      0.00
    0    3    3    -37.74      0.00
    1    3    3     -1.14      0.00
    2    3    3     11.51      0.00
    3    3    3     -0.90      0.00
    4    3    3     13.16      0.00
    5    3    3      2.67      0.00
    6    3    3     -3.23      0.00
    7    3    3     -3.40      0.00
    8    3    3     -1.86      0.00
    9    3    3      0.90      0.00
   10    3    3     -3.18      0.00
   11    3    3     -0.64      0.00
   12    3    3     -1.52      0.00
  -15    4    3     -3.14      0.00
  -14    4    3     -1.96      0.00
  -13    4    3     -0.51      0.00
  -12    4    3     -0.85      0.00
  -11    4    3     -1.90      0.00
  -10    4    3      5.10      0.00
   -9    4    3     -3.67      0.00
   -8    4    3     -8.40      0.00
   -7    4    3      7.44      0.00
   -6    4    3    -11.58      0.00
   -5    4    3     -7.20      0.00
   -4    4    3      0.06      0.00
   -3    4    3     -6.29      0.00
   -2    4    3     22.07      0.00
   -1    4    3      9.29      0.00
    0    4    3     45.61      0.00
    1    4    3     26.56      0.00
    2    4    3      0.90      0.00
    3    4    3     -0.30      0.00
    4    4    3    -10.16      0.00
    5    4    3    -10.29      0.00
    6    4    3     -1.47      0.00
    7    4    3     -0.83      0.00
    8    4    3      4.41      0.00
    9    4    3      1.14      0.00
   10    4    3      2.24      0.00
   11    4    3     -1.56      0.00
  -15    5    3      3.58      0.00
  -14    5    3     -2.20      0.00
  -13    5    3     -1.94      0.00
  -12    5    3     -0.75      0.00
  -11    5    3      1.56      0.00
  -10    5    3      1.44      0.00
   -9    5    3     -5.29      0.00
   -8    5    3      7.82      0.00
   -7    5    3      1.32      0.00
   -6    5    3      5.00      0.00
   -5    5    3      6.11      0.00
   -4    5    3     -8.08      0.00
   -3    5    3      4.97      0.00
   -2    5    3     -4.69      0.00
   -1    5    3    -14.13      0.00
    0    5    3    -25.66      0.00
    1    5    3    -15.55      0.00
    2    5    3     -6.51      0.00
    3    5    3     -3.83      0.00
    4    5    3      6.63      0.00
    5    5    3     10.99      0.00
    6    5    3      2.59      0.00
    7    5    3      5.09      0.00
    8    5    3      3.52      0.00
    9    5    3     -1.70      0.00
   10    5    3     -2.07      0.00
  -15    6    3     -4.06      0.00
  -14    6    3     -2.09      0.00
  -13    6    3     -1.42      0.00
  -12    6    3     -4.36      0.00
  -11    6    3      0.73      0.00
  -10    6    3     -8.58      0.00
   -9    6    3     -0.83      0.00
   -8    6    3      1.10      0.00
   -7    6    3      0.79      0.00
   -6    6    3     -5.85      0.00
   -5    6    3      1.01      0.00
   -4    6    3      4.91      0.00
   -3    6    3    -14.76      0.00
   -2    6    3     -0.79      0.00
   -1    6    3     12.88      0.00
    0    6    3     14.57      0.00
    1    6    3     15.03      0.00
    2    6    3     -0.66      0.00
    3    6    3      4.04      0.00
    4    6    3     -5.32      0.00
    5    6    3     -4.92      0.00
    6    6    3     -1.19      0.00
    7    6    3     -0.95      0.00
    8    6    3      0.71      0.00
    9    6    3     -1.10      0.00
   10    6    3     -0.41      0.00
  -15    7    3      1.43      0.00
  -14    7    3      2.68      0.00
  -13    7    3      0.45      0.00
  -12    7    3     -0.15      0.00
  -11    7    3     -3.95      0.00
  -10    7    3      0.12      0.00
   -9    7    3     -0.61      0.00
   -8    7    3     -2.87      0.00
   -7    7    3     -2.65      0.00
   -6    7    3      3.65      0.00
   -5    7    3      6.15      0.00
   -4    7    3     -6.03      0.00
   -3    7    3     15.73      0.00
   -2    7    3      6.02      0.00
   -1    7    3     -9.67      0.00
    0    7    3      3.71      0.00
    1    7    3    -12.26      0.00
    2    7    3     -5.27      0.00
    3    7    3     -4.21      0.00
    4    7    3      2.25      0.00
    5    7    3      2.49      0.00
    6    7    3      1.73      0.00
    7    7    3      0.79      0.00
    8    7    3      1.57      0.00
    9    7    3     -0.01      0.00
  -15    8    3      1.50      0.00
  -14    8    3      2.25      0.00
  -13    8    3     -6.30      0.00
  -12    8    3     -1.74      0.00
  -11    8    3      2.19      0.00
  -10    8    3     -2.19      0.00
   -9    8    3      2.86      0.00
   -8    8    3      3.64      0.00
   -7    8    3      0.42      0.00
   -6    8    3      7.62      0.00
   -5    8    3     -3.30      0.00
   -4    8    3     -2.41      0.00
   -3    8    3     -9.20      0.00
   -2    8    3    -11.05      0.00
   -1    8    3      5.23      0.00
    0    8    3     -8.16      0.00
    1    8    3     -1.05      0.00
    2    8    3      4.41      0.00
    3    8    3     -5.12      0.00
    4    8    3     -0.70      0.00
    5    8    3      2.63      0.00
    6    8    3     -1.68      0.00
    7    8    3      0.48      0.00
    8    8    3      0.48      0.00
  -15    9    3      3.20      0.00
  -14    9    3     -5.26      0.00
  -13    9    3     -0.05      0.00
  -12    9    3     -0.01      0.00
  -11    9    3     -2.97      0.00
  -10    9    3     -1.25      0.00
   -9    9    3     -1.46      0.00
   -8    9    3     -0.70      0.00
   -7    9    3      2.33      0.00
   -6    9    3     -2.44      0.00
   -5    9    3     -5.31      0.00
   -4    9    3      2.68      0.00
   -3    9    3     -0.96      0.00
   -2    9    3      5.14      0.00
   -1    9    3      3.28      0.00
    0    9    3      2.34      0.00
    1    9    3      3.25      0.00
    2    9    3     -4.21      0.00
    3    9    3      4.98      0.00
    4    9    3      3.24      0.00
    5    9    3      0.77      0.00
    6    9    3     -2.20      0.00
    7    9    3      5.50      0.00
    8    9    3      2.06      0.00
  -14   10    3     -1.21      0.00
  -13   10    3     -0.52      0.00
  -12   10    3      0.65      0.00
  -11   10    3     -0.21      0.00
  -10   10    3      3.75      0.00
   -9   10    3      2.41      0.00
   -8   10    3      3.49      0.00
   -7   10    3      2.52      0.00
   -6   10    3     -1.04      0.00
   -5   10    3      3.07      0.00
   -4   10    3     -2.16      0.00
   -3   10    3     -1.08      0.00
   -2   10    3      0.63      0.00
   -1   10    3     -5.18      0.00
    0   10    3      0.08      0.00
    1   10    3      1.31      0.00
    2   10    3     -1.55      0.00
    3   10    3      0.24      0.00
    4   10    3      0.45      0.00
    5   10    3     -0.58      0.00
    6   10    3      1.20      0.00
    7   10    3      2.89      0.00
  -14   11    3     -0.65      0.00
  -13   11    3     -2.11      0.00
  -12   11    3      0.08      0.00
  -11   11    3     -1.91      0.00
  -10   11    3     -5.96      0.00
   -9   11    3     -1.57      0.00
   -8   11    3     -2.39      0.00
   -7   11    3     -2.13      0.00
   -6   11    3     -0.90      0.00
   -5   11    3      0.14      0.00
   -4   11    3     -2.46      0.00
   -3   11    3     -1.11      0.00
   -2   11    3      2.31      0.00
   -1   11    3      2.44      0.00
    0   11    3      3.01      0.00
    1   11    3     -1.51      0.00
    2   11    3      1.80      0.00
    3   11    3      0.78      0.00
    4   11    3     -0.94      0.00
    5   11    3     -3.83      0.00
    6   11    3     -3.05      0.00
  -13   12    3      0.53      0.00
  -12   12    3     -1.89      0.00
  -11   12    3     -5.81      0.00
  -10   12    3     -1.94      0.00
   -9   12    3     -1.88      0.00
   -8   12    3      1.00      0.00
   -7   12    3     -1.69      0.00
   -6   12    3     -0.44      0.00
   -5   12    3     -4.31      0.00
   -4   12    3     -3.42      0.00
   -3   12    3      2.06      0.00
   -2   12    3     -1.11      0.00
   -1   12    3      3.05      0.00
    0   12    3      4.19      0.00
    1   12    3      0.47      0.00
    2   12    3      4.88      0.00
    3   12    3     -1.30      0.00
    4   12    3      1.64      0.00
    5   12    3     -3.70      0.00
  -12   13    3      0.24      0.00
  -11   13    3      0.82      0.00
  -10   13    3     -0.89      0.00
   -9   13    3      1.28      0.00
   -8   13    3     -3.89      0.00
   -7   13    3      2.60      0.00
   -6   13    3     -0.01      0.00
   -5   13    3     -3.64      0.00
   -4   13    3     -1.86      0.00
   -3   13    3     -1.85      0.00
   -2   13    3     -3.54      0.00
   -1   13    3     -0.87      0.00
    0   13    3     -2.50      0.00
    1   13    3      1.81      0.00
    2   13    3     -3.06      0.00
    3   13    3      1.70      0.00
  -11   14    3     -5.74      0.00
  -10   14    3     -4.05      0.00
   -9   14    3     -5.80      0.00
   -8   14    3      3.89      0.00
   -7   14    3      0.97      0.00
   -6   14    3     -0.67      0.00
   -5   14    3      1.38      0.00
   -4   14    3     -0.99      0.00
   -3   14    3      0.19      0.00
   -2   14    3     -2.37      0.00
   -1   14    3     -2.36      0.00
    0   14    3      3.15      0.00
    1   14    3      1.43      0.00
    2   14    3      6.17      0.00
  -10   15    3     -4.06      0.00
   -9   15    3     -1.63      0.00
   -8   15    3     -1.97      0.00
   -7   15    3     -1.52      0.00
   -6   15    3      0.04      0.00
   -5   15    3    -11.06      0.00
   -4   15    3     -0.51      0.00
   -3   15    3     -4.08      0.00
   -2   15    3     -0.36      0.00
   -1   15    3      6.43      0.00
    0   15    3      0.84      0.00
   -8   16    3     -1.29      0.00
   -7   16    3      1.66      0.00
   -6   16    3     -9.05      0.00
   -5   16    3     -1.66      0.00
   -4   16    3      0.14      0.00
   -3   16    3     -1.27      0.00
    3  -19    4     -2.09      0.00
    4  -19    4      2.21      0.00
    5  -19    4     -0.74      0.00
   -1  -18    4      6.37      0.00
    0  -18    4      1.76      0.00
    1  -18    4     -0.70      0.00
    2  -18    4     -0.93      0.00
    3  -18    4      0.85      0.00
    4  -18    4     -4.49      0.00
    5  -18    4     -5.20      0.00
    6  -18    4     -0.95      0.00
    7  -18    4     -0.75      0.00
    8  -18    4     -4.27      0.00
   -3  -17    4     -2.91      0.00
   -2  -17    4      1.98      0.00
   -1  -17    4     -0.47      0.00
    0  -17    4     -1.80      0.00
    1  -17    4      3.75      0.00
    2  -17    4      0.54      0.00
    3  -17    4     -2.59      0.00
    4  -17    4      0.88      0.00
    5  -17    4      1.21      0.00
    6  -17    4      1.79      0.00
    7  -17    4     -2.82      0.00
    8  -17    4      3.85      0.00
    9  -17    4      2.88      0.00
   10  -17    4      0.60      0.00
   -5  -16    4      3.93      0.00
   -4  -16    4     -1.68      0.00
   -3  -16    4     -0.22      0.00
   -2  -16    4      4.46      0.00
   -1  -16    4      3.99      0.00
    0  -16    4      5.70      0.00
    1  -16    4      3.19      0.00
    2  -16    4      0.23      0.00
    3  -16    4      3.68      0.00
    4  -16    4      0.46      0.00
    5  -16    4     -1.02      0.00
    6  -16    4      1.32      0.00
    7  -16    4      1.62      0.00
    8  -16    4      0.10      0.00
    9  -16    4     -0.18      0.00
   10  -16    4     -2.07      0.00
   11  -16    4      4.30      0.00
   -6  -15    4      0.43      0.00
   -5  -15    4      2.33      0.00
   -4  -15    4     -0.23      0.00
   -3  -15    4      2.50      0.00
   -2  -15    4      0.26      0.00
   -1  -15    4     -1.82      0.00
    0  -15    4     -0.33      0.00
    1  -15    4     -1.62      0.00
    2  -15    4     -3.01      0.00
    3  -15    4      1.58      0.00
    4  -15    4     -3.39      0.00
    5  -15    4      3.29      0.00
    6  -15    4     -3.38      0.00
    7  -15    4     -1.48      0.00
    8  -15    4      2.17      0.00
    9  -15    4      1.94      0.00
   10  -15    4      1.32      0.00
   11  -15    4     -0.06      0.00
   12  -15    4     -1.82      0.00
   -7  -14    4     -2.84      0.00
   -6  -14    4     -1.96      0.00
   -5  -14    4     -3.37      0.00
   -4  -14    4     -1.56      0.00
   -3  -14    4     -2.47      0.00
   -2  -14    4     -5.11      0.00
   -1  -14    4     -3.20      0.00
    0  -14    4     -0.93      0.00
    1  -14    4     -4.37      0.00
    2  -14    4      4.44      0.00
    3  -14    4     -0.07      0.00
    4  -14    4      0.50      0.00
    5  -14    4      1.05      0.00
    6  -14    4      0.03      0.00
    7  -14    4      0.79      0.00
    8  -14    4      0.53      0.00
    9  -14    4      1.38      0.00
   10  -14    4     -0.91      0.00
   11  -14    4      0.07      0.00
   12  -14    4      0.06      0.00
   -8  -13    4     -0.65      0.00
   -7  -13    4     -0.94      0.00
   -6  -13    4      1.80      0.00
   -5  -13    4      2.85      0.00
   -4  -13    4      5.40      0.00
   -3  -13    4      4.83      0.00
   -2  -13    4      2.50      0.00
   -1  -13    4      1.62      0.00
    0  -13    4      2.23      0.00
    1  -13    4     -1.45      0.00
    2  -13    4      0.36      0.00
    3  -13    4     -6.48      0.00
    4  -13    4      2.12      0.00
    5  -13    4      1.92      0.00
    6  -13    4     -2.25      0.00
    7  -13    4      0.38      0.00
    8  -13    4      0.93      0.00
    9  -13    4     -2.38      0.00
   10  -13    4      2.09      0.00
   11  -13    4     -0.82      0.00
   12  -13    4     -3.02      0.00
   13  -13    4      0.40      0.00
   -9  -12    4     -2.52      0.00
   -8  -12    4      0.15      0.00
   -7  -12    4      2.00      0.00
   -6  -12    4      1.50      0.00
   -5  -12    4      2.21      0.00
   -4  -12    4      2.09      0.00
   -3  -12    4     -6.06      0.00
   -2  -12    4     -8.64      0.00
   -1  -12    4     -4.41      0.00
    0  -12    4    -10.98      0.00
    1  -12    4      0.95      0.00
    2  -12    4      0.99      0.00
    3  -12    4     -1.16      0.00
    4  -12    4      3.23      0.00
    5  -12    4     -1.80      0.00
    6  -12    4     -0.52      0.00
    7  -12    4     -0.53      0.00
    8  -12    4     -2.32      0.00
    9  -12    4     -0.63      0.00
   10  -12    4      1.81      0.00
   11  -12    4     -2.51      0.00
   12  -12    4     -0.07      0.00
   13  -12    4     -1.74      0.00
  -10  -11    4     -2.29      0.00
   -9  -11    4      3.87      0.00
   -8  -11    4      2.29      0.00
   -7  -11    4      1.32      0.00
   -6  -11    4     -0.99      0.00
   -5  -11    4      0.32      0.00
   -4  -11    4     -0.54      0.00
   -3  -11    4     -1.28      0.00
   -2  -11    4      4.00      0.00
   -1  -11    4      2.34      0.00
    0  -11    4      5.23      0.00
    1  -11    4      6.65      0.00
    2  -11    4     -5.51      0.00
    3  -11    4     -3.51      0.00
    4  -11    4      1.18      0.00
    5  -11    4     -2.85      0.00
    6  -11    4      0.38      0.00
    7  -11    4     -1.45      0.00
    8  -11    4     -0.41      0.00
    9  -11    4      6.15      0.00
   10  -11    4      1.15      0.00
   11  -11    4     -1.92      0.00
   12  -11    4     -2.41      0.00
   13  -11    4     -1.55      0.00
  -11  -10    4     -3.01      0.00
  -10  -10    4      0.18      0.00
   -9  -10    4     -2.21      0.00
   -8  -10    4     -2.29      0.00
   -7  -10    4     -1.91      0.00
   -6  -10    4      2.55      0.00
   -5  -10    4      6.87      0.00
   -4  -10    4      4.97      0.00
   -3  -10    4      5.01      0.00
   -2  -10    4      5.28      0.00
   -1  -10    4     -2.39      0.00
    0  -10    4      3.53      0.00
    1  -10    4     -5.18      0.00
    2  -10    4      1.80      0.00
    3  -10    4      4.44      0.00
    4  -10    4     -1.17      0.00
    5  -10    4     -1.91      0.00
    6  -10    4      0.22      0.00
    7  -10    4      0.52      0.00
    8  -10    4      4.97      0.00
    9  -10    4      1.33      0.00
   10  -10    4      1.27      0.00
   11  -10    4     -1.10      0.00
   12  -10    4      1.17      0.00
   13  -10    4     -1.92      0.00
  -11   -9    4      3.35      0.00
  -10   -9    4      4.40      0.00
   -9   -9    4     -0.45      0.00
   -8   -9    4     -0.06      0.00
   -7   -9    4      0.09      0.00
   -6   -9    4      1.83      0.00
   -5   -9    4     -1.68      0.00
   -4   -9    4     -4.41      0.00
   -3   -9    4     -4.36      0.00
   -2   -9    4     -8.53      0.00
   -1   -9    4     -2.70      0.00
    0   -9    4      0.11      0.00
    1   -9    4     13.08      0.00
    2   -9    4      5.57      0.00
    3   -9    4     -3.41      0.00
    4   -9    4     -5.01      0.00
    5   -9    4      3.61      0.00
    6   -9    4     -1.18      0.00
    7   -9    4      3.35      0.00
    8   -9    4      3.53      0.00
    9   -9    4      2.05      0.00
   10   -9    4      2.45      0.00
   11   -9    4     -0.62      0.00
   12   -9    4     -1.18      0.00
   13   -9    4     -0.36      0.00
   14   -9    4      0.81      0.00
  -12   -8    4     -3.49      0.00
  -11   -8    4     -0.62      0.00
  -10   -8    4     -2.83      0.00
   -9   -8    4     -0.82      0.00
   -8   -8    4      1.06      0.00
   -7   -8    4     -0.75      0.00
   -6   -8    4     -0.26      0.00
   -5   -8    4      2.35      0.00
   -4   -8    4      1.51      0.00
   -3   -8    4      8.19      0.00
   -2   -8    4      1.83      0.00
   -1   -8    4     11.06      0.00
    0   -8    4      5.52      0.00
    1   -8    4     -3.95      0.00
    2   -8    4    -12.16      0.00
    3   -8    4     -2.64      0.00
    4   -8    4     -4.42      0.00
    5   -8    4     -1.70      0.00
    6   -8    4      0.95      0.00
    7   -8    4      0.99      0.00
    8   -8    4     -5.18      0.00
    9   -8    4      3.47      0.00
   10   -8    4     -1.87      0.00
   11   -8    4      1.89      0.00
   12   -8    4      1.39      0.00
   13   -8    4     -1.66      0.00
   14   -8    4     -0.42      0.00
  -12   -7    4      1.03      0.00
  -11   -7    4     -0.90      0.00
  -10   -7    4     -2.38      0.00
   -9   -7    4      0.50      0.00
   -8   -7    4     -5.69      0.00
   -7   -7    4     -5.40      0.00
   -6   -7    4     -4.50      0.00
   -5   -7    4     -4.89      0.00
   -4   -7    4      8.46      0.00
   -3   -7    4     -7.24      0.00
   -2   -7    4     -3.93      0.00
   -1   -7    4      4.86      0.00
    0   -7    4      4.57      0.00
    1   -7    4     -2.25      0.00
    2   -7    4     -2.82      0.00
    3   -7    4    -30.98      0.00
    4   -7    4      4.02      0.00
    5   -7    4     -6.84      0.00
    6   -7    4     -5.98      0.00
    7   -7    4     -2.96      0.00
    8   -7    4      4.45      0.00
    9   -7    4      0.24      0.00
   10   -7    4      0.96      0.00
   11   -7    4      3.04      0.00
   12   -7    4     -5.44      0.00
   13   -7    4     -0.83      0.00
   14   -7    4     -1.46      0.00
  -13   -6    4      0.96      0.00
  -12   -6    4     -0.60      0.00
  -11   -6    4     -0.08      0.00
  -10   -6    4      4.65      0.00
   -9   -6    4      0.24      0.00
   -8   -6    4      3.94      0.00
   -7   -6    4      8.05      0.00
   -6   -6    4      8.63      0.00
   -5   -6    4     19.88      0.00
   -4   -6    4      2.43      0.00
   -3   -6    4     -2.33      0.00
   -2   -6    4     21.27      0.00
   -1   -6    4      8.60      0.00
    0   -6    4    -25.80      0.00
    1   -6    4     -0.61      0.00
    2   -6    4    -23.39      0.00
    3   -6    4     28.66      0.00
    4   -6    4      2.98      0.00
    5   -6    4      8.07      0.00
    6   -6    4      3.84      0.00
    7   -6    4      9.74      0.00
    8   -6    4     -2.76      0.00
    9   -6    4     -1.83      0.00
   10   -6    4      1.39      0.00
   11   -6    4     -3.60      0.00
   12   -6    4      4.29      0.00
   13   -6    4      2.59      0.00
   14   -6    4      0.02      0.00
  -13   -5    4      1.04      0.00
  -12   -5    4      0.98      0.00
  -11   -5    4      1.39      0.00
  -10   -5    4     -1.05      0.00
   -9   -5    4     -1.25      0.00
   -8   -5    4      2.90      0.00
   -7   -5    4     -9.13      0.00
   -6   -5    4     -5.22      0.00
   -5   -5    4    -17.45      0.00
   -4   -5    4    -13.46      0.00
   -3   -5    4      1.09      0.00
   -2   -5    4      2.94      0.00
   -1   -5    4    -22.20      0.00
    0   -5    4     40.12      0.00
    1   -5    4     19.67      0.00
    2   -5    4      2.39      0.00
    3   -5    4    -13.69      0.00
    4   -5    4    -14.69      0.00
    5   -5    4    -40.12      0.00
    6   -5    4     -0.77      0.00
    7   -5    4     -9.94      0.00
    8   -5    4     -5.11      0.00
    9   -5    4     -2.03      0.00
   10   -5    4     -0.32      0.00
   11   -5    4      3.11      0.00
   12   -5    4      1.81      0.00
   13   -5    4     -1.56      0.00
  -14   -4    4     -4.02      0.00
  -13   -4    4     -0.09      0.00
  -12   -4    4      3.95      0.00
  -11   -4    4      3.03      0.00
  -10   -4    4     -2.91      0.00
   -9   -4    4      5.98      0.00
   -8   -4    4     -2.22      0.00
   -7   -4    4      4.19      0.00
   -6   -4    4      2.78      0.00
   -5   -4    4     13.83      0.00
   -4   -4    4      7.70      0.00
   -3   -4    4     18.64      0.00
   -2   -4    4      3.37      0.00
   -1   -4    4     15.20      0.00
    0   -4    4     23.64      0.00
    1   -4    4    -22.22      0.00
    2   -4    4     -8.55      0.00
    3   -4    4    -13.24      0.00
    4   -4    4    -27.72      0.00
    5   -4    4     29.49      0.00
    6   -4    4      7.46      0.00
    7   -4    4      1.84      0.00
    8   -4    4      5.33      0.00
    9   -4    4      3.47      0.00
   10   -4    4     -0.31      0.00
   11   -4    4      3.13      0.00
   12   -4    4     -0.39      0.00
   13   -4    4     -3.19      0.00
  -14   -3    4      0.08      0.00
  -13   -3    4      5.02      0.00
  -12   -3    4     -1.99      0.00
  -11   -3    4     -1.38      0.00
  -10   -3    4      1.31      0.00
   -9   -3    4     -3.20      0.00
   -8   -3    4     -0.90      0.00
   -7   -3    4      1.42      0.00
   -6   -3    4     10.32      0.00
   -5   -3    4    -12.42      0.00
   -4   -3    4    -16.28      0.00
   -3   -3    4    -14.06      0.00
   -2   -3    4    -13.27      0.00
   -1   -3    4     54.00      0.00
    0   -3    4     47.02      0.00
    1   -3    4      3.21      0.00
    2   -3    4      2.00      0.00
    3   -3    4      6.76      0.00
    4   -3    4     17.80      0.00
    5   -3    4      8.27      0.00
    6   -3    4     -1.56      0.00
    7   -3    4      5.42      0.00
    8   -3    4     -4.58      0.00
    9   -3    4     -0.64      0.00
   10   -3    4      5.05      0.00
   11   -3    4     -0.54      0.00
   12   -3    4      0.53      0.00
   13   -3    4      1.99      0.00
  -14   -2    4      1.03      0.00
  -13   -2    4     -3.14      0.00
  -12   -2    4      5.56      0.00
  -11   -2    4      1.85      0.00
  -10   -2    4      5.44      0.00
   -9   -2    4     10.47      0.00
   -8   -2    4      8.02      0.00
   -7   -2    4     17.24      0.00
   -6   -2    4    -14.13      0.00
   -5   -2    4    -35.95      0.00
   -4   -2    4    -13.51      0.00
   -3   -2    4    -14.00      0.00
   -2   -2    4     30.63      0.00
   -1   -2    4     24.39      0.00
    0   -2    4    -39.42      0.00
    1   -2    4     -8.93      0.00
    2   -2    4      3.51      0.00
    3   -2    4    -11.97      0.00
    4   -2    4      8.77      0.00
    5   -2    4    -14.40      0.00
    6   -2    4     -4.09      0.00
    7   -2    4     -9.82      0.00
    8   -2    4     -2.39      0.00
    9   -2    4     -1.08      0.00
   10   -2    4     -5.06      0.00
   11   -2    4      0.74      0.00
   12   -2    4     -1.95      0.00
   13   -2    4     -3.49      0.00
  -15   -1    4     -1.16      0.00
  -14   -1    4     -2.55      0.00
  -13   -1    4      0.02      0.00
  -12   -1    4     -5.65      0.00
  -11   -1    4     -1.51      0.00
  -10   -1    4      2.26      0.00
   -9   -1    4     -5.13      0.00
   -8   -1    4      2.51      0.00
   -7   -1    4    -16.60      0.00
   -6   -1    4    -27.37      0.00
   -5   -1    4     11.38      0.00
   -4   -1    4     15.69      0.00
   -3   -1    4     21.90      0.00
   -2   -1    4     24.34      0.00
   -1   -1    4     -5.67      0.00
    0   -1    4      3.77      0.00
    1   -1    4     10.15      0.00
    2   -1    4     11.33      0.00
    3   -1    4     -3.94      0.00
    4   -1    4    -28.58      0.00
    5   -1    4      0.27      0.00
    6   -1    4     -2.85      0.00
    7   -1    4     -1.43      0.00
    8   -1    4      3.39      0.00
    9   -1    4      0.94      0.00
   10   -1    4      2.34      0.00
   11   -1    4     -0.91      0.00
   12   -1    4     -0.30      0.00
   13   -1    4      1.42      0.00
  -15    0    4     -3.01      0.00
  -14    0    4      0.80      0.00
  -13    0    4     -0.45      0.00
  -12    0    4     -0.74      0.00
  -11    0    4     -1.00      0.00
  -10    0    4     -4.86      0.00
   -9    0    4     -2.18      0.00
   -8    0    4    -10.00      0.00
   -7    0    4    -12.73      0.00
   -6    0    4      9.04      0.00
   -5    0    4     17.74      0.00
   -4    0    4      4.06      0.00
   -3    0    4     22.84      0.00
   -2    0    4      5.11      0.00
   -1    0    4      1.49      0.00
    0    0    4     16.53      0.00
    1    0    4      6.78      0.00
    2    0    4    -39.57      0.00
    3    0    4    -14.26      0.00
    4    0    4     24.62      0.00
    5    0    4      4.06      0.00
    6    0    4      6.27      0.00
    7    0    4      8.44      0.00
    8    0    4      1.88      0.00
    9    0    4      0.67      0.00
   10    0    4     -0.13      0.00
   11    0    4     -0.55      0.00
   12    0    4     -1.85      0.00
  -15    1    4      4.99      0.00
  -14    1    4     -0.31      0.00
  -13    1    4     -1.85      0.00
  -12    1    4      0.25      0.00
  -11    1    4     -1.05      0.00
  -10    1    4      1.31      0.00
   -9    1    4     -4.40      0.00
   -8    1    4     -1.55      0.00
   -7    1    4      1.94      0.00
   -6    1    4     12.71      0.00
   -5    1    4      5.54      0.00
   -4    1    4      5.95      0.00
   -3    1    4     -1.80      0.00
   -2    1    4     -3.31      0.00
   -1    1    4    -15.44      0.00
    0    1    4    -22.85      0.00
    1    1    4    -27.87      0.00
    2    1    4     11.42      0.00
    3    1    4     25.11      0.00
    4    1    4     -7.03      0.00
    5    1    4      2.69      0.00
    6    1    4     -2.82      0.00
    7    1    4     -8.30      0.00
    8    1    4      0.57      0.00
    9    1    4      1.79      0.00
   10    1    4     -2.54      0.00
   11    1    4     -2.15      0.00
   12    1    4      0.36      0.00
  -15    2    4     -7.67      0.00
  -14    2    4     -4.43      0.00
  -13    2    4      2.05      0.00
  -12    2    4     -1.55      0.00
  -11    2    4      3.09      0.00
  -10    2    4     -0.21      0.00
   -9    2    4      0.47      0.00
   -8    2    4     -2.49      0.00
   -7    2    4     -5.79      0.00
   -6    2    4      1.30      0.00
   -5    2    4     -6.58      0.00
   -4    2    4     24.92      0.00
   -3    2    4     36.54      0.00
   -2    2    4      4.31      0.00
   -1    2    4     31.46      0.00
    0    2    4     18.27      0.00
    1    2    4     -4.16      0.00
    2    2    4      6.94      0.00
    3    2    4    -26.47      0.00
    4    2    4     -8.26      0.00
    5    2    4     -6.34      0.00
    6    2    4     -3.04      0.00
    7    2    4      5.30      0.00
    8    2    4      4.68      0.00
    9    2    4      1.39      0.00
   10    2    4      0.73      0.00
   11    2    4      0.65      0.00
  -15    3    4     -0.47      0.00
  -14    3    4      0.86      0.00
  -13    3    4     -0.76      0.00
  -12    3    4      5.10      0.00
  -11    3    4     -2.17      0.00
  -10    3    4      3.17      0.00
   -9    3    4      7.06      0.00
   -8    3    4     -1.48      0.00
   -7    3    4     16.78      0.00
   -6    3    4      3.22      0.00
   -5    3    4     21.32      0.00
   -4    3    4     20.54      0.00
   -3    3    4    -19.92      0.00
   -2    3    4      1.80      0.00
   -1    3    4    -33.33      0.00
    0    3    4    -43.38      0.00
    1    3    4     12.30      0.00
    2    3    4    -17.29      0.00
    3    3    4      9.27      0.00
    4    3    4     15.41      0.00
    5    3    4      7.79      0.00
    6    3    4      5.44      0.00
    7    3    4     -0.61      0.00
    8    3    4      1.63      0.00
    9    3    4      0.47      0.00
   10    3    4      0.03      0.00
   11    3    4      1.93      0.00
  -15    4    4     -0.75      0.00
  -14    4    4      1.72      0.00
  -13    4    4      3.09      0.00
  -12    4    4     -7.62      0.00
  -11    4    4      0.92      0.00
  -10    4    4      2.25      0.00
   -9    4    4     -6.60      0.00
   -8    4    4      7.27      0.00
   -7    4    4     -6.18      0.00
   -6    4    4     -2.09      0.00
   -5    4    4     12.05      0.00
   -4    4    4    -11.02      0.00
   -3    4    4     -1.46      0.00
   -2    4    4     -2.29      0.00
   -1    4    4      9.82      0.00
    0    4    4     32.56      0.00
    1    4    4    -10.82      0.00
    2    4    4      4.57      0.00
    3    4    4     -0.05      0.00
    4    4    4     -7.83      0.00
    5    4    4      1.19      0.00
    6    4    4     -3.79      0.00
    7    4    4     -1.43      0.00
    8    4    4      1.38      0.00
    9    4    4     -0.18      0.00
   10    4    4      3.93      0.00
  -15    5    4      1.94      0.00
  -14    5    4      3.59      0.00
  -13    5    4     -3.59      0.00
  -12    5    4     -1.10      0.00
  -11    5    4      2.72      0.00
  -10    5    4     -3.77      0.00
   -9    5    4      1.07      0.00
   -8    5    4     -5.32      0.00
   -7    5    4      1.55      0.00
   -6    5    4     13.04      0.00
   -5    5    4     -0.47      0.00
   -4    5    4      5.61      0.00
   -3    5    4      9.38      0.00
   -2    5    4     -2.78      0.00
   -1    5    4     -7.42      0.00
    0    5    4    -18.36      0.00
    1    5    4     -3.33      0.00
    2    5    4     -5.13      0.00
    3    5    4     -3.08      0.00
    4    5    4      6.20      0.00
    5    5    4     -5.71      0.00
    6    5    4     -2.62      0.00
    7    5    4      0.95      0.00
    8    5    4      0.84      0.00
    9    5    4      1.26      0.00
   10    5    4      5.15      0.00
  -15    6    4      2.97      0.00
  -14    6    4      1.35      0.00
  -13    6    4      1.08      0.00
  -12    6    4      5.59      0.00
  -11    6    4      1.63      0.00
  -10    6    4     -2.26      0.00
   -9    6    4      0.25      0.00
   -8    6    4      1.94      0.00
   -7    6    4     -1.56      0.00
   -6    6    4     -3.92      0.00
   -5    6    4      4.07      0.00
   -4    6    4     -9.59      0.00
   -3    6    4    -12.96      0.00
   -2    6    4     -2.56      0.00
   -1    6    4     -6.14      0.00
    0    6    4     -2.61      0.00
    1    6    4     -0.54      0.00
    2    6    4      0.12      0.00
    3    6    4      3.11      0.00
    4    6    4     -5.71      0.00
    5    6    4      7.63      0.00
    6    6    4      1.91      0.00
    7    6    4     -1.21      0.00
    8    6    4     -0.08      0.00
    9    6    4     -3.66      0.00
  -15    7    4      1.19      0.00
  -14    7    4      0.56      0.00
  -13    7    4      4.96      0.00
  -12    7    4      3.57      0.00
  -11    7    4      3.53      0.00
  -10    7    4      5.04      0.00
   -9    7    4     -1.23      0.00
   -8    7    4     -4.95      0.00
   -7    7    4     -4.38      0.00
   -6    7    4      0.04      0.00
   -5    7    4     -6.29      0.00
   -4    7    4      3.54      0.00
   -3    7    4      8.34      0.00
   -2    7    4     -5.24      0.00
   -1    7    4      3.75      0.00
    0    7    4      2.05      0.00
    1    7    4     -3.95      0.00
    2    7    4      3.13      0.00
    3    7    4      1.67      0.00
    4    7    4      8.14      0.00
    5    7    4      0.53      0.00
    6    7    4     -5.40      0.00
    7    7    4     -4.34      0.00
    8    7    4     -5.84      0.00
    9    7    4     -5.42      0.00
  -15    8    4      2.07      0.00
  -14    8    4      2.70      0.00
  -13    8    4     -0.42      0.00
  -12    8    4      3.56      0.00
  -11    8    4      0.47      0.00
  -10    8    4     -2.61      0.00
   -9    8    4      0.44      0.00
   -8    8    4     -2.20      0.00
   -7    8    4      1.67      0.00
   -6    8    4     -0.53      0.00
   -5    8    4     -1.25      0.00
   -4    8    4      0.37      0.00
   -3    8    4     -7.68      0.00
   -2    8    4      2.38      0.00
   -1    8    4     -3.66      0.00
    0    8    4     -4.04      0.00
    1    8    4     10.05      0.00
    2    8    4     -0.19      0.00
    3    8    4     -0.54      0.00
    4    8    4      1.18      0.00
    5    8    4     -1.35      0.00
    6    8    4     -2.13      0.00
    7    8    4      1.63      0.00
    8    8    4      2.03      0.00
  -15    9    4     -2.72      0.00
  -14    9    4     -3.29      0.00
  -13    9    4      0.16      0.00
  -12    9    4      2.45      0.00
  -11    9    4     -1.33      0.00
  -10    9    4      0.18      0.00
   -9    9    4     -2.70      0.00
   -8    9    4     -0.10      0.00
   -7    9    4     -1.31      0.00
   -6    9    4      0.02      0.00
   -5    9    4      6.39      0.00
   -4    9    4      3.20      0.00
   -3    9    4      1.82      0.00
   -2    9    4      3.01      0.00
   -1    9    4     -1.01      0.00
    0    9    4      0.92      0.00
    1    9    4     -2.86      0.00
    2    9    4      2.18      0.00
    3    9    4      3.95      0.00
    4    9    4      3.36      0.00
    5    9    4      0.12      0.00
    6    9    4     -1.22      0.00
    7    9    4      7.52      0.00
  -14   10    4     -2.99      0.00
  -13   10    4      0.22      0.00
  -12   10    4     -1.01      0.00
  -11   10    4      0.83      0.00
  -10   10    4      0.76      0.00
   -9   10    4      1.39      0.00
   -8   10    4      2.12      0.00
   -7   10    4     -0.79      0.00
   -6   10    4     -1.35      0.00
   -5   10    4     -2.44      0.00
   -4   10    4     -6.53      0.00
   -3   10    4      2.59      0.00
   -2   10    4     -1.61      0.00
   -1   10    4      1.10      0.00
    0   10    4      3.84      0.00
    1   10    4     -1.33      0.00
    2   10    4     -3.90      0.00
    3   10    4      1.72      0.00
    4   10    4     -0.24      0.00
    5   10    4     -3.53      0.00
    6   10    4      2.01      0.00
  -14   11    4      0.45      0.00
  -13   11    4      2.80      0.00
  -12   11    4      2.11      0.00
  -11   11    4     -1.10      0.00
  -10   11    4     -0.29      0.00
   -9   11    4     -1.73      0.00
   -8   11    4     -3.07      0.00
   -7   11    4     -1.68      0.00
   -6   11    4      0.34      0.00
   -5   11    4     -1.30      0.00
   -4   11    4      0.52      0.00
   -3   11    4      2.73      0.00
   -2   11    4      1.34      0.00
   -1   11    4     -0.89      0.00
    0   11    4     -0.06      0.00
    1   11    4     -1.78      0.00
    2   11    4      4.68      0.00
    3   11    4      0.44      0.00
    4   11    4     -0.40      0.00
    5   11    4      0.60      0.00
  -13   12    4      1.75      0.00
  -12   12    4     -0.02      0.00
  -11   12    4      1.05      0.00
  -10   12    4      1.55      0.00
   -9   12    4      4.69      0.00
   -8   12    4      6.66      0.00
   -7   12    4      5.15      0.00
   -6   12    4      4.59      0.00
   -5   12    4     -0.19      0.00
   -4   12    4      3.85      0.00
   -3   12    4     -2.54      0.00
   -2   12    4     -2.80      0.00
   -1   12    4      2.22      0.00
    0   12    4      2.30      0.00
    1   12    4      3.90      0.00
    2   12    4      1.93      0.00
    3   12    4     -2.41      0.00
    4   12    4     -0.92      0.00
  -12   13    4      1.07      0.00
  -11   13    4      1.62      0.00
  -10   13    4      0.74      0.00
   -9   13    4     -0.52      0.00
   -8   13    4     -0.05      0.00
   -7   13    4      1.15      0.00
   -6   13    4     -3.06      0.00
   -5   13    4     -2.90      0.00
   -4   13    4     -1.27      0.00
   -3   13    4      2.01      0.00
   -2   13    4      5.54      0.00
   -1   13    4      4.62      0.00
    0   13    4     -2.38      0.00
    1   13    4     -3.50      0.00
    2   13    4     -4.18      0.00
  -11   14    4     -1.76      0.00
  -10   14    4     -4.76      0.00
   -9   14    4      1.26      0.00
   -8   14    4     -3.97      0.00
   -7   14    4     -1.20      0.00
   -6   14    4      0.94      0.00
   -5   14    4     -0.42      0.00
   -4   14    4      1.71      0.00
   -3   14    4      2.15      0.00
   -2   14    4     -6.99      0.00
   -1   14    4     -1.37      0.00
    0   14    4     -0.03      0.00
   -9   15    4     -3.75      0.00
   -8   15    4     -0.12      0.00
   -7   15    4      0.49      0.00
   -6   15    4     -4.13      0.00
   -5   15    4      0.18      0.00
   -4   15    4      5.68      0.00
   -3   15    4     -4.03      0.00
   -2   15    4      6.11      0.00
    1  -19    5      1.55      0.00
    2  -19    5      0.39      0.00
    3  -19    5     -2.57      0.00
    4  -19    5     -1.80      0.00
    5  -19    5     -1.83      0.00
    6  -19    5      0.08      0.00
   -2  -18    5      1.95      0.00
   -1  -18    5      5.14      0.00
    0  -18    5     -1.11      0.00
    1  -18    5      3.36      0.00
    2  -18    5     -1.64      0.00
    3  -18    5      0.73      0.00
    4  -18    5     -2.98      0.00
    5  -18    5     -0.69      0.00
    6  -18    5     -1.03      0.00
    7  -18    5      1.24      0.00
    8  -18    5     -2.91      0.00
   -4  -17    5      2.26      0.00
   -3  -17    5     -0.90      0.00
   -2  -17    5      3.42      0.00
   -1  -17    5     -2.84      0.00
    0  -17    5      3.97      0.00
    1  -17    5      0.41      0.00
    2  -17    5     -0.17      0.00
    3  -17    5      0.01      0.00
    4  -17    5      1.16      0.00
    5  -17    5      2.48      0.00
    6  -17    5      1.01      0.00
    7  -17    5     -1.42      0.00
    8  -17    5      1.18      0.00
    9  -17    5     -0.50      0.00
   10  -17    5     -7.22      0.00
   -5  -16    5      3.06      0.00
   -4  -16    5      0.27      0.00
   -3  -16    5      1.31      0.00
   -2  -16    5     -1.90      0.00
   -1  -16    5      1.84      0.00
    0  -16    5      0.85      0.00
    1  -16    5      2.14      0.00
    2  -16    5      2.25      0.00
    3  -16    5      2.85      0.00
    4  -16    5      0.09      0.00
    5  -16    5     -1.07      0.00
    6  -16    5     -0.27      0.00
    7  -16    5     -0.60      0.00
    8  -16    5      0.85      0.00
    9  -16    5     -1.50      0.00
   10  -16    5      4.56      0.00
   11  -16    5      2.18      0.00
   -6  -15    5      1.69      0.00
   -5  -15    5      0.55      0.00
   -4  -15    5     -3.13      0.00
   -3  -15    5     -1.55      0.00
   -2  -15    5     -1.29      0.00
   -1  -15    5      0.21      0.00
    0  -15    5      3.61      0.00
    1  -15    5     -1.44      0.00
    2  -15    5     -1.10      0.00
    3  -15    5     -0.34      0.00
    4  -15    5      0.87      0.00
    5  -15    5      5.69      0.00
    6  -15    5      0.48      0.00
    7  -15    5      2.74      0.00
    8  -15    5      0.58      0.00
    9  -15    5      0.58      0.00
   10  -15    5     -0.04      0.00
   11  -15    5     -0.43      0.00
   -7  -14    5      3.29      0.00
   -6  -14    5      2.26      0.00
   -5  -14    5      1.59      0.00
   -4  -14    5      4.41      0.00
   -3  -14    5      0.45      0.00
   -2  -14    5     -1.12      0.00
   -1  -14    5      3.98      0.00
    0  -14    5      0.27      0.00
    1  -14    5     -0.97      0.00
    2  -14    5      6.30      0.00
    3  -14    5     -2.51      0.00
    4  -14    5      2.51      0.00
    5  -14    5      1.11      0.00
    6  -14    5     -1.64      0.00
    7  -14    5     -0.80      0.00
    8  -14    5     -1.87      0.00
    9  -14    5      0.18      0.00
   10  -14    5      0.07      0.00
   11  -14    5      1.14      0.00
   12  -14    5      0.76      0.00
   -8  -13    5      3.73      0.00
   -7  -13    5     -1.41      0.00
   -6  -13    5      0.08      0.00
   -5  -13    5     -2.43      0.00
   -4  -13    5     -1.45      0.00
   -3  -13    5     -3.67      0.00
   -2  -13    5      3.71      0.00
   -1  -13    5     -0.14      0.00
    0  -13    5     -2.81      0.00
    1  -13    5     -2.45      0.00
    2  -13    5     -5.40      0.00
    3  -13    5     -3.27      0.00
    4  -13    5      5.93      0.00
    5  -13    5     -2.48      0.00
    6  -13    5     -3.22      0.00
    7  -13    5     -3.05      0.00
    8  -13    5     -0.93      0.00
    9  -13    5     -0.64      0.00
   10  -13    5      0.78      0.00
   11  -13    5     -1.21      0.00
   12  -13    5      1.55      0.00
   -9  -12    5      0.03      0.00
   -8  -12    5     -1.37      0.00
   -7  -12    5      0.09      0.00
   -6  -12    5     -2.08      0.00
   -5  -12    5      1.23      0.00
   -4  -12    5      1.94      0.00
   -3  -12    5      1.92      0.00
   -2  -12    5      3.81      0.00
   -1  -12    5     -0.78      0.00
    0  -12    5     -3.62      0.00
    1  -12    5      4.13      0.00
    2  -12    5     -0.78      0.00
    3  -12    5      2.61      0.00
    4  -12    5     -1.50      0.00
    5  -12    5     -4.76      0.00
    6  -12    5     -0.09      0.00
    7  -12    5     -0.03      0.00
    8  -12    5     -1.15      0.00
    9  -12    5     -2.57      0.00
   10  -12    5      1.29      0.00
   11  -12    5     -0.74      0.00
   12  -12    5      1.23      0.00
   13  -12    5     -3.14      0.00
  -10  -11    5     -4.02      0.00
   -9  -11    5     -1.93      0.00
   -8  -11    5     -3.33      0.00
   -7  -11    5     -1.60      0.00
   -6  -11    5     -0.25      0.00
   -5  -11    5      4.14      0.00
   -4  -11    5     -0.30      0.00
   -3  -11    5      4.36      0.00
   -2  -11    5      1.42      0.00
   -1  -11    5      0.73      0.00
    0  -11    5      5.55      0.00
    1  -11    5      3.31      0.00
    2  -11    5     -2.57      0.00
    3  -11    5      0.51      0.00
    4  -11    5      0.51      0.00
    5  -11    5      4.91      0.00
    6  -11    5      1.84      0.00
    7  -11    5     -3.20      0.00
    8  -11    5     -4.21      0.00
    9  -11    5      3.55      0.00
   10  -11    5      0.26      0.00
   11  -11    5      5.06      0.00
   12  -11    5      4.32      0.00
   13  -11    5      3.88      0.00
  -11  -10    5     -1.14      0.00
  -10  -10    5      2.38      0.00
   -9  -10    5      1.69      0.00
   -8  -10    5      2.32      0.00
   -7  -10    5      0.93      0.00
   -6  -10    5      3.59      0.00
   -5  -10    5      2.67      0.00
   -4  -10    5      2.70      0.00
   -3  -10    5      2.70      0.00
   -2  -10    5     -1.44      0.00
   -1  -10    5      1.53      0.00
    0  -10    5      2.11      0.00
    1  -10    5     -3.94      0.00
    2  -10    5      5.80      0.00
    3  -10    5      3.45      0.00
    4  -10    5      6.77      0.00
    5  -10    5      3.99      0.00
    6  -10    5     -5.37      0.00
    7  -10    5     -3.88      0.00
    8  -10    5      0.37      0.00
    9  -10    5     -1.28      0.00
   10  -10    5      2.26      0.00
   11  -10    5      1.27      0.00
   12  -10    5      0.95      0.00
   13  -10    5     -0.11      0.00
  -12   -9    5      0.82      0.00
  -11   -9    5      1.55      0.00
  -10   -9    5      0.53      0.00
   -9   -9    5     -2.94      0.00
   -8   -9    5     -3.94      0.00
   -7   -9    5     -7.80      0.00
   -6   -9    5     -6.79      0.00
   -5   -9    5     -4.11      0.00
   -4   -9    5     -0.89      0.00
   -3   -9    5     -2.80      0.00
   -2   -9    5     -1.46      0.00
   -1   -9    5      2.54      0.00
    0   -9    5     -0.72      0.00
    1   -9    5      0.29      0.00
    2   -9    5     -8.12      0.00
    3   -9    5     -9.26      0.00
    4   -9    5      2.81      0.00
    5   -9    5     -7.54      0.00
    6   -9    5     -7.07      0.00
    7   -9    5      1.41      0.00
    8   -9    5     -3.87      0.00
    9   -9    5      0.55      0.00
   10   -9    5     -0.50      0.00
   11   -9    5     -2.78      0.00
   12   -9    5     -1.33      0.00
   13   -9    5      0.73      0.00
  -12   -8    5     -0.26      0.00
  -11   -8    5      2.35      0.00
  -10   -8    5      0.68      0.00
   -9   -8    5     -0.55      0.00
   -8   -8    5     -2.62      0.00
   -7   -8    5     -3.53      0.00
   -6   -8    5      4.48      0.00
   -5   -8    5      2.40      0.00
   -4   -8    5      3.52      0.00
   -3   -8    5      0.48      0.00
   -2   -8    5     -0.66      0.00
   -1   -8    5     -2.48      0.00
    0   -8    5    -22.77      0.00
    1   -8    5     -6.42      0.00
    2   -8    5     -7.43      0.00
    3   -8    5     12.24      0.00
    4   -8    5     -1.04      0.00
    5   -8    5      1.90      0.00
    6   -8    5      7.78      0.00
    7   -8    5     -8.15      0.00
    8   -8    5     -2.47      0.00
    9   -8    5     -5.92      0.00
   10   -8    5     -7.05      0.00
   11   -8    5     -0.40      0.00
   12   -8    5     -0.36      0.00
   13   -8    5      0.59      0.00
  -13   -7    5      7.11      0.00
  -12   -7    5      5.76      0.00
  -11   -7    5      5.18      0.00
  -10   -7    5      5.02      0.00
   -9   -7    5      5.92      0.00
   -8   -7    5      2.75      0.00
   -7   -7    5      2.79      0.00
   -6   -7    5     -5.94      0.00
   -5   -7    5     -0.62      0.00
   -4   -7    5     -2.31      0.00
   -3   -7    5    -12.26      0.00
   -2   -7    5      2.20      0.00
   -1   -7    5     -5.59      0.00
    0   -7    5     24.67      0.00
    1   -7    5     18.91      0.00
    2   -7    5      7.41      0.00
    3   -7    5    -16.05      0.00
    4   -7    5      6.21      0.00
    5   -7    5     -2.56      0.00
    6   -7    5     -0.64      0.00
    7   -7    5      5.69      0.00
    8   -7    5     -7.72      0.00
    9   -7    5     -3.59      0.00
   10   -7    5      2.52      0.00
   11   -7    5      1.36      0.00
   12   -7    5      1.41      0.00
   13   -7    5      0.16      0.00
  -13   -6    5     -3.14      0.00
  -12   -6    5      0.62      0.00
  -11   -6    5      0.15      0.00
  -10   -6    5     -0.94      0.00
   -9   -6    5     -1.61      0.00
   -8   -6    5     -2.20      0.00
   -7   -6    5     -9.83      0.00
   -6   -6    5     -5.92      0.00
   -5   -6    5      0.42      0.00
   -4   -6    5     -9.34      0.00
   -3   -6    5      9.48      0.00
   -2   -6    5     13.34      0.00
   -1   -6    5     14.56      0.00
    0   -6    5     10.98      0.00
    1   -6    5     -4.41      0.00
    2   -6    5    -39.09      0.00
    3   -6    5      3.81      0.00
    4   -6    5     -3.21      0.00
    5   -6    5      9.18      0.00
    6   -6    5      1.62      0.00
    7   -6    5     -6.38      0.00
    8   -6    5     -3.86      0.00
    9   -6    5      5.94      0.00
   10   -6    5      0.27      0.00
   11   -6    5      3.03      0.00
   12   -6    5      2.53      0.00
   13   -6    5     -1.68      0.00
  -14   -5    5      3.98      0.00
  -13   -5    5      1.73      0.00
  -12   -5    5     -1.14      0.00
  -11   -5    5     -1.52      0.00
  -10   -5    5     -2.38      0.00
   -9   -5    5     -0.18      0.00
   -8   -5    5     -0.81      0.00
   -7   -5    5      1.34      0.00
   -6   -5    5     13.77      0.00
   -5   -5    5      3.88      0.00
   -4   -5    5     12.65      0.00
   -3   -5    5     24.76      0.00
   -2   -5    5     28.05      0.00
   -1   -5    5     12.50      0.00
    0   -5    5     11.14      0.00
    1   -5    5    -40.85      0.00
    2   -5    5     -2.65      0.00
    3   -5    5     19.64      0.00
    4   -5    5      1.38      0.00
    5   -5    5     -0.54      0.00
    6   -5    5     10.27      0.00
    7   -5    5     -3.03      0.00
    8   -5    5      8.52      0.00
    9   -5    5     -1.32      0.00
   10   -5    5      1.54      0.00
   11   -5    5     -3.43      0.00
   12   -5    5     -2.67      0.00
   13   -5    5     -4.09      0.00
  -14   -4    5     -8.03      0.00
  -13   -4    5     -2.15      0.00
  -12   -4    5      1.50      0.00
  -11   -4    5     -0.20      0.00
  -10   -4    5      0.99      0.00
   -9   -4    5      6.39      0.00
   -8   -4    5     -0.44      0.00
   -7   -4    5      0.47      0.00
   -6   -4    5    -12.21      0.00
   -5   -4    5    -17.44      0.00
   -4   -4    5     -6.31      0.00
   -3   -4    5      5.62      0.00
   -2   -4    5    -34.38      0.00
   -1   -4    5    -14.67      0.00
    0   -4    5    -25.92      0.00
    1   -4    5      4.53      0.00
    2   -4    5     44.66      0.00
    3   -4    5     -1.66      0.00
    4   -4    5      9.41      0.00
    5   -4    5     13.58      0.00
    6   -4    5     -8.47      0.00
    7   -4    5      5.89      0.00
    8   -4    5     -2.53      0.00
    9   -4    5     -1.32      0.00
   10   -4    5     -1.40      0.00
   11   -4    5      4.35      0.00
   12   -4    5      0.55      0.00
   13   -4    5      0.17      0.00
  -14   -3    5     -0.76      0.00
  -13   -3    5      0.54      0.00
  -12   -3    5     -3.22      0.00
  -11   -3    5      2.62      0.00
  -10   -3    5      5.79      0.00
   -9   -3    5      1.07      0.00
   -8   -3    5     -5.97      0.00
   -7   -3    5     -0.64      0.00
   -6   -3    5      0.06      0.00
   -5   -3    5     14.72      0.00
   -4   -3    5     32.68      0.00
   -3   -3    5    -13.66      0.00
   -2   -3    5      7.29      0.00
   -1   -3    5     15.74      0.00
    0   -3    5     17.03      0.00
    1   -3    5     25.31      0.00
    2   -3    5    -14.68      0.00
    3   -3    5    -19.33      0.00
    4   -3    5    -18.07      0.00
    5   -3    5    -10.42      0.00
    6   -3    5      0.44      0.00
    7   -3    5     -4.16      0.00
    8   -3    5     -4.63      0.00
    9   -3    5      0.37      0.00
   10   -3    5     -1.84      0.00
   11   -3    5     -1.86      0.00
   12   -3    5     -1.21      0.00
   13   -3    5     -2.13      0.00
  -15   -2    5     -2.87      0.00
  -14   -2    5      2.97      0.00
  -13   -2    5      1.80      0.00
  -12   -2    5      0.86      0.00
  -11   -2    5     -2.49      0.00
  -10   -2    5     -1.26      0.00
   -9   -2    5     -8.72      0.00
   -8   -2    5      7.32      0.00
   -7   -2    5     13.30      0.00
   -6   -2    5     21.69      0.00
   -5   -2    5     38.29      0.00
   -4   -2    5     -8.54      0.00
   -3   -2    5     -2.12      0.00
   -2   -2    5      2.60      0.00
   -1   -2    5    -10.76      0.00
    0   -2    5     -9.36      0.00
    1   -2    5    -23.23      0.00
    2   -2    5    -17.15      0.00
    3   -2    5     15.10      0.00
    4   -2    5     19.19      0.00
    5   -2    5      8.26      0.00
    6   -2    5      5.81      0.00
    7   -2    5      3.33      0.00
    8   -2    5      8.39      0.00
    9   -2    5      2.07      0.00
   10   -2    5      4.96      0.00
   11   -2    5      0.78      0.00
   12   -2    5     -1.54      0.00
  -15   -1    5      6.63      0.00
  -14   -1    5      3.48      0.00
  -13   -1    5     -2.06      0.00
  -12   -1    5     -0.29      0.00
  -11   -1    5      0.91      0.00
  -10   -1    5     -1.47      0.00
   -9   -1    5      8.16      0.00
   -8   -1    5     15.13      0.00
   -7   -1    5     14.93      0.00
   -6   -1    5     25.35      0.00
   -5   -1    5    -13.70      0.00
   -4   -1    5    -12.72      0.00
   -3   -1    5    -12.42      0.00
   -2   -1    5    -22.93      0.00
   -1   -1    5    -20.11      0.00
    0   -1    5    -21.99      0.00
    1   -1    5     22.82      0.00
    2   -1    5     43.69      0.00
    3   -1    5      5.30      0.00
    4   -1    5      3.65      0.00
    5   -1    5      0.49      0.00
    6   -1    5     -5.86      0.00
    7   -1    5     -1.07      0.00
    8   -1    5     -1.35      0.00
    9   -1    5     -0.99      0.00
   10   -1    5     -2.85      0.00
   11   -1    5      1.34      0.00
   12   -1    5      5.68      0.00
  -15    0    5      0.07      0.00
  -14    0    5      1.20      0.00
  -13    0    5      5.33      0.00
  -12    0    5     -0.34      0.00
  -11    0    5     -4.45      0.00
  -10    0    5      1.08      0.00
   -9    0    5      0.26      0.00
   -8    0    5     -2.77      0.00
   -7    0    5     -0.92      0.00
   -6    0    5    -14.89      0.00
   -5    0    5      6.12      0.00
   -4    0    5      8.53      0.00
   -3    0    5     11.38      0.00
   -2    0    5     -0.44      0.00
   -1    0    5      2.18      0.00
    0    0    5     39.61      0.00
    1    0    5     10.56      0.00
    2    0    5    -21.38      0.00
    3    0    5     -1.91      0.00
    4    0    5    -13.79      0.00
    5    0    5    -12.67      0.00
    6    0    5      3.96      0.00
    7    0    5      1.25      0.00
    8    0    5      0.95      0.00
    9    0    5      1.90      0.00
   10    0    5      1.69      0.00
   11    0    5      1.64      0.00
   12    0    5      0.57      0.00
  -15    1    5      2.84      0.00
  -14    1    5      2.97      0.00
  -13    1    5     -0.43      0.00
  -12    1    5     -1.36      0.00
  -11    1    5      3.44      0.00
  -10    1    5      1.42      0.00
   -9    1    5      2.49      0.00
   -8    1    5      1.47      0.00
   -7    1    5     -2.53      0.00
   -6    1    5     17.13      0.00
   -5    1    5     -6.09      0.00
   -4    1    5    -11.58      0.00
   -3    1    5    -24.08      0.00
   -2    1    5    -23.64      0.00
   -1    1    5     -3.76      0.00
    0    1    5    -10.91      0.00
    1    1    5     -6.36      0.00
    2    1    5     13.17      0.00
    3    1    5     -1.46      0.00
    4    1    5      4.53      0.00
    5    1    5     11.18      0.00
    6    1    5     -2.97      0.00
    7    1    5     -0.33      0.00
    8    1    5      4.12      0.00
    9    1    5      2.53      0.00
   10    1    5     -1.94      0.00
   11    1    5      1.34      0.00
  -15    2    5      0.99      0.00
  -14    2    5      1.87      0.00
  -13    2    5     -1.43      0.00
  -12    2    5     -2.31      0.00
  -11    2    5      1.01      0.00
  -10    2    5     -0.21      0.00
   -9    2    5     -2.47      0.00
   -8    2    5     -7.64      0.00
   -7    2    5      8.93      0.00
   -6    2    5    -10.69      0.00
   -5    2    5     -6.36      0.00
   -4    2    5      6.05      0.00
   -3    2    5     -5.07      0.00
   -2    2    5     25.78      0.00
   -1    2    5     32.94      0.00
    0    2    5      8.17      0.00
    1    2    5     15.44      0.00
    2    2    5      5.23      0.00
    3    2    5     -5.33      0.00
    4    2    5      0.75      0.00
    5    2    5     -6.26      0.00
    6    2    5     -1.55      0.00
    7    2    5     -2.28      0.00
    8    2    5     -0.85      0.00
    9    2    5     -4.22      0.00
   10    2    5      1.17      0.00
   11    2    5      0.80      0.00
  -15    3    5      1.28      0.00
  -14    3    5     -4.18      0.00
  -13    3    5     -4.52      0.00
  -12    3    5     -1.94      0.00
  -11    3    5     -1.82      0.00
  -10    3    5      1.87      0.00
   -9    3    5     -6.40      0.00
   -8    3    5      8.84      0.00
   -7    3    5     -0.36      0.00
   -6    3    5     -6.68      0.00
   -5    3    5      2.01      0.00
   -4    3    5    -19.64      0.00
   -3    3    5     11.52      0.00
   -2    3    5      2.42      0.00
   -1    3    5    -23.48      0.00
    0    3    5      9.29      0.00
    1    3    5      2.10      0.00
    2    3    5    -11.59      0.00
    3    3    5      9.81      0.00
    4    3    5      0.08      0.00
    5    3    5      0.93      0.00
    6    3    5     -1.74      0.00
    7    3    5      0.30      0.00
    8    3    5      1.74      0.00
    9    3    5      1.92      0.00
   10    3    5      3.19      0.00
  -15    4    5     -0.63      0.00
  -14    4    5      1.72      0.00
  -13    4    5      2.64      0.00
  -12    4    5      0.12      0.00
  -11    4    5      6.18      0.00
  -10    4    5     -8.69      0.00
   -9    4    5      5.92      0.00
   -8    4    5      0.66      0.00
   -7    4    5     -7.16      0.00
   -6    4    5      4.74      0.00
   -5    4    5     -6.93      0.00
   -4    4    5      3.51      0.00
   -3    4    5     -4.11      0.00
   -2    4    5     -2.46      0.00
   -1    4    5     19.30      0.00
    0    4    5     -0.07      0.00
    1    4    5     -3.31      0.00
    2    4    5      7.26      0.00
    3    4    5     -8.17      0.00
    4    4    5     -2.35      0.00
    5    4    5      4.77      0.00
    6    4    5      0.92      0.00
    7    4    5      3.30      0.00
    8    4    5      2.22      0.00
    9    4    5     -3.45      0.00
   10    4    5     -0.85      0.00
  -15    5    5      2.12      0.00
  -14    5    5      2.04      0.00
  -13    5    5     -1.83      0.00
  -12    5    5      5.69      0.00
  -11    5    5     -1.25      0.00
  -10    5    5      3.91      0.00
   -9    5    5     -1.19      0.00
   -8    5    5     -7.64      0.00
   -7    5    5      5.91      0.00
   -6    5    5     -6.13      0.00
   -5    5    5      1.88      0.00
   -4    5    5      3.50      0.00
   -3    5    5      2.15      0.00
   -2    5    5      5.62      0.00
   -1    5    5      0.31      0.00
    0    5    5      1.96      0.00
    1    5    5      0.08      0.00
    2    5    5     -1.68      0.00
    3    5    5      7.63      0.00
    4    5    5      9.78      0.00
    5    5    5     -1.17      0.00
    6    5    5      1.27      0.00
    7    5    5     -1.04      0.00
    8    5    5     -1.76      0.00
    9    5    5     -4.42      0.00
  -15    6    5      0.07      0.00
  -14    6    5      0.08      0.00
  -13    6    5     -0.39      0.00
  -12    6    5      0.34      0.00
  -11    6    5     -1.04      0.00
  -10    6    5     -1.22      0.00
   -9    6    5      0.53      0.00
   -8    6    5      6.68      0.00
   -7    6    5     -4.33      0.00
   -6    6    5      3.94      0.00
   -5    6    5     -3.07      0.00
   -4    6    5     -9.97      0.00
   -3    6    5     -0.88      0.00
   -2    6    5      1.61      0.00
   -1    6    5     -1.20      0.00
    0    6    5      0.03      0.00
    1    6    5      1.36      0.00
    2    6    5     -1.80      0.00
    3    6    5     -4.91      0.00
    4    6    5     -5.19      0.00
    5    6    5      0.05      0.00
    6    6    5     -3.44      0.00
    7    6    5      2.81      0.00
    8    6    5     -2.67      0.00
    9    6    5      0.08      0.00
  -15    7    5      2.96      0.00
  -14    7    5     -5.02      0.00
  -13    7    5     -1.57      0.00
  -12    7    5     -2.35      0.00
  -11    7    5     -1.31      0.00
  -10    7    5      0.98      0.00
   -9    7    5      1.73      0.00
   -8    7    5     -1.25      0.00
   -7    7    5      3.39      0.00
   -6    7    5     -0.77      0.00
   -5    7    5     -0.01      0.00
   -4    7    5      5.44      0.00
   -3    7    5     -0.71      0.00
   -2    7    5      0.69      0.00
   -1    7    5      3.00      0.00
    0    7    5     -7.69      0.00
    1    7    5     -1.70      0.00
    2    7    5      2.96      0.00
    3    7    5      5.24      0.00
    4    7    5      4.59      0.00
    5    7    5      2.35      0.00
    6    7    5      1.63      0.00
    7    7    5      1.45      0.00
    8    7    5     -1.52      0.00
  -15    8    5     -7.14      0.00
  -14    8    5     -4.81      0.00
  -13    8    5     -1.67      0.00
  -12    8    5      0.48      0.00
  -11    8    5      1.30      0.00
  -10    8    5      3.87      0.00
   -9    8    5      0.78      0.00
   -8    8    5      3.31      0.00
   -7    8    5     -0.83      0.00
   -6    8    5     -3.62      0.00
   -5    8    5      2.65      0.00
   -4    8    5     -3.79      0.00
   -3    8    5      0.56      0.00
   -2    8    5      0.86      0.00
   -1    8    5     -6.03      0.00
    0    8    5      7.04      0.00
    1    8    5      3.04      0.00
    2    8    5     -1.67      0.00
    3    8    5      1.65      0.00
    4    8    5     -2.44      0.00
    5    8    5     -2.95      0.00
    6    8    5     -0.43      0.00
    7    8    5      3.76      0.00
  -14    9    5     -1.53      0.00
  -13    9    5     -2.01      0.00
  -12    9    5     -3.85      0.00
  -11    9    5     -3.74      0.00
  -10    9    5     -1.21      0.00
   -9    9    5      1.48      0.00
   -8    9    5      0.84      0.00
   -7    9    5     -0.47      0.00
   -6    9    5      8.02      0.00
   -5    9    5      1.80      0.00
   -4    9    5     -0.78      0.00
   -3    9    5     -0.24      0.00
   -2    9    5      1.80      0.00
   -1    9    5     -0.04      0.00
    0    9    5     -4.02      0.00
    1    9    5     -2.56      0.00
    2    9    5     -2.17      0.00
    3    9    5     -5.35      0.00
    4    9    5      2.34      0.00
    5    9    5     -0.10      0.00
    6    9    5      3.04      0.00
  -14   10    5      0.37      0.00
  -13   10    5     -1.25      0.00
  -12   10    5     -0.54      0.00
  -11   10    5      0.58      0.00
  -10   10    5     -0.40      0.00
   -9   10    5      0.49      0.00
   -8   10    5     -1.80      0.00
   -7   10    5     -0.77      0.00
   -6   10    5     -1.53      0.00
   -5   10    5     -4.54      0.00
   -4   10    5     -6.05      0.00
   -3   10    5     -1.51      0.00
   -2   10    5     -4.16      0.00
   -1   10    5      3.19      0.00
    0   10    5      3.77      0.00
    1   10    5     -1.97      0.00
    2   10    5      1.03      0.00
    3   10    5      3.74      0.00
    4   10    5     -0.26      0.00
    5   10    5     -3.12      0.00
  -13   11    5      1.41      0.00
  -12   11    5     -2.63      0.00
  -11   11    5     -2.02      0.00
  -10   11    5     -0.68      0.00
   -9   11    5      1.66      0.00
   -8   11    5      1.54      0.00
   -7   11    5      4.32      0.00
   -6   11    5      1.62      0.00
   -5   11    5     -6.24      0.00
   -4   11    5      1.12      0.00
   -3   11    5      3.70      0.00
   -2   11    5      4.25      0.00
   -1   11    5      1.82      0.00
    0   11    5     -1.73      0.00
    1   11    5      0.08      0.00
    2   11    5      1.52      0.00
    3   11    5     -2.72      0.00
    4   11    5     -4.59      0.00
  -12   12    5     -2.94      0.00
  -11   12    5     -2.70      0.00
  -10   12    5      0.38      0.00
   -9   12    5     -2.12      0.00
   -8   12    5      0.16      0.00
   -7   12    5      1.20      0.00
   -6   12    5     -2.54      0.00
   -5   12    5      1.59      0.00
   -4   12    5      1.51      0.00
   -3   12    5     -4.69      0.00
   -2   12    5     -3.19      0.00
   -1   12    5     -0.90      0.00
    0   12    5      3.31      0.00
    1   12    5      2.92      0.00
    2   12    5     -0.65      0.00
    3   12    5     -0.39      0.00
  -11   13    5     -4.30      0.00
  -10   13    5    -11.26      0.00
   -9   13    5     -6.96      0.00
   -8   13    5     -4.30      0.00
   -7   13    5     -4.63      0.00
   -6   13    5     -1.08      0.00
   -5   13    5     -3.90      0.00
   -4   13    5     -2.62      0.00
   -3   13    5     -1.09      0.00
   -2   13    5      3.01      0.00
   -1   13    5     -0.06      0.00
    0   13    5     -3.42      0.00
    1   13    5      0.74      0.00
  -10   14    5      3.20      0.00
   -9   14    5      2.98      0.00
   -8   14    5     -1.05      0.00
   -7   14    5      6.41      0.00
   -6   14    5     -5.12      0.00
   -5   14    5     -3.95      0.00
   -4   14    5      0.44      0.00
   -3   14    5      0.10      0.00
   -2   14    5     -3.79      0.00
   -1   14    5      4.08      0.00
   -7   15    5     -7.58      0.00
   -6   15    5     -5.98      0.00
   -5   15    5      3.15      0.00
    0  -19    6      1.53      0.00
    1  -19    6      2.41      0.00
    2  -19    6      1.87      0.00
    3  -19    6     -0.74      0.00
    4  -19    6      2.59      0.00
    5  -19    6      2.11      0.00
    6  -19    6      3.62      0.00
   -2  -18    6      0.59      0.00
   -1  -18    6      2.77      0.00
    0  -18    6      1.80      0.00
    1  -18    6      3.05      0.00
    2  -18    6     -1.02      0.00
    3  -18    6      3.36      0.00
    4  -18    6     -2.61      0.00
    5  -18    6      0.94      0.00
    6  -18    6     -1.81      0.00
    7  -18    6      2.23      0.00
    8  -18    6      1.43      0.00
   -4  -17    6     -6.60      0.00
   -3  -17    6      1.56      0.00
   -2  -17    6      1.72      0.00
   -1  -17    6      1.52      0.00
    0  -17    6      2.12      0.00
    1  -17    6     -3.34      0.00
    2  -17    6     -1.94      0.00
    3  -17    6     -2.96      0.00
    4  -17    6      1.12      0.00
    5  -17    6      2.66      0.00
    6  -17    6      0.30      0.00
    7  -17    6      1.77      0.00
    8  -17    6      1.58      0.00
    9  -17    6     -2.81      0.00
   10  -17    6     -2.55      0.00
   -6  -16    6      3.90      0.00
   -5  -16    6     -1.16      0.00
   -4  -16    6      2.79      0.00
   -3  -16    6     -4.00      0.00
   -2  -16    6     -5.40      0.00
   -1  -16    6     -4.81      0.00
    0  -16    6     -2.17      0.00
    1  -16    6     -0.11      0.00
    2  -16    6      2.58      0.00
    3  -16    6      0.46      0.00
    4  -16    6     -1.12      0.00
    5  -16    6     -1.49      0.00
    6  -16    6      1.23      0.00
    7  -16    6      0.60      0.00
    8  -16    6      0.93      0.00
    9  -16    6      2.90      0.00
   10  -16    6      7.38      0.00
   -7  -15    6     -0.99      0.00
   -6  -15    6     -0.47      0.00
   -5  -15    6      0.38      0.00
   -4  -15    6      0.90      0.00
   -3  -15    6      1.73      0.00
   -2  -15    6      4.39      0.00
   -1  -15    6      5.31      0.00
    0  -15    6      2.78      0.00
    1  -15    6     -2.03      0.00
    2  -15    6     -2.59      0.00
    3  -15    6     -1.91      0.00
    4  -15    6      4.28      0.00
    5  -15    6      4.90      0.00
    6  -15    6      4.17      0.00
    7  -15    6      3.48      0.00
    8  -15    6      2.09      0.00
    9  -15    6      0.76      0.00
   10  -15    6      1.40      0.00
   11  -15    6     -0.68      0.00
   -8  -14    6      2.89      0.00
   -7  -14    6      1.52      0.00
   -6  -14    6      0.45      0.00
   -5  -14    6      0.71      0.00
   -4  -14    6      0.63      0.00
   -3  -14    6     -4.17      0.00
   -2  -14    6     -5.30      0.00
   -1  -14    6     -3.35      0.00
    0  -14    6     -6.30      0.00
    1  -14    6      0.70      0.00
    2  -14    6      1.79      0.00
    3  -14    6     -6.17      0.00
    4  -14    6     -1.67      0.00
    5  -14    6     -2.98      0.00
    6  -14    6     -3.75      0.00
    7  -14    6     -0.98      0.00
    8  -14    6     -3.99      0.00
    9  -14    6      0.07      0.00
   10  -14    6     -1.09      0.00
   11  -14    6     -1.33      0.00
   12  -14    6     -4.40      0.00
   -9  -13    6      3.81      0.00
   -8  -13    6      2.12      0.00
   -7  -13    6      2.07      0.00
   -6  -13    6      2.26      0.00
   -5  -13    6      1.90      0.00
   -4  -13    6     -1.17      0.00
   -3  -13    6     -2.43      0.00
   -2  -13    6      2.94      0.00
   -1  -13    6     -0.90      0.00
    0  -13    6      0.45      0.00
    1  -13    6     -1.14      0.00
    2  -13    6     -8.47      0.00
    3  -13    6     -0.35      0.00
    4  -13    6      3.29      0.00
    5  -13    6      2.10      0.00
    6  -13    6      2.64      0.00
    7  -13    6      1.61      0.00
    8  -13    6      2.55      0.00
    9  -13    6      2.54      0.00
   10  -13    6      0.10      0.00
   11  -13    6     -3.75      0.00
   12  -13    6      0.27      0.00
  -10  -12    6      1.66      0.00
   -9  -12    6      1.32      0.00
   -8  -12    6      3.05      0.00
   -7  -12    6      1.16      0.00
   -6  -12    6      0.27      0.00
   -5  -12    6      3.10      0.00
   -4  -12    6     -2.38      0.00
   -3  -12    6      1.80      0.00
   -2  -12    6      2.26      0.00
   -1  -12    6     -1.11      0.00
    0  -12    6      5.73      0.00
    1  -12    6      4.37      0.00
    2  -12    6      3.74      0.00
    3  -12    6      6.25      0.00
    4  -12    6      2.40      0.00
    5  -12    6     -0.68      0.00
    6  -12    6      0.81      0.00
    7  -12    6     -1.34      0.00
    8  -12    6      1.75      0.00
    9  -12    6      0.31      0.00
   10  -12    6      0.59      0.00
   11  -12    6      0.37      0.00
   12  -12    6      1.68      0.00
  -10  -11    6      0.14      0.00
   -9  -11    6      1.26      0.00
   -8  -11    6     -2.94      0.00
   -7  -11    6     -3.25      0.00
   -6  -11    6     -0.91      0.00
   -5  -11    6     -3.47      0.00
   -4  -11    6     -2.76      0.00
   -3  -11    6     -1.12      0.00
   -2  -11    6     -6.52      0.00
   -1  -11    6      5.49      0.00
    0  -11    6      3.87      0.00
    1  -11    6      2.62      0.00
    2  -11    6      1.41      0.00
    3  -11    6     -2.91      0.00
    4  -11    6     -1.19      0.00
    5  -11    6      2.84      0.00
    6  -11    6      0.15      0.00
    7  -11    6      3.61      0.00
    8  -11    6      3.23      0.00
    9  -11    6      1.55      0.00
   10  -11    6     -2.87      0.00
   11  -11    6      0.57      0.00
   12  -11    6     -3.75      0.00
   13  -11    6     -3.73      0.00
  -11  -10    6      1.47      0.00
  -10  -10    6      1.03      0.00
   -9  -10    6     -1.61      0.00
   -8  -10    6     -0.37      0.00
   -7  -10    6      1.34      0.00
   -6  -10    6      1.78      0.00
   -5  -10    6      0.47      0.00
   -4  -10    6     -0.49      0.00
   -3  -10    6     -3.54      0.00
   -2  -10    6     -0.01      0.00
   -1  -10    6     -2.09      0.00
    0  -10    6     -8.14      0.00
    1  -10    6     -1.63      0.00
    2  -10    6     -3.14      0.00
    3  -10    6     -5.43      0.00
    4  -10    6      6.58      0.00
    5  -10    6      1.37      0.00
    6  -10    6      3.64      0.00
    7  -10    6      6.53      0.00
    8  -10    6      0.63      0.00
    9  -10    6     -0.74      0.00
   10  -10    6      0.52      0.00
   11  -10    6     -3.46      0.00
   12  -10    6     -1.09      0.00
   13  -10    6     -1.10      0.00
  -12   -9    6      1.21      0.00
  -11   -9    6      0.87      0.00
  -10   -9    6     -0.24      0.00
   -9   -9    6      1.49      0.00
   -8   -9    6      4.38      0.00
   -7   -9    6     -2.26      0.00
   -6   -9    6     -2.38      0.00
   -5   -9    6     -3.19      0.00
   -4   -9    6     -2.66      0.00
   -3   -9    6     -6.32      0.00
   -2   -9    6     -2.54      0.00
   -1   -9    6      2.37      0.00
    0   -9    6      9.37      0.00
    1   -9    6      4.14      0.00
    2   -9    6    -11.88      0.00
    3   -9    6     -2.29      0.00
    4   -9    6      5.11      0.00
    5   -9    6     -4.29      0.00
    6   -9    6      3.58      0.00
    7   -9    6     -2.92      0.00
    8   -9    6     -4.76      0.00
    9   -9    6      2.08      0.00
   10   -9    6     -0.88      0.00
   11   -9    6     -0.78      0.00
   12   -9    6     -2.83      0.00
   13   -9    6     -3.12      0.00
  -12   -8    6      6.73      0.00
  -11   -8    6     -0.42      0.00
  -10   -8    6     -0.76      0.00
   -9   -8    6      0.82      0.00
   -8   -8    6     -3.15      0.00
   -7   -8    6     -4.97      0.00
   -6   -8    6     -3.49      0.00
   -5   -8    6     -2.34      0.00
   -4   -8    6      0.01      0.00
   -3   -8    6      2.48      0.00
   -2   -8    6     15.61      0.00
   -1   -8    6      6.53      0.00
    0   -8    6     -3.09      0.00
    1   -8    6    -10.49      0.00
    2   -8    6    -13.73      0.00
    3   -8    6      7.18      0.00
    4   -8    6     -7.66      0.00
    5   -8    6      4.11      0.00
    6   -8    6     -1.69      0.00
    7   -8    6     -1.78      0.00
    8   -8    6      9.47      0.00
    9   -8    6      1.77      0.00
   10   -8    6      5.80      0.00
   11   -8    6      2.21      0.00
   12   -8    6     -1.18      0.00
   13   -8    6      0.02      0.00
  -13   -7    6      2.43      0.00
  -12   -7    6    -10.80      0.00
  -11   -7    6     -5.90      0.00
  -10   -7    6     -3.40      0.00
   -9   -7    6     -3.70      0.00
   -8   -7    6     -2.47      0.00
   -7   -7    6      1.03      0.00
   -6   -7    6      7.27      0.00
   -5   -7    6     13.98      0.00
   -4   -7    6      7.37      0.00
   -3   -7    6     17.28      0.00
   -2   -7    6     10.38      0.00
   -1   -7    6     -7.26      0.00
    0   -7    6     -3.89      0.00
    1   -7    6     -5.08      0.00
    2   -7    6      3.87      0.00
    3   -7    6     -8.28      0.00
    4   -7    6      3.42      0.00
    5   -7    6     -2.80      0.00
    6   -7    6     12.44      0.00
    7   -7    6      8.60      0.00
    8   -7    6     -4.63      0.00
    9   -7    6      5.04      0.00
   10   -7    6     -4.74      0.00
   11   -7    6     -3.21      0.00
   12   -7    6     -0.72      0.00
   13   -7    6     -0.68      0.00
  -13   -6    6     -0.73      0.00
  -12   -6    6      5.03      0.00
  -11   -6    6      2.55      0.00
  -10   -6    6     -0.12      0.00
   -9   -6    6      7.55      0.00
   -8   -6    6      7.24      0.00
   -7   -6    6      6.75      0.00
   -6   -6    6      2.53      0.00
   -5   -6    6     -3.34      0.00
   -4   -6    6     -7.99      0.00
   -3   -6    6     -8.70      0.00
   -2   -6    6    -26.53      0.00
   -1   -6    6    -17.83      0.00
    0   -6    6     15.76      0.00
    1   -6    6     10.70      0.00
    2   -6    6     -5.25      0.00
    3   -6    6     15.70      0.00
    4   -6    6     -3.64      0.00
    5   -6    6     11.42      0.00
    6   -6    6     -3.92      0.00
    7   -6    6     -5.66      0.00
    8   -6    6      0.02      0.00
    9   -6    6     -0.51      0.00
   10   -6    6      0.86      0.00
   11   -6    6      1.80      0.00
   12   -6    6     -2.15      0.00
   13   -6    6     -2.45      0.00
  -14   -5    6      6.14      0.00
  -13   -5    6      1.04      0.00
  -12   -5    6     -1.42      0.00
  -11   -5    6      1.17      0.00
  -10   -5    6      0.63      0.00
   -9   -5    6     -1.53      0.00
   -8   -5    6     -7.11      0.00
   -7   -5    6     -7.84      0.00
   -6   -5    6     -1.43      0.00
   -5   -5    6    -16.76      0.00
   -4   -5    6    -10.09      0.00
   -3   -5    6     -6.34      0.00
   -2   -5    6      2.43      0.00
   -1   -5    6     42.50      0.00
    0   -5    6     33.91      0.00
    1   -5    6    -13.46      0.00
    2   -5    6      9.06      0.00
    3   -5    6    -20.80      0.00
    4   -5    6     -8.01      0.00
    5   -5    6      6.18      0.00
    6   -5    6      2.40      0.00
    7   -5    6     -2.70      0.00
    8   -5    6      5.43      0.00
    9   -5    6      2.84      0.00
   10   -5    6      3.79      0.00
   11   -5    6     -0.06      0.00
   12   -5    6      4.51      0.00
   13   -5    6      2.52      0.00
  -14   -4    6     -2.10      0.00
  -13   -4    6      2.47      0.00
  -12   -4    6      2.97      0.00
  -11   -4    6     -2.76      0.00
  -10   -4    6     -2.09      0.00
   -9   -4    6      0.63      0.00
   -8   -4    6      2.26      0.00
   -7   -4    6     15.23      0.00
   -6   -4    6      1.54      0.00
   -5   -4    6      1.84      0.00
   -4   -4    6     11.65      0.00
   -3   -4    6      2.58      0.00
   -2   -4    6     20.75      0.00
   -1   -4    6     17.10      0.00
    0   -4    6    -51.57      0.00
    1   -4    6    -13.65      0.00
    2   -4    6    -26.36      0.00
    3   -4    6     -8.15      0.00
    4   -4    6     10.78      0.00
    5   -4    6     -9.85      0.00
    6   -4    6     -4.98      0.00
    7   -4    6      2.11      0.00
    8   -4    6      0.62      0.00
    9   -4    6      0.22      0.00
   10   -4    6     -0.52      0.00
   11   -4    6      0.12      0.00
   12   -4    6     -1.79      0.00
  -14   -3    6      1.76      0.00
  -13   -3    6      0.20      0.00
  -12   -3    6     -3.26      0.00
  -11   -3    6     -1.53      0.00
  -10   -3    6      5.55      0.00
   -9   -3    6      1.62      0.00
   -8   -3    6     12.31      0.00
   -7   -3    6      1.26      0.00
   -6   -3    6    -13.66      0.00
   -5   -3    6     -1.50      0.00
   -4   -3    6    -14.90      0.00
   -3   -3    6     -4.04      0.00
   -2   -3    6      0.15      0.00
   -1   -3    6    -49.45      0.00
    0   -3    6      9.04      0.00
    1   -3    6     12.18      0.00
    2   -3    6     19.86      0.00
    3   -3    6      7.49      0.00
    5   -3    6      6.29      0.00
    6   -3    6     -0.80      0.00
    7   -3    6     -0.03      0.00
    8   -3    6      3.70      0.00
    9   -3    6      1.76      0.00
   10   -3    6      0.04      0.00
   11   -3    6      2.53      0.00
   12   -3    6      1.08      0.00
  -15   -2    6     -4.25      0.00
  -14   -2    6      1.50      0.00
  -13   -2    6      0.51      0.00
  -12   -2    6     -1.57      0.00
  -11   -2    6      1.80      0.00
  -10   -2    6     -1.80      0.00
   -9   -2    6      3.24      0.00
   -8   -2    6     -4.22      0.00
   -7   -2    6    -22.26      0.00
   -6   -2    6      1.55      0.00
   -5   -2    6      1.07      0.00
   -4   -2    6     14.61      0.00
   -3   -2    6     24.13      0.00
   -2   -2    6    -11.48      0.00
   -1   -2    6     21.87      0.00
    0   -2    6     12.92      0.00
    1   -2    6     -0.62      0.00
    2   -2    6     -9.71      0.00
    3   -2    6     -9.01      0.00
    4   -2    6      1.24      0.00
    5   -2    6     -3.07      0.00
    6   -2    6     -0.07      0.00
    7   -2    6      2.85      0.00
    8   -2    6     -1.62      0.00
    9   -2    6      2.09      0.00
   10   -2    6      1.30      0.00
   11   -2    6     -1.26      0.00
   12   -2    6      2.32      0.00
  -15   -1    6      4.01      0.00
  -14   -1    6      1.94      0.00
  -13   -1    6      1.44      0.00
  -12   -1    6      4.72      0.00
  -11   -1    6     -0.04      0.00
  -10   -1    6     -1.31      0.00
   -9   -1    6     -7.95      0.00
   -8   -1    6    -14.29      0.00
   -7   -1    6      2.15      0.00
   -6   -1    6     -3.81      0.00
   -5   -1    6     -7.43      0.00
   -4   -1    6     -3.18      0.00
   -3   -1    6    -26.24      0.00
   -2   -1    6     -1.80      0.00
   -1   -1    6    -15.40      0.00
    0   -1    6    -13.81      0.00
    1   -1    6      0.02      0.00
    2   -1    6    -12.37      0.00
    3   -1    6      1.77      0.00
    4   -1    6      8.05      0.00
    5   -1    6     -0.88      0.00
    6   -1    6      0.46      0.00
    7   -1    6     -1.08      0.00
    8   -1    6      4.89      0.00
    9   -1    6     -0.12      0.00
   10   -1    6     -4.75      0.00
   11   -1    6     -1.15      0.00
   12   -1    6     -5.12      0.00
  -15    0    6      0.11      0.00
  -14    0    6      1.99      0.00
  -13    0    6      3.68      0.00
  -12    0    6     -1.45      0.00
  -11    0    6     -0.23      0.00
  -10    0    6     -2.28      0.00
   -9    0    6     -4.40      0.00
   -8    0    6      4.73      0.00
   -7    0    6     -5.35      0.00
   -6    0    6      2.25      0.00
   -5    0    6     12.85      0.00
   -4    0    6     10.99      0.00
   -3    0    6     33.50      0.00
   -2    0    6      0.36      0.00
   -1    0    6      7.28      0.00
    0    0    6      4.28      0.00
    1    0    6    -18.72      0.00
    2    0    6     14.23      0.00
    3    0    6      2.56      0.00
    4    0    6     -9.09      0.00
    5    0    6     -1.92      0.00
    6    0    6      0.40      0.00
    7    0    6     -1.95      0.00
    8    0    6      0.20      0.00
    9    0    6     -2.76      0.00
   10    0    6     -2.30      0.00
   11    0    6     -4.62      0.00
  -15    1    6     -5.60      0.00
  -14    1    6     -6.13      0.00
  -13    1    6     -4.29      0.00
  -12    1    6     -1.29      0.00
  -11    1    6     -2.21      0.00
  -10    1    6     -3.35      0.00
   -9    1    6      5.59      0.00
   -8    1    6     -9.85      0.00
   -7    1    6      0.72      0.00
   -6    1    6     -6.21      0.00
   -5    1    6     -6.93      0.00
   -4    1    6     19.71      0.00
   -3    1    6    -13.53      0.00
   -2    1    6      0.49      0.00
   -1    1    6     -3.28      0.00
    0    1    6     -6.20      0.00
    1    1    6     19.64      0.00
    2    1    6     -0.36      0.00
    3    1    6      0.89      0.00
    4    1    6      4.44      0.00
    5    1    6      0.64      0.00
    6    1    6     -4.02      0.00
    7    1    6      1.47      0.00
    8    1    6      2.54      0.00
    9    1    6      0.55      0.00
   10    1    6     -1.86      0.00
   11    1    6      2.07      0.00
  -15    2    6     -4.24      0.00
  -14    2    6      0.25      0.00
  -13    2    6      0.73      0.00
  -12    2    6     -4.52      0.00
  -11    2    6     -1.51      0.00
  -10    2    6      1.96      0.00
   -9    2    6     -5.81      0.00
   -8    2    6      5.84      0.00
   -7    2    6      0.36      0.00
   -6    2    6      2.67      0.00
   -5    2    6     29.59      0.00
   -4    2    6     -8.38      0.00
   -3    2    6     -1.33      0.00
   -2    2    6      5.70      0.00
   -1    2    6    -12.76      0.00
    0    2    6     -6.22      0.00
    1    2    6    -10.18      0.00
    2    2    6     -9.77      0.00
    3    2    6     -4.67      0.00
    4    2    6      3.04      0.00
    5    2    6      6.19      0.00
    6    2    6      4.24      0.00
    7    2    6      2.73      0.00
    8    2    6      0.62      0.00
    9    2    6     -2.34      0.00
   10    2    6      4.16      0.00
  -15    3    6      1.32      0.00
  -14    3    6      4.29      0.00
  -13    3    6     -1.39      0.00
  -12    3    6      1.96      0.00
  -11    3    6      5.49      0.00
  -10    3    6     -2.08      0.00
   -9    3    6      4.60      0.00
   -8    3    6      1.80      0.00
   -7    3    6      1.23      0.00
   -6    3    6     17.16      0.00
   -5    3    6     -8.89      0.00
   -4    3    6     -1.31      0.00
   -3    3    6      7.39      0.00
   -2    3    6    -17.92      0.00
   -1    3    6      2.43      0.00
    0    3    6      2.89      0.00
    1    3    6     -4.89      0.00
    2    3    6     10.47      0.00
    3    3    6     15.03      0.00
    4    3    6      4.22      0.00
    5    3    6     -1.39      0.00
    6    3    6     -2.28      0.00
    7    3    6     -1.80      0.00
    8    3    6     -1.08      0.00
    9    3    6     -1.41      0.00
   10    3    6      1.57      0.00
  -15    4    6      2.97      0.00
  -14    4    6     -0.83      0.00
  -13    4    6     -1.60      0.00
  -12    4    6      2.11      0.00
  -11    4    6     -2.77      0.00
  -10    4    6      1.11      0.00
   -9    4    6      6.15      0.00
   -8    4    6     -1.54      0.00
   -7    4    6      7.49      0.00
   -6    4    6     -4.25      0.00
   -5    4    6     -1.27      0.00
   -4    4    6      2.75      0.00
   -3    4    6     -6.85      0.00
   -2    4    6      9.54      0.00
   -1    4    6     -2.21      0.00
    0    4    6     -8.57      0.00
    1    4    6      4.41      0.00
    2    4    6     -4.75      0.00
    3    4    6    -10.16      0.00
    4    4    6     -6.98      0.00
    5    4    6     -3.30      0.00
    6    4    6     -2.34      0.00
    7    4    6      3.45      0.00
    8    4    6      1.44      0.00
    9    4    6      0.98      0.00
  -15    5    6     -2.87      0.00
  -14    5    6     -3.80      0.00
  -13    5    6      2.70      0.00
  -12    5    6      2.60      0.00
  -11    5    6      2.32      0.00
  -10    5    6      6.08      0.00
   -9    5    6     -4.16      0.00
   -8    5    6      3.23      0.00
   -7    5    6      0.14      0.00
   -6    5    6     -3.70      0.00
   -5    5    6      6.54      0.00
   -4    5    6     -2.67      0.00
   -3    5    6     -4.07      0.00
   -2    5    6     -7.42      0.00
   -1    5    6    -11.13      0.00
    0    5    6     -8.20      0.00
    1    5    6     -4.51      0.00
    2    5    6      3.01      0.00
    3    5    6      3.14      0.00
    4    5    6      4.07      0.00
    5    5    6      4.77      0.00
    6    5    6      4.17      0.00
    7    5    6     -1.26      0.00
    8    5    6     -3.85      0.00
    9    5    6     -8.69      0.00
  -15    6    6      0.10      0.00
  -14    6    6      2.77      0.00
  -13    6    6      0.26      0.00
  -12    6    6      2.24      0.00
  -11    6    6      3.60      0.00
  -10    6    6     -0.18      0.00
   -9    6    6     -0.37      0.00
   -8    6    6     -2.81      0.00
   -7    6    6     -7.45      0.00
   -6    6    6      0.98      0.00
   -5    6    6     -3.78      0.00
   -4    6    6     -4.88      0.00
   -3    6    6      0.52      0.00
   -2    6    6     -1.27      0.00
   -1    6    6      2.01      0.00
    0    6    6     10.61      0.00
    1    6    6      6.14      0.00
    2    6    6     -0.73      0.00
    3    6    6      0.46      0.00
    4    6    6     -0.65      0.00
    5    6    6     -5.19      0.00
    6    6    6     -5.86      0.00
    7    6    6     -1.13      0.00
    8    6    6     -6.07      0.00
  -15    7    6     -0.11      0.00
  -14    7    6     -2.24      0.00
  -13    7    6      2.06      0.00
  -12    7    6      3.08      0.00
  -11    7    6      2.22      0.00
  -10    7    6     -0.85      0.00
   -9    7    6     -1.11      0.00
   -8    7    6     -1.52      0.00
   -7    7    6      2.16      0.00
   -6    7    6      4.29      0.00
   -5    7    6      2.63      0.00
   -4    7    6     -0.42      0.00
   -3    7    6     -0.05      0.00
   -2    7    6      0.42      0.00
   -1    7    6     -7.49      0.00
    0    7    6    -14.04      0.00
    1    7    6     -2.57      0.00
    2    7    6     -1.94      0.00
    3    7    6     -1.16      0.00
    4    7    6     -1.23      0.00
    5    7    6     -3.55      0.00
    6    7    6     -2.95      0.00
    7    7    6     -2.12      0.00
  -15    8    6     -3.17      0.00
  -14    8    6      0.75      0.00
  -13    8    6      3.43      0.00
  -12    8    6      0.00      0.00
  -11    8    6     -1.91      0.00
  -10    8    6     -3.01      0.00
   -9    8    6     -3.66      0.00
   -8    8    6     -0.76      0.00
   -7    8    6     -4.44      0.00
   -6    8    6     -1.62      0.00
   -5    8    6     -1.98      0.00
   -4    8    6     -0.95      0.00
   -3    8    6      2.14      0.00
   -2    8    6     -4.04      0.00
   -1    8    6      1.96      0.00
    0    8    6      8.29      0.00
    1    8    6     -0.07      0.00
    2    8    6      4.46      0.00
    3    8    6      3.73      0.00
    4    8    6     -2.24      0.00
    5    8    6      0.05      0.00
    6    8    6      3.05      0.00
  -14    9    6      1.58      0.00
  -13    9    6     -1.77      0.00
  -12    9    6     -0.64      0.00
  -11    9    6     -0.05      0.00
  -10    9    6      0.63      0.00
   -9    9    6      2.94      0.00
   -8    9    6     -2.72      0.00
   -7    9    6     -0.39      0.00
   -6    9    6     -1.83      0.00
   -5    9    6     -7.92      0.00
   -4    9    6     -3.83      0.00
   -3    9    6     -1.25      0.00
   -2    9    6      3.44      0.00
   -1    9    6     -4.60      0.00
    0    9    6     -1.85      0.00
    1    9    6      0.59      0.00
    2    9    6     -0.79      0.00
    3    9    6     -2.60      0.00
    4    9    6      1.59      0.00
    5    9    6     -3.72      0.00
  -14   10    6      3.78      0.00
  -13   10    6      3.46      0.00
  -12   10    6      1.83      0.00
  -11   10    6     -0.98      0.00
  -10   10    6      1.06      0.00
   -9   10    6     -3.11      0.00
   -8   10    6     -2.75      0.00
   -7   10    6     -1.42      0.00
   -6   10    6     -2.18      0.00
   -5   10    6     -0.24      0.00
   -4   10    6      2.20      0.00
   -3   10    6      1.13      0.00
   -2   10    6     -3.25      0.00
   -1   10    6      3.09      0.00
    0   10    6      1.34      0.00
    1   10    6      3.10      0.00
    2   10    6      1.06      0.00
    3   10    6      2.29      0.00
    4   10    6     -7.94      0.00
  -13   11    6     -0.46      0.00
  -12   11    6     -2.90      0.00
  -11   11    6     -0.29      0.00
  -10   11    6     -3.90      0.00
   -9   11    6      0.74      0.00
   -8   11    6     -0.11      0.00
   -7   11    6      0.67      0.00
   -6   11    6     -1.31      0.00
   -5   11    6     -1.47      0.00
   -4   11    6      4.74      0.00
   -3   11    6      2.06      0.00
   -2   11    6      3.51      0.00
   -1   11    6     -0.77      0.00
    0   11    6     -0.32      0.00
    1   11    6      0.79      0.00
    2   11    6      3.95      0.00
    3   11    6     -6.38      0.00
  -12   12    6      0.19      0.00
  -11   12    6     -2.36      0.00
  -10   12    6      0.43      0.00
   -9   12    6     -2.29      0.00
   -8   12    6     -0.99      0.00
   -7   12    6      0.83      0.00
   -6   12    6     -0.36      0.00
   -5   12    6      2.30      0.00
   -4   12    6     -1.41      0.00
   -3   12    6     -1.63      0.00
   -2   12    6     -3.18      0.00
   -1   12    6      0.59      0.00
    0   12    6      2.18      0.00
    1   12    6      0.49      0.00
  -11   13    6      5.61      0.00
  -10   13    6      2.40      0.00
   -9   13    6      0.87      0.00
   -8   13    6     -2.20      0.00
   -7   13    6     -0.67      0.00
   -6   13    6      1.22      0.00
   -5   13    6      3.73      0.00
   -4   13    6      6.90      0.00
   -3   13    6      5.17      0.00
   -2   13    6      2.58      0.00
   -1   13    6     -1.35      0.00
   -8   14    6      6.13      0.00
   -7   14    6      5.40      0.00
   -6   14    6      3.07      0.00
   -5   14    6      3.35      0.00
   -4   14    6      3.04      0.00
   -3   14    6     -2.88      0.00
    0  -19    7      0.33      0.00
    1  -19    7     -2.70      0.00
    2  -19    7     -5.92      0.00
    3  -19    7     -7.68      0.00
    4  -19    7     -2.55      0.00
    5  -19    7     -0.84      0.00
    6  -19    7     -1.63      0.00
   -3  -18    7      0.52      0.00
   -2  -18    7     -1.28      0.00
   -1  -18    7      4.16      0.00
    0  -18    7      1.22      0.00
    1  -18    7      1.54      0.00
    2  -18    7      0.92      0.00
    3  -18    7      1.99      0.00
    4  -18    7      2.48      0.00
    5  -18    7      4.02      0.00
    6  -18    7      1.18      0.00
    7  -18    7      1.46      0.00
    8  -18    7     -0.27      0.00
   -5  -17    7      2.06      0.00
   -4  -17    7     -1.67      0.00
   -3  -17    7     -2.74      0.00
   -2  -17    7     -2.98      0.00
   -1  -17    7     -0.36      0.00
    0  -17    7     -2.40      0.00
    1  -17    7     -2.97      0.00
    2  -17    7     -4.78      0.00
    3  -17    7      0.86      0.00
    4  -17    7      4.45      0.00
    5  -17    7      0.94      0.00
    6  -17    7     -2.39      0.00
    7  -17    7     -1.11      0.00
    8  -17    7     -3.42      0.00
    9  -17    7     -1.59      0.00
   -6  -16    7     -0.08      0.00
   -5  -16    7     -3.01      0.00
   -4  -16    7     -0.02      0.00
   -3  -16    7     -2.45      0.00
   -2  -16    7      3.19      0.00
   -1  -16    7      1.00      0.00
    0  -16    7      6.02      0.00
    1  -16    7     -0.31      0.00
    2  -16    7      4.08      0.00
    3  -16    7     -0.08      0.00
    4  -16    7     -0.18      0.00
    5  -16    7      3.20      0.00
    6  -16    7      2.82      0.00
    7  -16    7     -0.87      0.00
    8  -16    7     -0.60      0.00
    9  -16    7     -3.61      0.00
   10  -16    7     -0.56      0.00
   -7  -15    7      1.79      0.00
   -6  -15    7      0.66      0.00
   -5  -15    7      0.69      0.00
   -4  -15    7      1.21      0.00
   -3  -15    7     -0.38      0.00
   -2  -15    7      2.86      0.00
   -1  -15    7      3.13      0.00
    0  -15    7     -2.88      0.00
    1  -15    7     -4.35      0.00
    2  -15    7     -2.79      0.00
    3  -15    7     -0.22      0.00
    4  -15    7      2.79      0.00
    5  -15    7     -0.53      0.00
    6  -15    7     -1.05      0.00
    7  -15    7     -0.38      0.00
    8  -15    7     -2.31      0.00
    9  -15    7     -0.64      0.00
   10  -15    7     -0.45      0.00
   11  -15    7      0.04      0.00
   -8  -14    7     -0.76      0.00
   -7  -14    7     -1.28      0.00
   -6  -14    7      0.20      0.00
   -5  -14    7      3.19      0.00
   -4  -14    7     -0.17      0.00
   -3  -14    7      1.11      0.00
   -2  -14    7      4.37      0.00
   -1  -14    7      0.83      0.00
    0  -14    7     -2.79      0.00
    1  -14    7      4.73      0.00
    2  -14    7      1.73      0.00
    3  -14    7      0.96      0.00
    4  -14    7      4.08      0.00
    5  -14    7     -0.34      0.00
    6  -14    7     -1.85      0.00
    7  -14    7      1.07      0.00
    8  -14    7     -1.32      0.00
    9  -14    7     -0.81      0.00
   10  -14    7     -3.08      0.00
   11  -14    7     -2.27      0.00
   -9  -13    7      3.84      0.00
   -8  -13    7     -0.69      0.00
   -7  -13    7      1.27      0.00
   -6  -13    7      0.14      0.00
   -5  -13    7     -0.47      0.00
   -4  -13    7     -3.68      0.00
   -3  -13    7      2.17      0.00
   -2  -13    7      0.74      0.00
   -1  -13    7      2.44      0.00
    0  -13    7      4.50      0.00
    1  -13    7      3.91      0.00
    2  -13    7     -1.08      0.00
    3  -13    7      1.72      0.00
    4  -13    7      0.32      0.00
    5  -13    7     -3.53      0.00
    6  -13    7     -1.46      0.00
    7  -13    7     -1.64      0.00
    8  -13    7     -3.45      0.00
    9  -13    7     -0.91      0.00
   10  -13    7      2.57      0.00
   11  -13    7      2.47      0.00
   12  -13    7      2.56      0.00
  -10  -12    7      0.24      0.00
   -9  -12    7     -2.22      0.00
   -8  -12    7      1.07      0.00
   -7  -12    7      1.18      0.00
   -6  -12    7      4.35      0.00
   -5  -12    7      2.18      0.00
   -4  -12    7      1.07      0.00
   -3  -12    7      3.28      0.00
   -2  -12    7     -0.67      0.00
   -1  -12    7     -0.78      0.00
    0  -12    7      3.15      0.00
    1  -12    7     -2.90      0.00
    2  -12    7      0.90      0.00
    3  -12    7      5.19      0.00
    4  -12    7      3.40      0.00
    5  -12    7      3.78      0.00
    6  -12    7      3.52      0.00
    7  -12    7     -2.52      0.00
    8  -12    7      1.79      0.00
    9  -12    7      1.34      0.00
   10  -12    7      1.30      0.00
   11  -12    7     -0.47      0.00
   12  -12    7      0.05      0.00
  -11  -11    7     -3.59      0.00
  -10  -11    7     -2.84      0.00
   -9  -11    7      0.30      0.00
   -8  -11    7      2.25      0.00
   -7  -11    7      1.31      0.00
   -6  -11    7      2.78      0.00
   -5  -11    7      1.68      0.00
   -4  -11    7      3.74      0.00
   -3  -11    7     -6.13      0.00
   -2  -11    7     -3.88      0.00
   -1  -11    7      1.84      0.00
    0  -11    7     -2.64      0.00
    1  -11    7      0.21      0.00
    2  -11    7      1.38      0.00
    3  -11    7     -3.63      0.00
    4  -11    7      3.78      0.00
    5  -11    7     -4.79      0.00
    6  -11    7     -9.30      0.00
    7  -11    7     -1.44      0.00
    8  -11    7     -0.83      0.00
    9  -11    7     -1.04      0.00
   10  -11    7     -0.82      0.00
   11  -11    7     -2.78      0.00
   12  -11    7     -4.52      0.00
  -11  -10    7     -1.48      0.00
  -10  -10    7     -0.01      0.00
   -9  -10    7     -1.48      0.00
   -8  -10    7     -3.01      0.00
   -7  -10    7     -2.98      0.00
   -6  -10    7     -3.40      0.00
   -5  -10    7     -3.71      0.00
   -4  -10    7     -6.06      0.00
   -3  -10    7     -2.17      0.00
   -2  -10    7      7.74      0.00
   -1  -10    7      0.24      0.00
    0  -10    7     -4.02      0.00
    1  -10    7      0.96      0.00
    2  -10    7     -9.97      0.00
    3  -10    7      2.23      0.00
    4  -10    7     -1.21      0.00
    5  -10    7    -10.12      0.00
    6  -10    7      2.11      0.00
    7  -10    7     -2.88      0.00
    8  -10    7     -0.24      0.00
    9  -10    7      2.93      0.00
   10  -10    7     -0.49      0.00
   11  -10    7      0.76      0.00
   12  -10    7      0.34      0.00
  -12   -9    7     -1.61      0.00
  -11   -9    7      1.81      0.00
  -10   -9    7     -2.43      0.00
   -9   -9    7     -3.02      0.00
   -8   -9    7     -1.55      0.00
   -7   -9    7      1.10      0.00
   -6   -9    7      7.89      0.00
   -5   -9    7     11.48      0.00
   -4   -9    7      7.60      0.00
   -3   -9    7      7.85      0.00
   -2   -9    7      0.72      0.00
   -1   -9    7     -7.58      0.00
    0   -9    7      1.52      0.00
    1   -9    7     -6.72      0.00
    2   -9    7     -8.65      0.00
    3   -9    7     -2.39      0.00
    4   -9    7     -5.40      0.00
    5   -9    7      6.78      0.00
    6   -9    7      1.40      0.00
    7   -9    7     -1.14      0.00
    8   -9    7     -4.43      0.00
    9   -9    7      1.07      0.00
   10   -9    7     -3.11      0.00
   11   -9    7     -1.65      0.00
   12   -9    7      3.34      0.00
  -13   -8    7      0.48      0.00
  -12   -8    7      7.47      0.00
  -11   -8    7     -2.73      0.00
  -10   -8    7      1.02      0.00
   -9   -8    7      5.10      0.00
   -8   -8    7      6.34      0.00
   -7   -8    7      2.46      0.00
   -6   -8    7      0.11      0.00
   -5   -8    7     -8.48      0.00
   -4   -8    7    -13.29      0.00
   -3   -8    7    -16.63      0.00
   -2   -8    7    -15.73      0.00
   -1   -8    7     -1.31      0.00
    0   -8    7      8.52      0.00
    1   -8    7      0.10      0.00
    2   -8    7      6.50      0.00
    3   -8    7     11.04      0.00
    4   -8    7     11.20      0.00
    5   -8    7      1.96      0.00
    6   -8    7     -8.79      0.00
    7   -8    7     -8.66      0.00
    8   -8    7     -0.75      0.00
    9   -8    7     -2.08      0.00
   10   -8    7      1.64      0.00
   11   -8    7      1.78      0.00
   12   -8    7     -0.88      0.00
  -13   -7    7      2.33      0.00
  -12   -7    7     -2.83      0.00
  -11   -7    7      6.11      0.00
  -10   -7    7      1.35      0.00
   -9   -7    7     -0.66      0.00
   -8   -7    7     -7.56      0.00
   -7   -7    7     -6.84      0.00
   -6   -7    7     -6.23      0.00
   -5   -7    7     -7.38      0.00
   -4   -7    7     -5.37      0.00
   -3   -7    7     14.51      0.00
   -2   -7    7     27.60      0.00
   -1   -7    7     29.20      0.00
    0   -7    7     13.78      0.00
    1   -7    7      1.84      0.00
    2   -7    7     -7.78      0.00
    3   -7    7     -3.43      0.00
    4   -7    7     -4.72      0.00
    5   -7    7     -5.01      0.00
    6   -7    7     -2.43      0.00
    7   -7    7     -3.47      0.00
    8   -7    7      5.77      0.00
    9   -7    7      5.59      0.00
   10   -7    7     -0.12      0.00
   11   -7    7      2.26      0.00
   12   -7    7      3.16      0.00
  -14   -6    7     -2.92      0.00
  -13   -6    7      7.24      0.00
  -12   -6    7      2.75      0.00
  -11   -6    7     -3.93      0.00
  -10   -6    7     -5.38      0.00
   -9   -6    7     -1.77      0.00
   -8   -6    7     -3.54      0.00
   -7   -6    7     -1.30      0.00
   -6   -6    7      1.28      0.00
   -5   -6    7      7.01      0.00
   -4   -6    7     18.46      0.00
   -3   -6    7     24.34      0.00
   -2   -6    7     -1.76      0.00
   -1   -6    7    -18.53      0.00
    0   -6    7    -27.47      0.00
    1   -6    7    -29.14      0.00
    2   -6    7      2.67      0.00
    3   -6    7      9.14      0.00
    4   -6    7     -0.79      0.00
    5   -6    7      4.35      0.00
    6   -6    7      1.97      0.00
    7   -6    7     10.24      0.00
    8   -6    7      4.29      0.00
    9   -6    7      2.04      0.00
   10   -6    7      5.01      0.00
   11   -6    7      2.79      0.00
   12   -6    7      0.16      0.00
  -14   -5    7      0.59      0.00
  -13   -5    7     -7.11      0.00
  -12   -5    7     -5.16      0.00
  -11   -5    7     -2.40      0.00
  -10   -5    7      2.20      0.00
   -9   -5    7      3.50      0.00
   -8   -5    7      0.84      0.00
   -7   -5    7      5.30      0.00
   -6   -5    7      1.80      0.00
   -5   -5    7     -2.54      0.00
   -4   -5    7      8.31      0.00
   -3   -5    7    -32.17      0.00
   -2   -5    7    -34.71      0.00
   -1   -5    7    -14.45      0.00
    0   -5    7      4.70      0.00
    1   -5    7     23.99      0.00
    2   -5    7     11.27      0.00
    3   -5    7    -18.58      0.00
    4   -5    7      1.25      0.00
    5   -5    7      3.58      0.00
    6   -5    7     -1.97      0.00
    7   -5    7     -4.01      0.00
    8   -5    7     -2.01      0.00
    9   -5    7     -1.29      0.00
   10   -5    7     -4.20      0.00
   11   -5    7     -2.65      0.00
   12   -5    7      0.44      0.00
  -14   -4    7     -0.31      0.00
  -13   -4    7      4.15      0.00
  -12   -4    7      1.85      0.00
  -11   -4    7      2.89      0.00
  -10   -4    7      7.33      0.00
   -9   -4    7      0.09      0.00
   -8   -4    7     -3.28      0.00
   -7   -4    7     -8.69      0.00
   -6   -4    7     -6.53      0.00
   -5   -4    7     21.16      0.00
   -4   -4    7    -10.56      0.00
   -3   -4    7     -2.90      0.00
   -2   -4    7     19.00      0.00
   -1   -4    7     15.80      0.00
    0   -4    7      7.71      0.00
    1   -4    7      5.96      0.00
    2   -4    7    -17.11      0.00
    3   -4    7     16.16      0.00
    4   -4    7      4.01      0.00
    5   -4    7     -4.68      0.00
    6   -4    7     -0.14      0.00
    7   -4    7     -1.03      0.00
    8   -4    7      2.17      0.00
    9   -4    7     -1.33      0.00
   10   -4    7     -1.47      0.00
   11   -4    7     -1.84      0.00
   12   -4    7     -0.02      0.00
  -15   -3    7      3.48      0.00
  -14   -3    7      6.32      0.00
  -13   -3    7      3.25      0.00
  -12   -3    7      2.93      0.00
  -11   -3    7      5.10      0.00
  -10   -3    7     -0.40      0.00
   -9   -3    7     -5.18      0.00
   -8   -3    7      3.54      0.00
   -7   -3    7     -1.36      0.00
   -6   -3    7     23.99      0.00
   -5   -3    7     -8.70      0.00
   -4   -3    7     -4.04      0.00
   -3   -3    7     10.90      0.00
   -2   -3    7    -10.39      0.00
   -1   -3    7    -10.47      0.00
    0   -3    7      2.79      0.00
    1   -3    7     -7.44      0.00
    2   -3    7     22.23      0.00
    3   -3    7     -2.68      0.00
    4   -3    7      0.94      0.00
    5   -3    7     -0.04      0.00
    6   -3    7     -3.75      0.00
    7   -3    7      2.97      0.00
    8   -3    7      0.79      0.00
    9   -3    7     -3.25      0.00
   10   -3    7     -4.29      0.00
   11   -3    7     -1.34      0.00
   12   -3    7      0.52      0.00
  -15   -2    7      2.93      0.00
  -14   -2    7      3.22      0.00
  -13   -2    7     -0.29      0.00
  -12   -2    7     -1.46      0.00
  -11   -2    7     -5.52      0.00
  -10   -2    7     -1.03      0.00
   -9   -2    7      7.54      0.00
   -8   -2    7     -1.23      0.00
   -7   -2    7     17.62      0.00
   -6   -2    7     -0.89      0.00
   -5   -2    7      4.91      0.00
   -4   -2    7     19.06      0.00
   -3   -2    7    -10.58      0.00
   -2   -2    7    -10.38      0.00
   -1   -2    7     -5.46      0.00
    0   -2    7      1.95      0.00
    1   -2    7     23.02      0.00
    2   -2    7      5.02      0.00
    3   -2    7     -0.75      0.00
    4   -2    7      0.98      0.00
    5   -2    7      1.16      0.00
    6   -2    7      8.11      0.00
    7   -2    7      1.84      0.00
    8   -2    7     -2.50      0.00
    9   -2    7     -0.95      0.00
   10   -2    7     -4.49      0.00
   11   -2    7      0.79      0.00
  -15   -1    7     -1.60      0.00
  -14   -1    7     -1.20      0.00
  -13   -1    7     -0.15      0.00
  -12   -1    7     -2.72      0.00
  -11   -1    7      4.31      0.00
  -10   -1    7      4.09      0.00
   -9   -1    7      1.06      0.00
   -8   -1    7     10.66      0.00
   -7   -1    7     -2.57      0.00
   -6   -1    7      0.85      0.00
   -5   -1    7      9.47      0.00
   -4   -1    7    -11.34      0.00
   -3   -1    7     -8.18      0.00
   -2   -1    7     -1.47      0.00
   -1   -1    7      8.09      0.00
    0   -1    7     30.47      0.00
    1   -1    7      6.49      0.00
    2   -1    7     -8.72      0.00
    3   -1    7      2.17      0.00
    4   -1    7     -7.19      0.00
    5   -1    7     -7.18      0.00
    6   -1    7     -5.41      0.00
    7   -1    7     -4.85      0.00
    8   -1    7      1.87      0.00
    9   -1    7     -0.77      0.00
   10   -1    7      0.90      0.00
   11   -1    7      0.28      0.00
  -15    0    7      4.11      0.00
  -14    0    7      1.24      0.00
  -13    0    7     -3.07      0.00
  -12    0    7     -0.87      0.00
  -11    0    7      1.44      0.00
  -10    0    7     -1.25      0.00
   -9    0    7      3.85      0.00
   -8    0    7     -4.02      0.00
   -7    0    7      5.15      0.00
   -6    0    7      9.81      0.00
   -5    0    7     -9.36      0.00
   -4    0    7     -6.10      0.00
   -3    0    7     -6.82      0.00
   -2    0    7     -5.00      0.00
   -1    0    7     10.68      0.00
    0    0    7    -19.93      0.00
    1    0    7    -13.77      0.00
    2    0    7      3.03      0.00
    3    0    7     -9.51      0.00
    4    0    7      1.25      0.00
    5    0    7      7.85      0.00
    6    0    7      2.54      0.00
    7    0    7      1.97      0.00
    8    0    7      5.26      0.00
    9    0    7      2.41      0.00
   10    0    7      4.15      0.00
   11    0    7      0.67      0.00
  -15    1    7     -1.93      0.00
  -14    1    7     -5.63      0.00
  -13    1    7     -3.17      0.00
  -12    1    7     -2.89      0.00
  -11    1    7     -3.52      0.00
  -10    1    7     -1.21      0.00
   -9    1    7     -2.83      0.00
   -8    1    7      4.32      0.00
   -7    1    7      6.22      0.00
   -6    1    7    -15.23      0.00
   -5    1    7     -1.71      0.00
   -4    1    7     -5.19      0.00
   -3    1    7     -2.03      0.00
   -2    1    7     12.36      0.00
   -1    1    7     -5.32      0.00
    0    1    7      9.93      0.00
    1    1    7     13.64      0.00
    2    1    7      5.15      0.00
    3    1    7      7.80      0.00
    4    1    7     -3.22      0.00
    5    1    7     -4.16      0.00
    6    1    7     -4.19      0.00
    7    1    7      1.39      0.00
    8    1    7     -1.62      0.00
    9    1    7     -2.41      0.00
   10    1    7     -1.62      0.00
  -15    2    7     -5.68      0.00
  -14    2    7      1.06      0.00
  -13    2    7     -1.18      0.00
  -12    2    7     -0.59      0.00
  -11    2    7      3.22      0.00
  -10    2    7     -0.54      0.00
   -9    2    7      7.16      0.00
   -8    2    7      5.97      0.00
   -7    2    7     -7.85      0.00
   -6    2    7      6.81      0.00
   -5    2    7     -2.08      0.00
   -4    2    7     -3.94      0.00
   -3    2    7      9.18      0.00
   -2    2    7     -3.90      0.00
   -1    2    7      1.88      0.00
    0    2    7      2.17      0.00
    1    2    7     -2.84      0.00
    2    2    7    -10.92      0.00
    3    2    7     -8.45      0.00
    4    2    7      2.33      0.00
    5    2    7      2.49      0.00
    6    2    7      4.05      0.00
    7    2    7      1.77      0.00
    8    2    7      0.60      0.00
    9    2    7     -0.37      0.00
   10    2    7      5.91      0.00
  -15    3    7      6.33      0.00
  -14    3    7      6.42      0.00
  -13    3    7      0.97      0.00
  -12    3    7      8.96      0.00
  -11    3    7      0.84      0.00
  -10    3    7      4.08      0.00
   -9    3    7      1.55      0.00
   -8    3    7     -5.89      0.00
   -7    3    7      6.84      0.00
   -6    3    7     -3.40      0.00
   -5    3    7     -0.41      0.00
   -4    3    7      6.98      0.00
   -3    3    7     -6.12      0.00
   -2    3    7      3.96      0.00
   -1    3    7      3.50      0.00
    0    3    7     -4.24      0.00
    1    3    7     -3.22      0.00
    2    3    7      7.11      0.00
    3    3    7      3.42      0.00
    4    3    7     -1.13      0.00
    5    3    7      1.84      0.00
    6    3    7     -1.47      0.00
    7    3    7     -2.05      0.00
    8    3    7     -2.60      0.00
    9    3    7     -3.48      0.00
  -15    4    7      1.84      0.00
  -14    4    7     -6.55      0.00
  -13    4    7      1.45      0.00
  -12    4    7     -1.58      0.00
  -11    4    7      1.21      0.00
  -10    4    7     -1.04      0.00
   -9    4    7     -8.22      0.00
   -8    4    7     -1.26      0.00
   -7    4    7     -3.53      0.00
   -6    4    7     -2.84      0.00
   -5    4    7      2.29      0.00
   -4    4    7     -4.09      0.00
   -3    4    7      8.11      0.00
   -2    4    7      8.16      0.00
   -1    4    7      6.41      0.00
    0    4    7      7.30      0.00
    1    4    7      3.23      0.00
    2    4    7     -5.00      0.00
    3    4    7     -1.68      0.00
    4    4    7      0.35      0.00
    5    4    7     -2.09      0.00
    6    4    7      0.32      0.00
    7    4    7      3.49      0.00
    8    4    7     -3.20      0.00
  -15    5    7     -2.89      0.00
  -14    5    7      2.00      0.00
  -13    5    7      3.14      0.00
  -12    5    7      3.07      0.00
  -11    5    7      1.19      0.00
  -10    5    7     -4.10      0.00
   -9    5    7      0.79      0.00
   -8    5    7      6.74      0.00
   -7    5    7      1.41      0.00
   -6    5    7      6.33      0.00
   -5    5    7      5.57      0.00
   -4    5    7      0.09      0.00
   -3    5    7      0.57      0.00
   -2    5    7      0.93      0.00
   -1    5    7     -9.93      0.00
    0    5    7     -7.70      0.00
    1    5    7      1.09      0.00
    2    5    7      2.35      0.00
    3    5    7      0.74      0.00
    4    5    7      0.62      0.00
    5    5    7      0.81      0.00
    6    5    7     -0.04      0.00
    7    5    7     -3.79      0.00
    8    5    7     -1.70      0.00
  -15    6    7     -0.96      0.00
  -14    6    7     -1.01      0.00
  -13    6    7     -1.66      0.00
  -12    6    7     -0.99      0.00
  -11    6    7     -1.07      0.00
  -10    6    7      1.09      0.00
   -9    6    7     -1.06      0.00
   -8    6    7     -3.13      0.00
   -7    6    7     -4.16      0.00
   -6    6    7      0.51      0.00
   -5    6    7     -2.40      0.00
   -4    6    7     -2.65      0.00
   -3    6    7      3.94      0.00
   -2    6    7     -4.55      0.00
   -1    6    7      5.97      0.00
    0    6    7      7.05      0.00
    1    6    7     -1.17      0.00
    2    6    7      0.39      0.00
    3    6    7     -0.29      0.00
    4    6    7     -3.22      0.00
    5    6    7     -0.52      0.00
    6    6    7      1.81      0.00
    7    6    7      1.97      0.00
  -15    7    7     -0.64      0.00
  -14    7    7     -2.91      0.00
  -13    7    7     -1.77      0.00
  -12    7    7      1.49      0.00
  -11    7    7      0.79      0.00
  -10    7    7     -3.70      0.00
   -9    7    7      2.18      0.00
   -8    7    7     -4.20      0.00
   -7    7    7      1.99      0.00
   -6    7    7      3.99      0.00
   -5    7    7     -5.29      0.00
   -4    7    7     -0.39      0.00
   -3    7    7     -1.14      0.00
   -2    7    7      3.21      0.00
   -1    7    7     -3.25      0.00
    0    7    7     -1.26      0.00
    1    7    7      6.05      0.00
    2    7    7     -1.12      0.00
    3    7    7     -0.23      0.00
    4    7    7      1.23      0.00
    5    7    7     -1.54      0.00
    6    7    7     -1.28      0.00
  -14    8    7      3.46      0.00
  -13    8    7      2.95      0.00
  -12    8    7     -0.47      0.00
  -11    8    7      0.85      0.00
  -10    8    7      4.79      0.00
   -9    8    7     -2.53      0.00
   -8    8    7     -1.09      0.00
   -7    8    7      1.38      0.00
   -6    8    7     -1.25      0.00
   -5    8    7      0.77      0.00
   -4    8    7      0.00      0.00
   -3    8    7     -2.47      0.00
   -2    8    7     -0.08      0.00
   -1    8    7      5.24      0.00
    0    8    7      4.87      0.00
    1    8    7     -2.19      0.00
    2    8    7     -1.14      0.00
    3    8    7     -1.67      0.00
    4    8    7      0.30      0.00
    5    8    7      4.81      0.00
  -14    9    7      0.38      0.00
  -13    9    7     -3.68      0.00
  -12    9    7      2.10      0.00
  -11    9    7     -1.78      0.00
  -10    9    7     -2.48      0.00
   -9    9    7     -0.91      0.00
   -8    9    7      0.30      0.00
   -7    9    7      2.93      0.00
   -6    9    7      2.34      0.00
   -5    9    7     -2.92      0.00
   -4    9    7     -2.60      0.00
   -3    9    7      1.55      0.00
   -2    9    7      1.31      0.00
   -1    9    7     -1.69      0.00
    0    9    7      0.66      0.00
    1    9    7     -2.57      0.00
    2    9    7     -0.83      0.00
    3    9    7     -0.09      0.00
    4    9    7     -0.77      0.00
  -13   10    7      1.09      0.00
  -12   10    7     -4.87      0.00
  -11   10    7      0.00      0.00
  -10   10    7      1.96      0.00
   -9   10    7     -0.18      0.00
   -8   10    7      5.26      0.00
   -7   10    7      6.77      0.00
   -6   10    7      1.28      0.00
   -5   10    7     -0.44      0.00
   -4   10    7     -2.09      0.00
   -3   10    7     -1.90      0.00
   -2   10    7     -0.80      0.00
   -1   10    7      2.27      0.00
    0   10    7      1.73      0.00
    1   10    7      0.36      0.00
    2   10    7      0.45      0.00
    3   10    7      3.26      0.00
  -12   11    7     -0.56      0.00
  -11   11    7      0.72      0.00
  -10   11    7     -5.18      0.00
   -9   11    7     -0.28      0.00
   -8   11    7     -0.06      0.00
   -7   11    7     -0.89      0.00
   -6   11    7      2.22      0.00
   -5   11    7     -0.67      0.00
   -4   11    7      2.94      0.00
   -3   11    7     -1.01      0.00
   -2   11    7      1.22      0.00
   -1   11    7     -0.32      0.00
    0   11    7     -1.19      0.00
    1   11    7      0.62      0.00
    2   11    7      2.60      0.00
  -11   12    7     -3.04      0.00
  -10   12    7     -0.49      0.00
   -9   12    7     -0.15      0.00
   -8   12    7     -2.12      0.00
   -7   12    7      3.49      0.00
   -6   12    7     -1.72      0.00
   -5   12    7     -0.42      0.00
   -4   12    7     -1.63      0.00
   -3   12    7      1.81      0.00
   -2   12    7      2.28      0.00
   -1   12    7      6.35      0.00
    0   12    7      1.90      0.00
   -9   13    7      2.65      0.00
   -8   13    7      8.55      0.00
   -7   13    7      5.70      0.00
   -6   13    7      0.66      0.00
   -5   13    7      4.09      0.00
   -4   13    7      4.66      0.00
   -3   13    7      3.13      0.00
   -2   13    7     -0.43      0.00
   -1  -19    8      1.65      0.00
    0  -19    8      0.98      0.00
    1  -19    8     -0.82      0.00
    2  -19    8     -2.57      0.00
    3  -19    8     -0.14      0.00
    4  -19    8      4.08      0.00
    5  -19    8      1.87      0.00
    6  -19    8     -3.48      0.00
   -3  -18    8     -1.59      0.00
   -2  -18    8     -1.59      0.00
   -1  -18    8     -0.93      0.00
    0  -18    8     -0.70      0.00
    1  -18    8     -0.11      0.00
    2  -18    8      1.58      0.00
    3  -18    8      1.72      0.00
    4  -18    8      1.39      0.00
    5  -18    8      0.55      0.00
    6  -18    8      2.42      0.00
    7  -18    8      1.67      0.00
    8  -18    8     -2.61      0.00
   -5  -17    8     -0.06      0.00
   -4  -17    8      1.81      0.00
   -3  -17    8     -0.98      0.00
   -2  -17    8      5.10      0.00
   -1  -17    8      2.90      0.00
    0  -17    8     -0.36      0.00
    1  -17    8     -0.70      0.00
    2  -17    8     -0.40      0.00
    3  -17    8      1.35      0.00
    4  -17    8      1.21      0.00
    5  -17    8      0.14      0.00
    6  -17    8      2.95      0.00
    7  -17    8      0.97      0.00
    8  -17    8     -2.54      0.00
    9  -17    8      1.26      0.00
   -6  -16    8      3.79      0.00
   -5  -16    8      1.33      0.00
   -4  -16    8     -1.60      0.00
   -3  -16    8      1.33      0.00
   -2  -16    8      0.77      0.00
   -1  -16    8     -0.88      0.00
    0  -16    8     -0.30      0.00
    1  -16    8     -1.90      0.00
    2  -16    8     -0.93      0.00
    3  -16    8     -3.76      0.00
    4  -16    8     -1.74      0.00
    5  -16    8      3.86      0.00
    6  -16    8      0.33      0.00
    7  -16    8      1.39      0.00
    8  -16    8      1.56      0.00
    9  -16    8     -1.49      0.00
   10  -16    8      0.33      0.00
   -7  -15    8      3.00      0.00
   -6  -15    8     -2.47      0.00
   -5  -15    8     -3.94      0.00
   -4  -15    8     -1.63      0.00
   -3  -15    8     -2.14      0.00
   -2  -15    8     -0.62      0.00
   -1  -15    8     -0.41      0.00
    0  -15    8     -0.80      0.00
    1  -15    8      0.72      0.00
    2  -15    8      1.75      0.00
    3  -15    8     -1.16      0.00
    4  -15    8      0.36      0.00
    5  -15    8     -1.39      0.00
    6  -15    8     -1.49      0.00
    7  -15    8      1.12      0.00
    8  -15    8      1.72      0.00
    9  -15    8      6.08      0.00
   10  -15    8      5.65      0.00
   -8  -14    8      6.21      0.00
   -7  -14    8      0.29      0.00
   -6  -14    8     -2.28      0.00
   -5  -14    8      2.99      0.00
   -4  -14    8     -3.37      0.00
   -3  -14    8      2.01      0.00
   -2  -14    8      2.39      0.00
   -1  -14    8     -0.16      0.00
    0  -14    8      0.66      0.00
    1  -14    8      0.55      0.00
    2  -14    8     -7.13      0.00
    3  -14    8     -2.76      0.00
    4  -14    8      2.16      0.00
    5  -14    8     -2.71      0.00
    6  -14    8      1.27      0.00
    7  -14    8      1.88      0.00
    8  -14    8      1.13      0.00
    9  -14    8      0.95      0.00
   10  -14    8     -5.44      0.00
   11  -14    8     -2.45      0.00
   -9  -13    8      3.53      0.00
   -8  -13    8     -1.08      0.00
   -7  -13    8      0.09      0.00
   -6  -13    8      4.09      0.00
   -5  -13    8     -0.56      0.00
   -4  -13    8      1.40      0.00
   -3  -13    8     -0.26      0.00
   -2  -13    8     -2.64      0.00
   -1  -13    8      0.17      0.00
    0  -13    8      0.62      0.00
    1  -13    8      1.15      0.00
    2  -13    8     -1.08      0.00
    3  -13    8      4.68      0.00
    4  -13    8      3.82      0.00
    5  -13    8      1.25      0.00
    6  -13    8      3.82      0.00
    7  -13    8      1.90      0.00
    8  -13    8      1.71      0.00
    9  -13    8     -2.45      0.00
   10  -13    8     -0.37      0.00
   11  -13    8     -1.12      0.00
  -10  -12    8      2.19      0.00
   -9  -12    8     -0.01      0.00
   -8  -12    8     -1.85      0.00
   -7  -12    8     -1.64      0.00
   -6  -12    8     -5.67      0.00
   -5  -12    8     -6.70      0.00
   -4  -12    8     -3.46      0.00
   -3  -12    8     -1.28      0.00
   -2  -12    8      2.07      0.00
   -1  -12    8      5.67      0.00
    0  -12    8      3.00      0.00
    1  -12    8     -4.29      0.00
    2  -12    8     -1.04      0.00
    3  -12    8     -0.24      0.00
    4  -12    8      0.09      0.00
    5  -12    8      0.71      0.00
    6  -12    8      1.05      0.00
    7  -12    8     -0.94      0.00
    8  -12    8      1.10      0.00
    9  -12    8      0.15      0.00
   10  -12    8     -0.94      0.00
   11  -12    8     -0.33      0.00
   12  -12    8     -0.65      0.00
  -11  -11    8     -2.94      0.00
  -10  -11    8     -1.95      0.00
   -9  -11    8     -3.83      0.00
   -8  -11    8      4.41      0.00
   -7  -11    8     -0.96      0.00
   -6  -11    8      4.04      0.00
   -5  -11    8      4.08      0.00
   -4  -11    8      5.21      0.00
   -3  -11    8      1.76      0.00
   -2  -11    8      2.79      0.00
   -1  -11    8     -2.40      0.00
    0  -11    8     -4.78      0.00
    1  -11    8     -3.65      0.00
    2  -11    8     -4.69      0.00
    3  -11    8     -2.25      0.00
    4  -11    8      7.40      0.00
    5  -11    8      2.31      0.00
    6  -11    8      4.11      0.00
    7  -11    8      7.44      0.00
    8  -11    8      1.66      0.00
    9  -11    8      4.44      0.00
   10  -11    8      1.93      0.00
   11  -11    8      1.50      0.00
   12  -11    8      2.42      0.00
  -12  -10    8      4.87      0.00
  -11  -10    8      2.28      0.00
  -10  -10    8      0.90      0.00
   -9  -10    8      6.32      0.00
   -8  -10    8      1.52      0.00
   -7  -10    8     -0.11      0.00
   -6  -10    8     -5.65      0.00
   -5  -10    8     -6.91      0.00
   -4  -10    8    -11.27      0.00
   -3  -10    8     -9.69      0.00
   -2  -10    8     -0.49      0.00
   -1  -10    8     -4.00      0.00
    0  -10    8      2.89      0.00
    1  -10    8      2.10      0.00
    2  -10    8      1.82      0.00
    3  -10    8     17.34      0.00
    4  -10    8      2.72      0.00
    5  -10    8     -1.97      0.00
    6  -10    8     -2.99      0.00
    7  -10    8     -8.68      0.00
    8  -10    8      0.13      0.00
    9  -10    8     -3.79      0.00
   10  -10    8     -0.32      0.00
   11  -10    8     -1.30      0.00
   12  -10    8     -5.24      0.00
  -12   -9    8     -1.22      0.00
  -11   -9    8      1.05      0.00
  -10   -9    8     -1.21      0.00
   -9   -9    8     -4.06      0.00
   -8   -9    8     -6.85      0.00
   -7   -9    8     -9.29      0.00
   -6   -9    8     -5.12      0.00
   -5   -9    8     -2.72      0.00
   -4   -9    8     -1.50      0.00
   -3   -9    8     15.87      0.00
   -2   -9    8      7.62      0.00
   -1   -9    8     12.19      0.00
    0   -9    8      7.64      0.00
    1   -9    8     -1.13      0.00
    2   -9    8      0.02      0.00
    3   -9    8     -7.70      0.00
    4   -9    8    -10.21      0.00
    5   -9    8     -1.55      0.00
    6   -9    8     -2.02      0.00
    7   -9    8      3.79      0.00
    8   -9    8      1.25      0.00
    9   -9    8      8.22      0.00
   10   -9    8     -4.03      0.00
   11   -9    8      0.25      0.00
   12   -9    8      3.51      0.00
  -13   -8    8      6.35      0.00
  -12   -8    8      1.61      0.00
  -11   -8    8     -5.10      0.00
  -10   -8    8     -3.22      0.00
   -9   -8    8      0.69      0.00
   -8   -8    8     -3.48      0.00
   -7   -8    8      1.35      0.00
   -6   -8    8      6.92      0.00
   -5   -8    8      8.43      0.00
   -4   -8    8     16.41      0.00
   -3   -8    8      1.97      0.00
   -2   -8    8     -3.30      0.00
   -1   -8    8    -14.62      0.00
    0   -8    8    -14.47      0.00
    1   -8    8     -4.95      0.00
    2   -8    8      0.13      0.00
    3   -8    8      0.65      0.00
    4   -8    8      5.55      0.00
    5   -8    8      6.10      0.00
    6   -8    8      5.73      0.00
    7   -8    8      4.11      0.00
    8   -8    8      6.37      0.00
    9   -8    8     -0.07      0.00
   10   -8    8      2.28      0.00
   11   -8    8     -2.38      0.00
   12   -8    8     -0.98      0.00
  -13   -7    8     -8.62      0.00
  -12   -7    8     -7.63      0.00
  -11   -7    8     -1.89      0.00
  -10   -7    8     -1.14      0.00
   -9   -7    8      1.47      0.00
   -8   -7    8      5.18      0.00
   -7   -7    8     10.09      0.00
   -6   -7    8      4.85      0.00
   -5   -7    8     -1.65      0.00
   -4   -7    8    -18.21      0.00
   -3   -7    8    -20.51      0.00
   -2   -7    8    -26.51      0.00
   -1   -7    8     -1.51      0.00
    0   -7    8     17.21      0.00
    1   -7    8      5.22      0.00
    2   -7    8     -2.56      0.00
    3   -7    8      7.53      0.00
    4   -7    8     13.95      0.00
    5   -7    8     11.20      0.00
    6   -7    8     -0.30      0.00
    7   -7    8     -1.50      0.00
    8   -7    8      1.22      0.00
    9   -7    8     -1.13      0.00
   10   -7    8     -1.47      0.00
   11   -7    8      0.97      0.00
   12   -7    8      0.41      0.00
  -14   -6    8      2.54      0.00
  -13   -6    8      8.89      0.00
  -12   -6    8      4.86      0.00
  -11   -6    8      4.79      0.00
  -10   -6    8      3.46      0.00
   -9   -6    8      4.12      0.00
   -8   -6    8     -0.78      0.00
   -7   -6    8     -3.01      0.00
   -6   -6    8     -0.60      0.00
   -5   -6    8    -10.59      0.00
   -4   -6    8     -4.74      0.00
   -3   -6    8     -1.59      0.00
   -2   -6    8     15.67      0.00
   -1   -6    8     23.63      0.00
    0   -6    8     -7.17      0.00
    1   -6    8     -3.04      0.00
    2   -6    8      6.95      0.00
    3   -6    8      3.60      0.00
    4   -6    8     -2.75      0.00
    5   -6    8     -6.04      0.00
    6   -6    8     -2.41      0.00
    7   -6    8      0.70      0.00
    8   -6    8      0.94      0.00
    9   -6    8      0.12      0.00
   10   -6    8     -0.89      0.00
   11   -6    8     -1.13      0.00
   12   -6    8      5.55      0.00
  -14   -5    8      4.65      0.00
  -13   -5    8      1.35      0.00
  -12   -5    8      1.10      0.00
  -11   -5    8     -3.49      0.00
  -10   -5    8     -2.81      0.00
   -9   -5    8     -6.08      0.00
   -8   -5    8     -0.52      0.00
   -7   -5    8      2.64      0.00
   -6   -5    8     -9.45      0.00
   -5   -5    8      2.67      0.00
   -4   -5    8      8.68      0.00
   -3   -5    8      8.79      0.00
   -2   -5    8     15.20      0.00
   -1   -5    8    -15.25      0.00
    0   -5    8      2.77      0.00
    1   -5    8     -0.22      0.00
    2   -5    8     -4.05      0.00
    3   -5    8     -8.90      0.00
    4   -5    8     -1.71      0.00
    5   -5    8     -2.04      0.00
    6   -5    8     -3.31      0.00
    7   -5    8      1.49      0.00
    8   -5    8     -0.14      0.00
    9   -5    8     -1.24      0.00
   10   -5    8     -4.01      0.00
   11   -5    8      3.74      0.00
  -14   -4    8      3.51      0.00
  -13   -4    8      1.87      0.00
  -12   -4    8     -1.80      0.00
  -11   -4    8     -1.86      0.00
  -10   -4    8      4.10      0.00
   -9   -4    8      5.59      0.00
   -8   -4    8      7.37      0.00
   -7   -4    8     -4.64      0.00
   -6   -4    8     12.72      0.00
   -5   -4    8     11.62      0.00
   -4   -4    8      3.07      0.00
   -3   -4    8      8.11      0.00
   -2   -4    8    -25.39      0.00
   -1   -4    8     -7.99      0.00
    0   -4    8      1.08      0.00
    1   -4    8      5.68      0.00
    2   -4    8     -1.24      0.00
    3   -4    8      6.82      0.00
    4   -4    8      6.53      0.00
    5   -4    8      7.45      0.00
    6   -4    8      9.84      0.00
    7   -4    8      4.56      0.00
    8   -4    8      5.44      0.00
    9   -4    8      2.19      0.00
   10   -4    8      0.75      0.00
   11   -4    8     -0.02      0.00
  -15   -3    8     -0.22      0.00
  -14   -3    8      3.02      0.00
  -13   -3    8      1.05      0.00
  -12   -3    8      0.20      0.00
  -11   -3    8      2.75      0.00
  -10   -3    8     -3.99      0.00
   -9   -3    8      0.07      0.00
   -8   -3    8     -6.71      0.00
   -7   -3    8      0.32      0.00
   -6   -3    8     -4.64      0.00
   -5   -3    8    -18.96      0.00
   -4   -3    8      0.69      0.00
   -3   -3    8    -22.35      0.00
   -2   -3    8      0.74      0.00
   -1   -3    8     14.44      0.00
    0   -3    8      6.56      0.00
    1   -3    8     -4.95      0.00
    2   -3    8     -1.67      0.00
    3   -3    8     -2.23      0.00
    4   -3    8     -0.26      0.00
    5   -3    8     -4.61      0.00
    6   -3    8     -4.35      0.00
    7   -3    8     -0.49      0.00
    8   -3    8      1.64      0.00
    9   -3    8     -3.73      0.00
   10   -3    8     -2.47      0.00
   11   -3    8      1.47      0.00
  -15   -2    8      2.12      0.00
  -14   -2    8      1.77      0.00
  -13   -2    8      0.95      0.00
  -12   -2    8      0.23      0.00
  -11   -2    8     -1.53      0.00
  -10   -2    8      3.18      0.00
   -9   -2    8     -1.66      0.00
   -8   -2    8      5.15      0.00
   -7   -2    8      5.72      0.00
   -6   -2    8     -2.81      0.00
   -5   -2    8     15.31      0.00
   -4   -2    8     -1.84      0.00
   -3   -2    8     10.08      0.00
   -2   -2    8      4.55      0.00
   -1   -2    8    -12.60      0.00
    0   -2    8    -13.64      0.00
    1   -2    8     -9.58      0.00
    2   -2    8     -5.37      0.00
    3   -2    8     -6.25      0.00
    4   -2    8      1.20      0.00
    5   -2    8      0.69      0.00
    6   -2    8      3.73      0.00
    7   -2    8      1.54      0.00
    8   -2    8     -0.16      0.00
    9   -2    8      0.06      0.00
   10   -2    8      2.84      0.00
   11   -2    8     -2.00      0.00
  -15   -1    8     -1.14      0.00
  -14   -1    8      1.03      0.00
  -13   -1    8      0.88      0.00
  -12   -1    8      0.27      0.00
  -11   -1    8     -0.99      0.00
  -10   -1    8     -9.64      0.00
   -9   -1    8      2.11      0.00
   -8   -1    8     -6.52      0.00
   -7   -1    8    -12.13      0.00
   -6   -1    8     -6.75      0.00
   -5   -1    8     -9.83      0.00
   -4   -1    8      9.09      0.00
   -3   -1    8      0.23      0.00
   -2   -1    8     -5.30      0.00
   -1   -1    8      0.37      0.00
    0   -1    8      5.78      0.00
    1   -1    8      5.41      0.00
    2   -1    8      5.66      0.00
    3   -1    8     11.51      0.00
    4   -1    8     -5.58      0.00
    5   -1    8      2.77      0.00
    6   -1    8      2.17      0.00
    7   -1    8     -0.54      0.00
    8   -1    8      1.80      0.00
    9   -1    8      2.15      0.00
   10   -1    8     -2.69      0.00
  -15    0    8     -2.87      0.00
  -14    0    8     -4.97      0.00
  -13    0    8     -2.26      0.00
  -12    0    8     -6.07      0.00
  -11    0    8     -7.49      0.00
  -10    0    8      2.38      0.00
   -9    0    8     -2.69      0.00
   -8    0    8     -3.57      0.00
   -7    0    8     -1.84      0.00
   -6    0    8     -8.15      0.00
   -5    0    8      7.90      0.00
   -4    0    8     -6.53      0.00
   -3    0    8     -7.67      0.00
   -2    0    8     -0.08      0.00
   -1    0    8     -0.70      0.00
    0    0    8     -3.09      0.00
    1    0    8     -3.70      0.00
    2    0    8     -2.19      0.00
    3    0    8     -6.34      0.00
    4    0    8      7.55      0.00
    5    0    8      4.26      0.00
    6    0    8     -5.53      0.00
    7    0    8     -1.04      0.00
    8    0    8     -0.48      0.00
    9    0    8     -2.85      0.00
   10    0    8      2.48      0.00
  -15    1    8     -3.28      0.00
  -14    1    8      4.63      0.00
  -13    1    8      1.35      0.00
  -12    1    8      1.77      0.00
  -11    1    8      5.88      0.00
  -10    1    8     -3.45      0.00
   -9    1    8     -2.24      0.00
   -8    1    8     -2.18      0.00
   -7    1    8     -5.07      0.00
   -6    1    8      9.29      0.00
   -5    1    8      2.81      0.00
   -4    1    8      2.31      0.00
   -3    1    8      7.30      0.00
   -2    1    8      2.64      0.00
   -1    1    8     -1.64      0.00
    0    1    8     -7.04      0.00
    1    1    8      1.13      0.00
    2    1    8      5.22      0.00
    3    1    8      3.77      0.00
    4    1    8     -1.54      0.00
    5    1    8     -0.69      0.00
    6    1    8      1.75      0.00
    7    1    8      1.72      0.00
    8    1    8     -0.30      0.00
    9    1    8     -2.96      0.00
  -15    2    8      2.08      0.00
  -14    2    8      3.27      0.00
  -13    2    8     -2.73      0.00
  -12    2    8      2.62      0.00
  -11    2    8     -6.59      0.00
  -10    2    8     -1.27      0.00
   -9    2    8     -0.35      0.00
   -8    2    8     -1.44      0.00
   -7    2    8      6.42      0.00
   -6    2    8     -0.25      0.00
   -5    2    8      0.40      0.00
   -4    2    8      5.03      0.00
   -3    2    8      3.82      0.00
   -2    2    8      3.69      0.00
   -1    2    8     -0.10      0.00
    0    2    8      1.11      0.00
    1    2    8     -2.59      0.00
    2    2    8     -6.76      0.00
    3    2    8      2.16      0.00
    4    2    8     -0.68      0.00
    5    2    8     -1.98      0.00
    6    2    8      1.49      0.00
    7    2    8     -1.44      0.00
    8    2    8     -6.40      0.00
    9    2    8     -3.37      0.00
  -15    3    8      0.11      0.00
  -14    3    8     -3.18      0.00
  -13    3    8      1.10      0.00
  -12    3    8      0.60      0.00
  -11    3    8     -0.78      0.00
  -10    3    8      1.20      0.00
   -9    3    8      0.28      0.00
   -8    3    8      7.34      0.00
   -7    3    8      0.08      0.00
   -6    3    8     -3.12      0.00
   -5    3    8      1.28      0.00
   -4    3    8     -6.80      0.00
   -3    3    8     -3.80      0.00
   -2    3    8     -5.97      0.00
   -1    3    8    -10.17      0.00
    0    3    8     -2.23      0.00
    1    3    8      4.71      0.00
    2    3    8     10.69      0.00
    3    3    8     -2.74      0.00
    4    3    8      1.12      0.00
    5    3    8      3.55      0.00
    6    3    8     -2.31      0.00
    7    3    8     -1.59      0.00
    8    3    8     -0.93      0.00
  -15    4    8     -0.86      0.00
  -14    4    8     -2.46      0.00
  -13    4    8      4.39      0.00
  -12    4    8     -0.89      0.00
  -11    4    8      4.89      0.00
  -10    4    8     -1.79      0.00
   -9    4    8     -0.78      0.00
   -8    4    8     -5.36      0.00
   -7    4    8     -6.37      0.00
   -6    4    8     -2.26      0.00
   -5    4    8      0.44      0.00
   -4    4    8      2.36      0.00
   -3    4    8      2.94      0.00
   -2    4    8      1.83      0.00
   -1    4    8      6.99      0.00
    0    4    8      4.80      0.00
    1    4    8      2.31      0.00
    2    4    8     -4.05      0.00
    3    4    8      0.97      0.00
    4    4    8      0.83      0.00
    5    4    8     -0.93      0.00
    6    4    8      2.62      0.00
    7    4    8     -1.58      0.00
    8    4    8     -8.31      0.00
  -15    5    8     -0.31      0.00
  -14    5    8      2.76      0.00
  -13    5    8      1.02      0.00
  -12    5    8      6.08      0.00
  -11    5    8      1.48      0.00
  -10    5    8     -0.35      0.00
   -9    5    8      2.49      0.00
   -8    5    8      2.38      0.00
   -7    5    8      1.43      0.00
   -6    5    8      8.03      0.00
   -5    5    8     -3.82      0.00
   -4    5    8    -12.20      0.00
   -3    5    8     -4.23      0.00
   -2    5    8     -5.76      0.00
   -1    5    8     -9.87      0.00
    0    5    8     -0.90      0.00
    1    5    8      0.21      0.00
    2    5    8     -0.08      0.00
    3    5    8      1.07      0.00
    4    5    8     -2.58      0.00
    5    5    8     -3.50      0.00
    6    5    8     -3.93      0.00
    7    5    8     -0.86      0.00
  -15    6    8     -3.48      0.00
  -14    6    8      1.40      0.00
  -13    6    8      0.17      0.00
  -12    6    8      0.34      0.00
  -11    6    8     -2.69      0.00
  -10    6    8     -3.45      0.00
   -9    6    8     -7.81      0.00
   -8    6    8     -7.41      0.00
   -7    6    8     -4.08      0.00
   -6    6    8     -5.88      0.00
   -5    6    8     -8.72      0.00
   -4    6    8      5.25      0.00
   -3    6    8      3.64      0.00
   -2    6    8     -2.45      0.00
   -1    6    8      6.41      0.00
    0    6    8     -2.78      0.00
    1    6    8      0.17      0.00
    2    6    8      2.39      0.00
    3    6    8     -1.03      0.00
    4    6    8     -0.90      0.00
    5    6    8      2.57      0.00
    6    6    8      4.91      0.00
  -14    7    8      1.11      0.00
  -13    7    8      4.84      0.00
  -12    7    8      3.50      0.00
  -11    7    8     -1.31      0.00
  -10    7    8      0.12      0.00
   -9    7    8      4.59      0.00
   -8    7    8      2.64      0.00
   -7    7    8      9.25      0.00
   -6    7    8      0.67      0.00
   -5    7    8      0.74      0.00
   -4    7    8     -1.71      0.00
   -3    7    8     -4.84      0.00
   -2    7    8     -0.16      0.00
   -1    7    8     -9.31      0.00
    0    7    8      2.58      0.00
    1    7    8      2.15      0.00
    2    7    8     -1.10      0.00
    3    7    8      0.00      0.00
    4    7    8     -3.53      0.00
    5    7    8     -0.78      0.00
  -14    8    8      1.62      0.00
  -13    8    8     -3.61      0.00
  -12    8    8     -4.50      0.00
  -11    8    8      0.11      0.00
  -10    8    8      1.75      0.00
   -9    8    8     -4.67      0.00
   -8    8    8      0.86      0.00
   -7    8    8     -5.53      0.00
   -6    8    8     -4.55      0.00
   -5    8    8     -3.06      0.00
   -4    8    8     -2.88      0.00
   -3    8    8      0.73      0.00
   -2    8    8     -0.09      0.00
   -1    8    8      3.41      0.00
    0    8    8      2.64      0.00
    1    8    8     -0.63      0.00
    2    8    8     -1.85      0.00
    3    8    8     -3.10      0.00
    4    8    8     -1.35      0.00
  -13    9    8      0.02      0.00
  -12    9    8     -2.16      0.00
  -11    9    8     -3.26      0.00
  -10    9    8     -4.86      0.00
   -9    9    8     -1.90      0.00
   -8    9    8     -2.51      0.00
   -7    9    8     -1.14      0.00
   -6    9    8      0.30      0.00
   -5    9    8     -1.68      0.00
   -4    9    8      3.23      0.00
   -3    9    8      0.29      0.00
   -2    9    8     -2.50      0.00
   -1    9    8     -3.60      0.00
    0    9    8     -1.49      0.00
    1    9    8     -1.37      0.00
    2    9    8      5.60      0.00
    3    9    8      1.92      0.00
  -13   10    8     -5.71      0.00
  -12   10    8     -2.55      0.00
  -11   10    8     -1.08      0.00
  -10   10    8     -3.61      0.00
   -9   10    8     -0.72      0.00
   -8   10    8     -2.31      0.00
   -7   10    8     -1.55      0.00
   -6   10    8     -0.92      0.00
   -5   10    8     -1.30      0.00
   -4   10    8      0.83      0.00
   -3   10    8      0.82      0.00
   -2   10    8     -0.98      0.00
   -1   10    8      2.91      0.00
    0   10    8      0.58      0.00
    1   10    8      3.29      0.00
    2   10    8      0.86      0.00
  -11   11    8      4.06      0.00
  -10   11    8      4.01      0.00
   -9   11    8      0.58      0.00
   -8   11    8     -0.09      0.00
   -7   11    8      4.41      0.00
   -6   11    8     -0.51      0.00
   -5   11    8      5.52      0.00
   -4   11    8      4.80      0.00
   -3   11    8      0.97      0.00
   -2   11    8      1.27      0.00
   -1   11    8     -0.11      0.00
    0   11    8      5.52      0.00
  -10   12    8      1.01      0.00
   -9   12    8      0.12      0.00
   -8   12    8     -0.17      0.00
   -7   12    8      0.08      0.00
   -6   12    8      5.50      0.00
   -5   12    8      2.07      0.00
   -4   12    8      0.11      0.00
   -3   12    8     -2.41      0.00
   -2   12    8     -1.51      0.00
   -1  -19    9      0.69      0.00
    0  -19    9      0.80      0.00
    1  -19    9     -0.89      0.00
    2  -19    9     -1.72      0.00
    3  -19    9      3.90      0.00
    4  -19    9      6.18      0.00
    5  -19    9      2.18      0.00
    6  -19    9     -2.69      0.00
   -4  -18    9      2.68      0.00
   -3  -18    9     -2.75      0.00
   -2  -18    9      1.87      0.00
   -1  -18    9     -1.53      0.00
    0  -18    9      0.96      0.00
    1  -18    9     -6.34      0.00
    2  -18    9     -1.23      0.00
    3  -18    9     -1.07      0.00
    4  -18    9     -0.20      0.00
    5  -18    9     -1.02      0.00
    6  -18    9      0.01      0.00
    7  -18    9     -0.87      0.00
    8  -18    9     -0.59      0.00
   -5  -17    9     -1.25      0.00
   -4  -17    9     -8.26      0.00
   -3  -17    9     -2.11      0.00
   -2  -17    9      1.13      0.00
   -1  -17    9      3.52      0.00
    0  -17    9     -1.14      0.00
    1  -17    9      0.31      0.00
    2  -17    9     -1.41      0.00
    3  -17    9     -3.04      0.00
    4  -17    9     -5.52      0.00
    5  -17    9     -3.39      0.00
    6  -17    9     -0.46      0.00
    7  -17    9     -0.38      0.00
    8  -17    9     -1.28      0.00
    9  -17    9      2.27      0.00
   -7  -16    9     -7.32      0.00
   -6  -16    9      0.69      0.00
   -5  -16    9     -1.28      0.00
   -4  -16    9      4.77      0.00
   -3  -16    9      5.62      0.00
   -2  -16    9      4.32      0.00
   -1  -16    9     -0.01      0.00
    0  -16    9     -2.85      0.00
    1  -16    9     -0.78      0.00
    2  -16    9     -2.54      0.00
    3  -16    9     -0.36      0.00
    4  -16    9      0.82      0.00
    5  -16    9      0.74      0.00
    6  -16    9     -1.47      0.00
    7  -16    9      3.80      0.00
    8  -16    9      2.32      0.00
    9  -16    9     -0.30      0.00
   -8  -15    9     -0.19      0.00
   -7  -15    9     11.14      0.00
   -6  -15    9      2.91      0.00
   -5  -15    9      1.64      0.00
   -4  -15    9     -2.67      0.00
   -3  -15    9     -1.60      0.00
   -2  -15    9     -0.21      0.00
   -1  -15    9      2.44      0.00
    0  -15    9      0.59      0.00
    1  -15    9      0.66      0.00
    2  -15    9      1.13      0.00
    3  -15    9     -1.53      0.00
    4  -15    9      3.34      0.00
    5  -15    9     -3.05      0.00
    6  -15    9     -1.01      0.00
    7  -15    9     -0.42      0.00
    8  -15    9     -2.81      0.00
    9  -15    9     -1.42      0.00
   10  -15    9     -3.08      0.00
   -9  -14    9      2.22      0.00
   -8  -14    9      5.48      0.00
   -7  -14    9     -4.49      0.00
   -6  -14    9     -4.02      0.00
   -5  -14    9     -3.28      0.00
   -4  -14    9     -0.72      0.00
   -3  -14    9      5.05      0.00
   -2  -14    9      3.63      0.00
   -1  -14    9      1.59      0.00
    0  -14    9      3.35      0.00
    1  -14    9     -0.56      0.00
    2  -14    9     -2.19      0.00
    3  -14    9      4.33      0.00
    4  -14    9      0.89      0.00
    5  -14    9     -2.35      0.00
    6  -14    9      3.49      0.00
    7  -14    9     -1.34      0.00
    8  -14    9     -0.88      0.00
    9  -14    9     -2.00      0.00
   10  -14    9     -1.99      0.00
  -10  -13    9      1.17      0.00
   -9  -13    9      1.16      0.00
   -8  -13    9      3.85      0.00
   -7  -13    9      3.89      0.00
   -6  -13    9      4.39      0.00
   -5  -13    9      3.25      0.00
   -4  -13    9      5.60      0.00
   -3  -13    9      0.37      0.00
   -2  -13    9      0.24      0.00
   -1  -13    9     -4.04      0.00
    0  -13    9     -0.08      0.00
    1  -13    9     -1.51      0.00
    2  -13    9      1.87      0.00
    3  -13    9      2.90      0.00
    4  -13    9      0.72      0.00
    5  -13    9      0.70      0.00
    6  -13    9     -0.31      0.00
    7  -13    9     -0.75      0.00
    8  -13    9     -0.85      0.00
    9  -13    9     -2.23      0.00
   10  -13    9      0.66      0.00
   11  -13    9     -0.58      0.00
  -10  -12    9     -0.13      0.00
   -9  -12    9      5.70      0.00
   -8  -12    9      1.52      0.00
   -7  -12    9      1.34      0.00
   -6  -12    9     -2.90      0.00
   -5  -12    9     -2.98      0.00
   -4  -12    9     -5.60      0.00
   -3  -12    9     -5.75      0.00
   -2  -12    9     -2.05      0.00
   -1  -12    9      4.45      0.00
    0  -12    9     -0.44      0.00
    1  -12    9      3.17      0.00
    2  -12    9      2.42      0.00
    3  -12    9      1.57      0.00
    4  -12    9     -4.01      0.00
    5  -12    9     -8.25      0.00
    6  -12    9     -4.77      0.00
    7  -12    9     -2.31      0.00
    8  -12    9      2.09      0.00
    9  -12    9      1.71      0.00
   10  -12    9     -2.71      0.00
   11  -12    9      0.33      0.00
  -11  -11    9      6.05      0.00
  -10  -11    9      3.05      0.00
   -9  -11    9     -2.46      0.00
   -8  -11    9      1.24      0.00
   -7  -11    9     -3.03      0.00
   -6  -11    9      1.08      0.00
   -5  -11    9     -2.86      0.00
   -4  -11    9     -3.49      0.00
   -3  -11    9      0.54      0.00
   -2  -11    9      3.65      0.00
   -1  -11    9      4.09      0.00
    0  -11    9      6.24      0.00
    1  -11    9      3.19      0.00
    2  -11    9     -4.68      0.00
    3  -11    9     -6.45      0.00
    4  -11    9     -2.32      0.00
    5  -11    9      1.36      0.00
    6  -11    9      2.52      0.00
    7  -11    9     -0.61      0.00
    8  -11    9     -3.82      0.00
    9  -11    9     -3.61      0.00
   10  -11    9     -4.19      0.00
   11  -11    9     -2.64      0.00
  -12  -10    9      3.66      0.00
  -11  -10    9     -4.74      0.00
  -10  -10    9     -4.53      0.00
   -9  -10    9     -0.49      0.00
   -8  -10    9      0.79      0.00
   -7  -10    9      3.46      0.00
   -6  -10    9      5.40      0.00
   -5  -10    9      4.58      0.00
   -4  -10    9      3.63      0.00
   -3  -10    9      1.84      0.00
   -2  -10    9     -0.86      0.00
   -1  -10    9     -9.95      0.00
    0  -10    9     -2.58      0.00
    1  -10    9     -8.96      0.00
    2  -10    9     -2.64      0.00
    3  -10    9      1.96      0.00
    4  -10    9     -1.06      0.00
    5  -10    9     -1.76      0.00
    6  -10    9     -7.45      0.00
    7  -10    9     -1.60      0.00
    8  -10    9     -0.42      0.00
    9  -10    9     -2.02      0.00
   10  -10    9     -1.75      0.00
   11  -10    9     -4.29      0.00
  -12   -9    9     -4.14      0.00
  -11   -9    9      0.29      0.00
  -10   -9    9     -1.81      0.00
   -9   -9    9      8.24      0.00
   -8   -9    9      4.97      0.00
   -7   -9    9      8.31      0.00
   -6   -9    9      3.56      0.00
   -5   -9    9     -4.73      0.00
   -4   -9    9    -13.68      0.00
   -3   -9    9    -13.91      0.00
   -2   -9    9    -15.77      0.00
   -1   -9    9      5.82      0.00
    0   -9    9     -1.54      0.00
    1   -9    9      1.70      0.00
    2   -9    9      1.09      0.00
    3   -9    9      8.40      0.00
    4   -9    9      6.09      0.00
    5   -9    9      0.58      0.00
    6   -9    9     -3.14      0.00
    7   -9    9     -0.95      0.00
    8   -9    9      2.01      0.00
    9   -9    9      1.44      0.00
   10   -9    9     -2.21      0.00
   11   -9    9      3.32      0.00
  -13   -8    9      1.26      0.00
  -12   -8    9     -2.53      0.00
  -11   -8    9     -3.33      0.00
  -10   -8    9      5.91      0.00
   -9   -8    9      2.79      0.00
   -8   -8    9     -0.38      0.00
   -7   -8    9     -0.49      0.00
   -6   -8    9     -6.27      0.00
   -5   -8    9     -5.75      0.00
   -4   -8    9     -1.10      0.00
   -3   -8    9      7.84      0.00
   -2   -8    9     16.66      0.00
   -1   -8    9     -3.31      0.00
    0   -8    9      2.56      0.00
    1   -8    9      6.56      0.00
    2   -8    9      8.91      0.00
    3   -8    9      0.16      0.00
    4   -8    9     -5.64      0.00
    5   -8    9     -7.74      0.00
    6   -8    9     -0.15      0.00
    7   -8    9      3.65      0.00
    8   -8    9      5.84      0.00
    9   -8    9      5.33      0.00
   10   -8    9      1.76      0.00
   11   -8    9      3.33      0.00
  -13   -7    9      2.26      0.00
  -12   -7    9      0.70      0.00
  -11   -7    9      2.63      0.00
  -10   -7    9     -3.09      0.00
   -9   -7    9     -4.44      0.00
   -8   -7    9     -2.31      0.00
   -7   -7    9     -2.53      0.00
   -6   -7    9      2.95      0.00
   -5   -7    9     10.12      0.00
   -4   -7    9     14.43      0.00
   -3   -7    9      6.61      0.00
   -2   -7    9    -16.18      0.00
   -1   -7    9     -2.34      0.00
    0   -7    9      4.80      0.00
    1   -7    9     -8.34      0.00
    2   -7    9    -13.15      0.00
    3   -7    9     -9.41      0.00
    4   -7    9     -5.33      0.00
    5   -7    9      2.65      0.00
    6   -7    9      2.27      0.00
    7   -7    9      4.28      0.00
    8   -7    9      0.97      0.00
    9   -7    9     -1.67      0.00
   10   -7    9      5.17      0.00
   11   -7    9      2.36      0.00
  -14   -6    9      5.07      0.00
  -13   -6    9      0.71      0.00
  -12   -6    9     -1.03      0.00
  -11   -6    9     -3.24      0.00
  -10   -6    9      0.09      0.00
   -9   -6    9      1.33      0.00
   -8   -6    9     -0.43      0.00
   -7   -6    9      6.10      0.00
   -6   -6    9     15.04      0.00
   -5   -6    9     11.50      0.00
   -4   -6    9      0.32      0.00
   -3   -6    9    -22.08      0.00
   -2   -6    9    -16.03      0.00
   -1   -6    9     -2.50      0.00
    0   -6    9     -8.89      0.00
    1   -6    9     -0.89      0.00
    2   -6    9     -2.88      0.00
    3   -6    9      0.04      0.00
    4   -6    9      8.63      0.00
    5   -6    9      4.70      0.00
    6   -6    9      4.95      0.00
    7   -6    9     -0.71      0.00
    8   -6    9      3.89      0.00
    9   -6    9      2.49      0.00
   10   -6    9     -3.39      0.00
   11   -6    9     -0.91      0.00
  -14   -5    9      1.81      0.00
  -13   -5    9     -1.22      0.00
  -12   -5    9      0.26      0.00
  -11   -5    9      2.85      0.00
  -10   -5    9      2.73      0.00
   -9   -5    9     -0.65      0.00
   -8   -5    9      3.04      0.00
   -7   -5    9     -5.54      0.00
   -6   -5    9     -3.80      0.00
   -5   -5    9    -14.60      0.00
   -4   -5    9    -17.36      0.00
   -3   -5    9     -4.87      0.00
   -2   -5    9      8.41      0.00
   -1   -5    9      6.86      0.00
    0   -5    9      9.13      0.00
    1   -5    9     -0.69      0.00
    2   -5    9      6.59      0.00
    3   -5    9      3.30      0.00
    4   -5    9     -1.52      0.00
    5   -5    9     -6.69      0.00
    6   -5    9     -6.67      0.00
    7   -5    9      3.14      0.00
    8   -5    9      2.54      0.00
    9   -5    9     -1.63      0.00
   10   -5    9     -1.51      0.00
   11   -5    9     -0.08      0.00
  -14   -4    9      4.01      0.00
  -13   -4    9      3.38      0.00
  -12   -4    9      1.56      0.00
  -11   -4    9     -0.17      0.00
  -10   -4    9      1.16      0.00
   -9   -4    9     -1.99      0.00
   -8   -4    9    -12.34      0.00
   -7   -4    9     -0.37      0.00
   -6   -4    9     -4.68      0.00
   -5   -4    9     -3.05      0.00
   -4   -4    9      8.97      0.00
   -3   -4    9     -2.88      0.00
   -2   -4    9    -10.68      0.00
   -1   -4    9     -6.84      0.00
    0   -4    9     -0.96      0.00
    1   -4    9      3.87      0.00
    2   -4    9     -4.64      0.00
    3   -4    9     -5.16      0.00
    4   -4    9     -3.90      0.00
    5   -4    9      0.41      0.00
    6   -4    9      4.85      0.00
    7   -4    9     -1.85      0.00
    8   -4    9     -1.42      0.00
    9   -4    9     -4.00      0.00
   10   -4    9     -4.71      0.00
   11   -4    9     -0.17      0.00
  -15   -3    9      3.04      0.00
  -14   -3    9     -0.15      0.00
  -13   -3    9     -0.14      0.00
  -12   -3    9     -2.18      0.00
  -11   -3    9      2.73      0.00
  -10   -3    9     -1.31      0.00
   -9   -3    9     -2.20      0.00
   -8   -3    9      5.37      0.00
   -7   -3    9      4.71      0.00
   -6   -3    9      3.78      0.00
   -5   -3    9     20.32      0.00
   -4   -3    9      7.66      0.00
   -3   -3    9     -3.29      0.00
   -2   -3    9      5.25      0.00
   -1   -3    9      9.75      0.00
    0   -3    9     10.64      0.00
    1   -3    9      4.60      0.00
    2   -3    9      1.43      0.00
    3   -3    9     -2.47      0.00
    4   -3    9     -1.71      0.00
    5   -3    9      0.65      0.00
    6   -3    9     -3.41      0.00
    7   -3    9     -0.99      0.00
    8   -3    9     -3.13      0.00
    9   -3    9     -4.87      0.00
   10   -3    9      0.64      0.00
  -15   -2    9     -3.26      0.00
  -14   -2    9     -0.54      0.00
  -13   -2    9     -2.72      0.00
  -12   -2    9     -0.10      0.00
  -11   -2    9      4.23      0.00
  -10   -2    9      0.68      0.00
   -9   -2    9      4.91      0.00
   -8   -2    9     -0.24      0.00
   -7   -2    9     -2.27      0.00
   -6   -2    9      3.86      0.00
   -5   -2    9     -9.70      0.00
   -4   -2    9    -16.93      0.00
   -3   -2    9    -10.98      0.00
   -2   -2    9     -2.13      0.00
   -1   -2    9      5.00      0.00
    0   -2    9      1.26      0.00
    1   -2    9     -1.07      0.00
    2   -2    9     -6.73      0.00
    3   -2    9      5.18      0.00
    4   -2    9      3.77      0.00
    5   -2    9     -4.06      0.00
    6   -2    9     -4.06      0.00
    7   -2    9     -4.73      0.00
    8   -2    9     -1.26      0.00
    9   -2    9      3.80      0.00
   10   -2    9      6.44      0.00
  -15   -1    9     -2.28      0.00
  -14   -1    9     -3.95      0.00
  -13   -1    9     -2.16      0.00
  -12   -1    9      3.86      0.00
  -11   -1    9     -3.87      0.00
  -10   -1    9     -1.37      0.00
   -9   -1    9     -3.98      0.00
   -8   -1    9     -2.81      0.00
   -7   -1    9      2.34      0.00
   -6   -1    9     -6.65      0.00
   -5   -1    9     -1.42      0.00
   -4   -1    9     -1.78      0.00
   -3   -1    9      3.88      0.00
   -2   -1    9      8.24      0.00
   -1   -1    9     -2.55      0.00
    0   -1    9      1.32      0.00
    1   -1    9     -3.97      0.00
    2   -1    9      7.89      0.00
    3   -1    9     -5.33      0.00
    4   -1    9    -13.58      0.00
    5   -1    9      1.12      0.00
    6   -1    9     -1.27      0.00
    7   -1    9     -0.16      0.00
    8   -1    9      2.19      0.00
    9   -1    9     -0.39      0.00
   10   -1    9     -4.55      0.00
  -15    0    9     -5.32      0.00
  -14    0    9      1.58      0.00
  -13    0    9      1.98      0.00
  -12    0    9     -4.27      0.00
  -11    0    9     -1.27      0.00
  -10    0    9     -0.24      0.00
   -9    0    9      4.43      0.00
   -8    0    9      6.51      0.00
   -7    0    9     -2.88      0.00
   -6    0    9      2.48      0.00
   -5    0    9     -0.96      0.00
   -4    0    9     -0.81      0.00
   -3    0    9      1.70      0.00
   -2    0    9     -7.41      0.00
   -1    0    9      5.72      0.00
    0    0    9     -4.89      0.00
    1    0    9     -0.60      0.00
    2    0    9     -2.34      0.00
    3    0    9     -3.18      0.00
    4    0    9      8.29      0.00
    5    0    9     -1.69      0.00
    6    0    9     -0.06      0.00
    7    0    9      1.29      0.00
    8    0    9     -2.71      0.00
    9    0    9     -4.32      0.00
  -15    1    9      1.35      0.00
  -14    1    9      3.65      0.00
  -13    1    9     -3.98      0.00
  -12    1    9      3.39      0.00
  -11    1    9      2.29      0.00
  -10    1    9      4.42      0.00
   -9    1    9      6.67      0.00
   -8    1    9     -1.40      0.00
   -7    1    9      4.35      0.00
   -6    1    9     -5.57      0.00
   -5    1    9     -2.83      0.00
   -4    1    9     -3.16      0.00
   -3    1    9    -11.86      0.00
   -2    1    9      6.61      0.00
   -1    1    9     -6.90      0.00
    0    1    9      3.10      0.00
    1    1    9      8.08      0.00
    2    1    9     -4.39      0.00
    3    1    9     -2.39      0.00
    4    1    9     -6.59      0.00
    5    1    9     -0.81      0.00
    6    1    9     -3.74      0.00
    7    1    9     -1.71      0.00
    8    1    9     -4.01      0.00
    9    1    9     -5.97      0.00
  -15    2    9      7.27      0.00
  -14    2    9     -1.40      0.00
  -13    2    9      3.94      0.00
  -12    2    9      0.71      0.00
  -11    2    9      0.59      0.00
  -10    2    9      2.34      0.00
   -9    2    9     -6.03      0.00
   -8    2    9      2.71      0.00
   -7    2    9     -4.15      0.00
   -6    2    9      2.91      0.00
   -5    2    9      7.77      0.00
   -4    2    9     -3.40      0.00
   -3    2    9     15.00      0.00
   -2    2    9      2.71      0.00
   -1    2    9      6.03      0.00
    0    2    9      4.71      0.00
    1    2    9     -7.06      0.00
    2    2    9      1.84      0.00
    3    2    9      2.35      0.00
    4    2    9      0.81      0.00
    5    2    9      2.90      0.00
    6    2    9      5.95      0.00
    7    2    9     -1.94      0.00
    8    2    9     -4.66      0.00
  -15    3    9     -3.23      0.00
  -14    3    9     -1.78      0.00
  -13    3    9     -1.10      0.00
  -12    3    9      2.97      0.00
  -11    3    9      0.67      0.00
  -10    3    9     -6.31      0.00
   -9    3    9      3.16      0.00
   -8    3    9      3.03      0.00
   -7    3    9      3.47      0.00
   -6    3    9      5.80      0.00
   -5    3    9     -7.68      0.00
   -4    3    9     -1.84      0.00
   -3    3    9     -6.98      0.00
   -2    3    9     -8.01      0.00
   -1    3    9     -2.95      0.00
    0    3    9     -1.64      0.00
    1    3    9      7.12      0.00
    2    3    9      2.64      0.00
    3    3    9     -1.82      0.00
    4    3    9      3.06      0.00
    5    3    9     -3.21      0.00
    6    3    9     -5.29      0.00
    7    3    9     -0.17      0.00
  -15    4    9     -0.67      0.00
  -14    4    9      1.24      0.00
  -13    4    9      5.90      0.00
  -12    4    9     -0.16      0.00
  -11    4    9     -1.87      0.00
  -10    4    9      0.29      0.00
   -9    4    9      1.84      0.00
   -8    4    9      0.41      0.00
   -7    4    9      3.30      0.00
   -6    4    9     -1.66      0.00
   -5    4    9      6.16      0.00
   -4    4    9      0.93      0.00
   -3    4    9      1.03      0.00
   -2    4    9      0.07      0.00
   -1    4    9     -0.44      0.00
    0    4    9      2.67      0.00
    1    4    9     -0.82      0.00
    2    4    9     -4.24      0.00
    3    4    9     -2.02      0.00
    4    4    9     -4.98      0.00
    5    4    9      0.88      0.00
    6    4    9      5.50      0.00
    7    4    9      2.52      0.00
  -15    5    9      1.27      0.00
  -14    5    9     -0.72      0.00
  -13    5    9     -2.11      0.00
  -12    5    9     -0.57      0.00
  -11    5    9     -0.94      0.00
  -10    5    9     -1.97      0.00
   -9    5    9     -0.58      0.00
   -8    5    9     -0.08      0.00
   -7    5    9      2.16      0.00
   -6    5    9      7.49      0.00
   -5    5    9     -9.26      0.00
   -4    5    9     -4.95      0.00
   -3    5    9     -0.72      0.00
   -2    5    9     -5.30      0.00
   -1    5    9     -0.78      0.00
    0    5    9      2.42      0.00
    1    5    9     -0.11      0.00
    2    5    9      1.44      0.00
    3    5    9      1.59      0.00
    4    5    9     -2.63      0.00
    5    5    9     -0.61      0.00
    6    5    9     -4.63      0.00
  -14    6    9      2.83      0.00
  -13    6    9     -0.14      0.00
  -12    6    9      4.27      0.00
  -11    6    9     -0.39      0.00
  -10    6    9      1.79      0.00
   -9    6    9     -2.10      0.00
   -8    6    9      0.46      0.00
   -7    6    9      5.04      0.00
   -6    6    9     -4.75      0.00
   -5    6    9      4.44      0.00
   -4    6    9      7.12      0.00
   -3    6    9     -1.64      0.00
   -2    6    9      6.69      0.00
   -1    6    9      7.61      0.00
    0    6    9      0.10      0.00
    1    6    9      1.42      0.00
    2    6    9     -2.47      0.00
    3    6    9     -4.81      0.00
    4    6    9      1.55      0.00
    5    6    9     -1.83      0.00
  -14    7    9     -2.02      0.00
  -13    7    9      0.60      0.00
  -12    7    9     -4.04      0.00
  -11    7    9     -1.67      0.00
  -10    7    9     -3.22      0.00
   -9    7    9     -5.40      0.00
   -8    7    9      0.88      0.00
   -7    7    9     -2.59      0.00
   -6    7    9      2.16      0.00
   -5    7    9     -0.09      0.00
   -4    7    9     -2.39      0.00
   -3    7    9      2.53      0.00
   -2    7    9     -0.66      0.00
   -1    7    9     -5.46      0.00
    0    7    9      3.05      0.00
    1    7    9     -3.19      0.00
    2    7    9     -0.93      0.00
    3    7    9      2.50      0.00
    4    7    9     -5.91      0.00
  -13    8    9     -1.80      0.00
  -12    8    9      0.63      0.00
  -11    8    9      0.34      0.00
  -10    8    9     -2.52      0.00
   -9    8    9      2.60      0.00
   -8    8    9      0.97      0.00
   -7    8    9      0.37      0.00
   -6    8    9      1.21      0.00
   -5    8    9     -2.30      0.00
   -4    8    9     -1.34      0.00
   -3    8    9      0.30      0.00
   -2    8    9      1.19      0.00
   -1    8    9      6.20      0.00
    0    8    9      2.41      0.00
    1    8    9      0.21      0.00
    2    8    9      1.64      0.00
    3    8    9     -2.38      0.00
  -13    9    9     -0.32      0.00
  -12    9    9     -1.06      0.00
  -11    9    9      3.08      0.00
  -10    9    9      0.92      0.00
   -9    9    9      1.61      0.00
   -8    9    9      0.91      0.00
   -7    9    9      3.96      0.00
   -6    9    9      0.13      0.00
   -5    9    9     -1.06      0.00
   -4    9    9      2.07      0.00
   -3    9    9      0.61      0.00
   -2    9    9      2.89      0.00
   -1    9    9      1.88      0.00
    0    9    9      0.50      0.00
    1    9    9     -2.65      0.00
    2    9    9     -1.98      0.00
  -12   10    9      8.37      0.00
  -11   10    9      1.24      0.00
  -10   10    9      3.91      0.00
   -9   10    9      4.59      0.00
   -8   10    9     -1.50      0.00
   -7   10    9      1.62      0.00
   -6   10    9      1.99      0.00
   -5   10    9     -2.74      0.00
   -4   10    9      2.14      0.00
   -3   10    9      0.71      0.00
   -2   10    9      3.50      0.00
   -1   10    9      5.48      0.00
    0   10    9     -3.72      0.00
  -10   11    9      2.91      0.00
   -9   11    9     -3.44      0.00
   -8   11    9      4.62      0.00
   -7   11    9      5.33      0.00
   -6   11    9     -5.84      0.00
   -5   11    9      6.16      0.00
   -4   11    9     -3.18      0.00
   -3   11    9      0.41      0.00
   -2   11    9     -2.41      0.00
   -7   12    9      3.65      0.00
   -6   12    9     12.00      0.00
   -5   12    9      0.92      0.00
   -2  -19   10      2.09      0.00
   -1  -19   10      2.19      0.00
    0  -19   10      0.49      0.00
    1  -19   10     -3.87      0.00
    2  -19   10     -0.27      0.00
    3  -19   10     -0.93      0.00
    4  -19   10     -2.89      0.00
    5  -19   10     -2.85      0.00
   -4  -18   10      3.00      0.00
   -3  -18   10      1.55      0.00
   -2  -18   10      3.78      0.00
   -1  -18   10      0.30      0.00
    0  -18   10     -1.81      0.00
    1  -18   10     -1.18      0.00
    2  -18   10      1.29      0.00
    3  -18   10     -3.03      0.00
    4  -18   10     -2.04      0.00
    5  -18   10      0.04      0.00
    6  -18   10      1.90      0.00
    7  -18   10      4.49      0.00
   -5  -17   10     -1.28      0.00
   -4  -17   10     -4.70      0.00
   -3  -17   10      5.29      0.00
   -2  -17   10      0.05      0.00
   -1  -17   10      1.42      0.00
    0  -17   10     -0.52      0.00
    1  -17   10      2.78      0.00
    2  -17   10     -0.92      0.00
    3  -17   10     -1.00      0.00
    4  -17   10     -1.02      0.00
    5  -17   10      2.00      0.00
    6  -17   10     -0.10      0.00
    7  -17   10     -1.32      0.00
    8  -17   10      0.27      0.00
   -7  -16   10      3.73      0.00
   -6  -16   10     -2.32      0.00
   -5  -16   10     -2.23      0.00
   -4  -16   10      5.52      0.00
   -3  -16   10     -1.24      0.00
   -2  -16   10     -0.96      0.00
   -1  -16   10     -0.95      0.00
    0  -16   10      3.54      0.00
    1  -16   10      0.04      0.00
    2  -16   10     -2.74      0.00
    3  -16   10     -0.05      0.00
    4  -16   10      1.80      0.00
    5  -16   10     -1.27      0.00
    6  -16   10     -0.78      0.00
    7  -16   10      1.18      0.00
    8  -16   10     -3.73      0.00
    9  -16   10      2.09      0.00
   -8  -15   10     -1.06      0.00
   -7  -15   10     -2.83      0.00
   -6  -15   10     -1.98      0.00
   -5  -15   10      3.11      0.00
   -4  -15   10      0.10      0.00
   -3  -15   10     -0.66      0.00
   -2  -15   10      1.33      0.00
   -1  -15   10      0.05      0.00
    0  -15   10     -2.15      0.00
    1  -15   10      0.30      0.00
    2  -15   10      0.14      0.00
    3  -15   10      0.22      0.00
    4  -15   10      2.42      0.00
    5  -15   10     -4.31      0.00
    6  -15   10      2.51      0.00
    7  -15   10     -1.51      0.00
    8  -15   10      2.03      0.00
    9  -15   10     -1.75      0.00
   -9  -14   10      5.00      0.00
   -8  -14   10      0.70      0.00
   -7  -14   10      1.13      0.00
   -6  -14   10      2.39      0.00
   -5  -14   10     -2.23      0.00
   -4  -14   10     -1.73      0.00
   -3  -14   10     -1.69      0.00
   -2  -14   10     -0.98      0.00
   -1  -14   10      2.94      0.00
    0  -14   10      3.07      0.00
    1  -14   10     -1.71      0.00
    2  -14   10     -2.23      0.00
    3  -14   10      1.28      0.00
    4  -14   10     -0.31      0.00
    5  -14   10      2.93      0.00
    6  -14   10      3.52      0.00
    7  -14   10      0.60      0.00
    8  -14   10      1.72      0.00
    9  -14   10     -1.80      0.00
   10  -14   10      0.55      0.00
  -10  -13   10     -0.36      0.00
   -9  -13   10     -3.49      0.00
   -8  -13   10      3.43      0.00
   -7  -13   10     -4.25      0.00
   -6  -13   10     -3.95      0.00
   -5  -13   10     -2.90      0.00
   -4  -13   10     -0.06      0.00
   -3  -13   10      1.79      0.00
   -2  -13   10      1.85      0.00
   -1  -13   10      0.16      0.00
    0  -13   10      2.90      0.00
    1  -13   10     -5.43      0.00
    2  -13   10     -2.03      0.00
    3  -13   10     -1.16      0.00
    4  -13   10      2.49      0.00
    5  -13   10      2.22      0.00
    6  -13   10     -2.27      0.00
    7  -13   10     -0.60      0.00
    8  -13   10     -3.33      0.00
    9  -13   10      0.74      0.00
   10  -13   10      1.42      0.00
  -10  -12   10     -2.05      0.00
   -9  -12   10      1.80      0.00
   -8  -12   10     -2.73      0.00
   -7  -12   10      5.14      0.00
   -6  -12   10      5.00      0.00
   -5  -12   10      5.87      0.00
   -4  -12   10      2.79      0.00
   -3  -12   10     -0.59      0.00
   -2  -12   10      1.57      0.00
   -1  -12   10     -1.27      0.00
    0  -12   10     -7.49      0.00
    1  -12   10      2.57      0.00
    2  -12   10      4.07      0.00
    3  -12   10      9.37      0.00
    4  -12   10      5.09      0.00
    5  -12   10      2.13      0.00
    6  -12   10      2.09      0.00
    7  -12   10      2.17      0.00
    8  -12   10      4.40      0.00
    9  -12   10     -0.98      0.00
   10  -12   10     -0.72      0.00
  -11  -11   10     -0.14      0.00
  -10  -11   10     -0.81      0.00
   -9  -11   10     -1.38      0.00
   -8  -11   10      1.30      0.00
   -7  -11   10     -0.54      0.00
   -6  -11   10      0.51      0.00
   -5  -11   10     -2.09      0.00
   -4  -11   10     -6.48      0.00
   -3  -11   10     -2.85      0.00
   -2  -11   10     -3.18      0.00
   -1  -11   10     -1.88      0.00
    0  -11   10      3.80      0.00
    1  -11   10      3.15      0.00
    2  -11   10      0.61      0.00
    3  -11   10      5.61      0.00
    4  -11   10      2.67      0.00
    5  -11   10     -0.59      0.00
    6  -11   10     -1.75      0.00
    7  -11   10      0.19      0.00
    8  -11   10     -1.15      0.00
    9  -11   10      2.39      0.00
   10  -11   10     -1.48      0.00
   11  -11   10     -3.65      0.00
  -12  -10   10      1.43      0.00
  -11  -10   10     -1.19      0.00
  -10  -10   10     -1.23      0.00
   -9  -10   10     -0.53      0.00
   -8  -10   10     -1.82      0.00
   -7  -10   10     -1.91      0.00
   -6  -10   10     -2.72      0.00
   -5  -10   10     -4.19      0.00
   -4  -10   10      1.20      0.00
   -3  -10   10      2.79      0.00
   -2  -10   10     -2.13      0.00
   -1  -10   10     -4.48      0.00
    0  -10   10      5.08      0.00
    1  -10   10      1.11      0.00
    2  -10   10      4.11      0.00
    3  -10   10     -8.16      0.00
    4  -10   10     -9.54      0.00
    5  -10   10     -4.91      0.00
    6  -10   10     -0.66      0.00
    7  -10   10      5.99      0.00
    8  -10   10      7.03      0.00
    9  -10   10      4.88      0.00
   10  -10   10     -1.13      0.00
   11  -10   10      0.38      0.00
  -12   -9   10     -0.57      0.00
  -11   -9   10     -0.14      0.00
  -10   -9   10     -1.59      0.00
   -9   -9   10      2.22      0.00
   -8   -9   10     -3.80      0.00
   -7   -9   10      4.35      0.00
   -6   -9   10      4.62      0.00
   -5   -9   10      7.97      0.00
   -4   -9   10      3.52      0.00
   -3   -9   10     -1.67      0.00
   -2   -9   10     -3.54      0.00
   -1   -9   10      8.14      0.00
    0   -9   10      0.01      0.00
    1   -9   10     -4.66      0.00
    2   -9   10    -13.09      0.00
    3   -9   10      0.73      0.00
    4   -9   10      6.93      0.00
    5   -9   10      4.45      0.00
    6   -9   10      2.15      0.00
    7   -9   10      3.87      0.00
    8   -9   10      0.51      0.00
    9   -9   10      2.07      0.00
   10   -9   10      3.15      0.00
   11   -9   10      4.62      0.00
  -13   -8   10      5.28      0.00
  -12   -8   10     -1.33      0.00
  -11   -8   10     -2.10      0.00
  -10   -8   10     -1.48      0.00
   -9   -8   10     -3.91      0.00
   -8   -8   10      6.19      0.00
   -7   -8   10      8.91      0.00
   -6   -8   10     10.88      0.00
   -5   -8   10      1.91      0.00
   -4   -8   10     -7.04      0.00
   -3   -8   10     -8.96      0.00
   -2   -8   10     -8.78      0.00
   -1   -8   10     -8.01      0.00
    0   -8   10     -4.86      0.00
    1   -8   10     -6.26      0.00
    2   -8   10      7.51      0.00
    3   -8   10     12.18      0.00
    4   -8   10      8.57      0.00
    5   -8   10     -0.84      0.00
    6   -8   10      2.88      0.00
    7   -8   10     -3.58      0.00
    8   -8   10      6.80      0.00
    9   -8   10     -2.79      0.00
   10   -8   10     -2.34      0.00
   11   -8   10      0.65      0.00
  -13   -7   10      0.26      0.00
  -12   -7   10      1.76      0.00
  -11   -7   10      3.59      0.00
  -10   -7   10      0.67      0.00
   -9   -7   10      0.36      0.00
   -8   -7   10     -0.50      0.00
   -7   -7   10     -5.04      0.00
   -6   -7   10     -9.81      0.00
   -5   -7   10    -14.54      0.00
   -4   -7   10     -5.84      0.00
   -3   -7   10      4.34      0.00
   -2   -7   10      7.85      0.00
   -1   -7   10     12.70      0.00
    0   -7   10      9.48      0.00
    1   -7   10      7.22      0.00
    2   -7   10     14.23      0.00
    3   -7   10      1.05      0.00
    4   -7   10     -7.88      0.00
    5   -7   10     -3.83      0.00
    6   -7   10     -5.05      0.00
    7   -7   10      5.04      0.00
    8   -7   10     -2.90      0.00
    9   -7   10     -2.60      0.00
   10   -7   10     -1.02      0.00
   11   -7   10     -0.22      0.00
  -14   -6   10      4.06      0.00
  -13   -6   10      2.15      0.00
  -12   -6   10      1.93      0.00
  -11   -6   10     -4.93      0.00
  -10   -6   10     -3.22      0.00
   -9   -6   10     -4.94      0.00
   -8   -6   10     -6.12      0.00
   -7   -6   10     -4.00      0.00
   -6   -6   10     -3.01      0.00
   -5   -6   10      2.44      0.00
   -4   -6   10     12.84      0.00
   -3   -6   10     -0.21      0.00
   -2   -6   10     -2.21      0.00
   -1   -6   10      4.24      0.00
    0   -6   10      0.61      0.00
    1   -6   10     10.24      0.00
    2   -6   10     -6.54      0.00
    3   -6   10     -4.22      0.00
    4   -6   10      4.11      0.00
    5   -6   10      2.13      0.00
    6   -6   10      6.26      0.00
    7   -6   10      1.28      0.00
    8   -6   10      4.13      0.00
    9   -6   10     -0.99      0.00
   10   -6   10     -0.81      0.00
  -14   -5   10      3.07      0.00
  -13   -5   10     -0.72      0.00
  -12   -5   10     -4.15      0.00
  -11   -5   10     -1.99      0.00
  -10   -5   10     -2.62      0.00
   -9   -5   10     -1.22      0.00
   -8   -5   10      0.56      0.00
   -7   -5   10      3.94      0.00
   -6   -5   10      6.60      0.00
   -5   -5   10      4.79      0.00
   -4   -5   10      3.84      0.00
   -3   -5   10     -8.11      0.00
   -2   -5   10      2.87      0.00
   -1   -5   10     -0.37      0.00
    0   -5   10     -0.42      0.00
    1   -5   10     -3.75      0.00
    2   -5   10     -3.26      0.00
    3   -5   10      5.51      0.00
    4   -5   10     -0.85      0.00
    5   -5   10     -1.79      0.00
    6   -5   10     -2.74      0.00
    7   -5   10      0.30      0.00
    8   -5   10     -3.29      0.00
    9   -5   10     -3.58      0.00
   10   -5   10     -1.78      0.00
  -14   -4   10      1.78      0.00
  -13   -4   10      0.27      0.00
  -12   -4   10      1.07      0.00
  -11   -4   10      6.76      0.00
  -10   -4   10      6.48      0.00
   -9   -4   10      5.48      0.00
   -8   -4   10      9.24      0.00
   -7   -4   10      9.65      0.00
   -6   -4   10     -3.38      0.00
   -5   -4   10      3.57      0.00
   -4   -4   10    -11.44      0.00
   -3   -4   10      0.32      0.00
   -2   -4   10      4.43      0.00
   -1   -4   10      0.38      0.00
    0   -4   10      1.32      0.00
    1   -4   10     -8.62      0.00
    2   -4   10      9.09      0.00
    3   -4   10      2.74      0.00
    4   -4   10      2.55      0.00
    5   -4   10      0.15      0.00
    6   -4   10     -2.09      0.00
    7   -4   10     -1.58      0.00
    8   -4   10     -0.75      0.00
    9   -4   10     -0.99      0.00
   10   -4   10      4.79      0.00
  -15   -3   10      0.43      0.00
  -14   -3   10     -1.13      0.00
  -13   -3   10      2.11      0.00
  -12   -3   10      2.32      0.00
  -11   -3   10      1.82      0.00
  -10   -3   10     -2.45      0.00
   -9   -3   10      6.43      0.00
   -8   -3   10      2.31      0.00
   -7   -3   10     -6.82      0.00
   -6   -3   10     -0.39      0.00
   -5   -3   10     -4.33      0.00
   -4   -3   10     11.26      0.00
   -3   -3   10      9.09      0.00
   -2   -3   10      1.68      0.00
   -1   -3   10     -5.26      0.00
    0   -3   10     -9.96      0.00
    1   -3   10      9.38      0.00
    2   -3   10     -1.99      0.00
    3   -3   10     -6.81      0.00
    4   -3   10     -3.16      0.00
    5   -3   10     -0.21      0.00
    6   -3   10      5.52      0.00
    7   -3   10      2.82      0.00
    8   -3   10     -1.37      0.00
    9   -3   10      2.61      0.00
   10   -3   10      0.08      0.00
  -15   -2   10     -0.60      0.00
  -14   -2   10      3.02      0.00
  -13   -2   10     -1.97      0.00
  -12   -2   10     -0.89      0.00
  -11   -2   10     -4.16      0.00
  -10   -2   10      2.37      0.00
   -9   -2   10     -0.26      0.00
   -8   -2   10     -4.80      0.00
   -7   -2   10     -0.44      0.00
   -6   -2   10    -10.24      0.00
   -5   -2   10      6.48      0.00
   -4   -2   10     -4.84      0.00
   -3   -2   10     -9.95      0.00
   -2   -2   10     -4.27      0.00
   -1   -2   10     -9.96      0.00
    0   -2   10      1.12      0.00
    1   -2   10    -10.36      0.00
    2   -2   10     -3.83      0.00
    3   -2   10     14.87      0.00
    4   -2   10      3.23      0.00
    5   -2   10      5.96      0.00
    6   -2   10     -0.14      0.00
    7   -2   10     -2.98      0.00
    8   -2   10      0.05      0.00
    9   -2   10      0.95      0.00
  -15   -1   10     -2.48      0.00
  -14   -1   10     -0.70      0.00
  -13   -1   10      2.65      0.00
  -12   -1   10      2.47      0.00
  -11   -1   10      3.95      0.00
  -10   -1   10      1.46      0.00
   -9   -1   10     -0.22      0.00
   -8   -1   10      4.42      0.00
   -7   -1   10     -9.75      0.00
   -6   -1   10      5.28      0.00
   -5   -1   10     -7.24      0.00
   -4   -1   10     -7.85      0.00
   -3   -1   10      3.77      0.00
   -2   -1   10     -5.60      0.00
   -1   -1   10      4.27      0.00
    0   -1   10     -0.75      0.00
    1   -1   10      0.73      0.00
    2   -1   10     11.10      0.00
    3   -1   10     -7.67      0.00
    4   -1   10     -0.63      0.00
    5   -1   10      1.28      0.00
    6   -1   10     -4.95      0.00
    7   -1   10     -2.21      0.00
    8   -1   10      0.11      0.00
    9   -1   10     -6.03      0.00
  -15    0   10      0.31      0.00
  -14    0   10      6.17      0.00
  -13    0   10     -2.87      0.00
  -12    0   10     -0.66      0.00
  -11    0   10     -6.72      0.00
  -10    0   10     -2.66      0.00
   -9    0   10      0.38      0.00
   -8    0   10     -8.56      0.00
   -7    0   10      3.48      0.00
   -6    0   10     -3.23      0.00
   -5    0   10      3.88      0.00
   -4    0   10     13.57      0.00
   -3    0   10      2.62      0.00
   -2    0   10      8.86      0.00
   -1    0   10     -0.50      0.00
    0    0   10    -13.63      0.00
    1    0   10      1.95      0.00
    2    0   10     -4.81      0.00
    3    0   10      1.17      0.00
    4    0   10      2.81      0.00
    5    0   10     -3.43      0.00
    6    0   10      2.67      0.00
    7    0   10     -0.39      0.00
    8    0   10     -5.98      0.00
  -15    1   10      5.08      0.00
  -14    1   10     -2.21      0.00
  -13    1   10      1.72      0.00
  -12    1   10     -1.57      0.00
  -11    1   10     -3.33      0.00
  -10    1   10     -2.69      0.00
   -9    1   10     -1.72      0.00
   -8    1   10      6.84      0.00
   -7    1   10     -1.53      0.00
   -6    1   10     -3.38      0.00
   -5    1   10      6.74      0.00
   -4    1   10     -9.85      0.00
   -3    1   10     -2.14      0.00
   -2    1   10     -4.28      0.00
   -1    1   10    -11.63      0.00
    0    1   10     14.01      0.00
    1    1   10      1.77      0.00
    2    1   10      2.51      0.00
    3    1   10      2.63      0.00
    4    1   10     -0.46      0.00
    5    1   10      1.34      0.00
    6    1   10     -0.63      0.00
    7    1   10      2.56      0.00
    8    1   10      0.44      0.00
  -15    2   10      0.22      0.00
  -14    2   10     -1.12      0.00
  -13    2   10      3.43      0.00
  -12    2   10     -4.63      0.00
  -11    2   10      0.70      0.00
  -10    2   10     -0.91      0.00
   -9    2   10      4.66      0.00
   -8    2   10     -2.05      0.00
   -7    2   10     -4.35      0.00
   -6    2   10      6.57      0.00
   -5    2   10     -2.61      0.00
   -4    2   10      3.93      0.00
   -3    2   10      6.91      0.00
   -2    2   10     -5.96      0.00
   -1    2   10      8.63      0.00
    0    2   10     -2.63      0.00
    1    2   10     -1.96      0.00
    2    2   10     -0.20      0.00
    3    2   10     -4.60      0.00
    4    2   10     -1.10      0.00
    5    2   10      0.82      0.00
    6    2   10     -0.03      0.00
    7    2   10     -7.47      0.00
  -15    3   10     -0.81      0.00
  -14    3   10      3.66      0.00
  -13    3   10      1.71      0.00
  -12    3   10      5.92      0.00
  -11    3   10     -1.91      0.00
  -10    3   10      0.07      0.00
   -9    3   10     -1.61      0.00
   -8    3   10     -2.49      0.00
   -7    3   10      2.85      0.00
   -6    3   10     -1.36      0.00
   -5    3   10     -1.96      0.00
   -4    3   10     -1.89      0.00
   -3    3   10     -4.18      0.00
   -2    3   10      2.16      0.00
   -1    3   10      0.04      0.00
    0    3   10      1.08      0.00
    1    3   10      3.81      0.00
    2    3   10     -1.01      0.00
    3    3   10      4.60      0.00
    4    3   10     -0.47      0.00
    5    3   10     -2.53      0.00
    6    3   10     -1.63      0.00
    7    3   10      4.97      0.00
  -15    4   10     -0.40      0.00
  -14    4   10      3.58      0.00
  -13    4   10      2.62      0.00
  -12    4   10     -2.26      0.00
  -11    4   10     -1.68      0.00
  -10    4   10     -1.25      0.00
   -9    4   10     -3.70      0.00
   -8    4   10      0.89      0.00
   -7    4   10     -1.65      0.00
   -6    4   10     -0.16      0.00
   -5    4   10     -0.10      0.00
   -4    4   10      1.33      0.00
   -3    4   10      3.35      0.00
   -2    4   10      0.72      0.00
   -1    4   10      1.80      0.00
    0    4   10     -0.55      0.00
    1    4   10     -1.56      0.00
    2    4   10      2.28      0.00
    3    4   10     -0.39      0.00
    4    4   10     -0.38      0.00
    5    4   10     -0.42      0.00
    6    4   10      2.17      0.00
  -14    5   10      0.80      0.00
  -13    5   10      0.90      0.00
  -12    5   10     -1.01      0.00
  -11    5   10     -1.49      0.00
  -10    5   10     -5.15      0.00
   -9    5   10     -0.11      0.00
   -8    5   10     -1.54      0.00
   -7    5   10      3.67      0.00
   -6    5   10     -2.76      0.00
   -5    5   10     -4.75      0.00
   -4    5   10      5.50      0.00
   -3    5   10      0.27      0.00
   -2    5   10     -2.58      0.00
   -1    5   10     -4.20      0.00
    0    5   10      0.56      0.00
    1    5   10      0.78      0.00
    2    5   10     -0.32      0.00
    3    5   10     -0.38      0.00
    4    5   10     -6.16      0.00
    5    5   10      4.20      0.00
  -14    6   10      0.44      0.00
  -13    6   10     -3.24      0.00
  -12    6   10      0.84      0.00
  -11    6   10     -1.77      0.00
  -10    6   10      1.43      0.00
   -9    6   10     -2.89      0.00
   -8    6   10      0.26      0.00
   -7    6   10     -5.80      0.00
   -6    6   10     -2.70      0.00
   -5    6   10      6.48      0.00
   -4    6   10     -4.25      0.00
   -3    6   10     -0.89      0.00
   -2    6   10      3.70      0.00
   -1    6   10      2.92      0.00
    0    6   10      2.81      0.00
    1    6   10      0.13      0.00
    2    6   10      0.73      0.00
    3    6   10     -2.66      0.00
    4    6   10      8.85      0.00
  -13    7   10      1.71      0.00
  -12    7   10     -1.07      0.00
  -11    7   10      2.45      0.00
  -10    7   10     -1.91      0.00
   -9    7   10      2.18      0.00
   -8    7   10      2.26      0.00
   -7    7   10      0.92      0.00
   -6    7   10      3.65      0.00
   -5    7   10     -6.91      0.00
   -4    7   10      2.37      0.00
   -3    7   10     -0.04      0.00
   -2    7   10     -2.58      0.00
   -1    7   10     -1.20      0.00
    0    7   10     -1.60      0.00
    1    7   10     -4.35      0.00
    2    7   10     -2.85      0.00
    3    7   10      1.36      0.00
  -13    8   10     -2.44      0.00
  -12    8   10      2.17      0.00
  -11    8   10     -0.41      0.00
  -10    8   10      2.09      0.00
   -9    8   10      3.63      0.00
   -8    8   10     -5.04      0.00
   -7    8   10     -1.85      0.00
   -6    8   10     -3.73      0.00
   -5    8   10     -2.90      0.00
   -4    8   10     -0.44      0.00
   -3    8   10      1.04      0.00
   -2    8   10     -1.96      0.00
   -1    8   10     -0.39      0.00
    0    8   10     -4.25      0.00
    1    8   10     -0.25      0.00
    2    8   10      0.67      0.00
  -12    9   10      0.80      0.00
  -11    9   10     -0.43      0.00
  -10    9   10      0.19      0.00
   -9    9   10     -6.12      0.00
   -8    9   10     -1.48      0.00
   -7    9   10      2.02      0.00
   -6    9   10     -5.11      0.00
   -5    9   10      1.90      0.00
   -4    9   10     -0.87      0.00
   -3    9   10     -4.57      0.00
   -2    9   10     -0.99      0.00
   -1    9   10     -0.47      0.00
    0    9   10      7.92      0.00
  -11   10   10      1.17      0.00
  -10   10   10      1.39      0.00
   -9   10   10      2.71      0.00
   -8   10   10      4.19      0.00
   -7   10   10      7.18      0.00
   -6   10   10      9.46      0.00
   -5   10   10     -2.76      0.00
   -4   10   10     -0.76      0.00
   -3   10   10     -3.45      0.00
   -2   10   10     -0.01      0.00
   -8   11   10      2.12      0.00
   -7   11   10     -0.07      0.00
   -6   11   10     -8.11      0.00
   -5   11   10      3.26      0.00
   -2  -19   11      1.52      0.00
   -1  -19   11      6.00      0.00
    0  -19   11      3.68      0.00
    1  -19   11     -0.97      0.00
    2  -19   11     -0.56      0.00
    3  -19   11     -2.37      0.00
    4  -19   11     -5.73      0.00
    5  -19   11     -1.34      0.00
   -4  -18   11      3.48      0.00
   -3  -18   11      1.87      0.00
   -2  -18   11      3.11      0.00
   -1  -18   11      0.75      0.00
    0  -18   11     -3.54      0.00
    1  -18   11     -0.76      0.00
    2  -18   11     -1.39      0.00
    3  -18   11     -4.98      0.00
    4  -18   11      1.23      0.00
    5  -18   11      0.28      0.00
    6  -18   11      3.30      0.00
    7  -18   11      3.15      0.00
   -5  -17   11     -4.43      0.00
   -4  -17   11     -2.13      0.00
   -3  -17   11     -0.50      0.00
   -2  -17   11     -2.88      0.00
   -1  -17   11     -2.84      0.00
    0  -17   11     -1.14      0.00
    1  -17   11      0.05      0.00
    2  -17   11     -3.02      0.00
    3  -17   11      0.02      0.00
    4  -17   11      1.07      0.00
    5  -17   11     -1.64      0.00
    6  -17   11     -2.88      0.00
    7  -17   11     -0.02      0.00
    8  -17   11     -0.48      0.00
   -7  -16   11      6.39      0.00
   -6  -16   11     -5.23      0.00
   -5  -16   11      1.94      0.00
   -4  -16   11      1.41      0.00
   -3  -16   11     -2.64      0.00
   -2  -16   11      0.76      0.00
   -1  -16   11      4.61      0.00
    0  -16   11      3.00      0.00
    1  -16   11     -4.99      0.00
    2  -16   11     -3.41      0.00
    3  -16   11     -0.47      0.00
    4  -16   11     -2.11      0.00
    5  -16   11     -3.48      0.00
    6  -16   11      1.37      0.00
    7  -16   11     -0.86      0.00
    8  -16   11     -1.07      0.00
   -8  -15   11      9.06      0.00
   -7  -15   11     -6.04      0.00
   -6  -15   11     -2.35      0.00
   -5  -15   11     -1.38      0.00
   -4  -15   11     -0.54      0.00
   -3  -15   11      2.54      0.00
   -2  -15   11      4.76      0.00
   -1  -15   11     -1.46      0.00
    0  -15   11      0.90      0.00
    1  -15   11      0.83      0.00
    2  -15   11      0.21      0.00
    3  -15   11      1.07      0.00
    4  -15   11      0.26      0.00
    5  -15   11     -0.52      0.00
    6  -15   11      3.09      0.00
    7  -15   11      0.37      0.00
    8  -15   11      1.15      0.00
    9  -15   11     -1.53      0.00
   -9  -14   11      4.34      0.00
   -8  -14   11     -4.66      0.00
   -7  -14   11      3.76      0.00
   -6  -14   11      3.47      0.00
   -5  -14   11      2.25      0.00
   -4  -14   11      2.06      0.00
   -3  -14   11      1.13      0.00
   -2  -14   11     -1.38      0.00
   -1  -14   11      0.00      0.00
    0  -14   11     -4.23      0.00
    1  -14   11     -0.65      0.00
    2  -14   11      0.10      0.00
    3  -14   11      0.83      0.00
    4  -14   11     -3.41      0.00
    5  -14   11     -1.02      0.00
    6  -14   11     -1.32      0.00
    7  -14   11     -0.17      0.00
    8  -14   11      0.76      0.00
    9  -14   11     -4.22      0.00
  -10  -13   11      4.27      0.00
   -9  -13   11      3.41      0.00
   -8  -13   11      5.32      0.00
   -7  -13   11     -2.60      0.00
   -6  -13   11     -1.40      0.00
   -5  -13   11     -3.43      0.00
   -4  -13   11     -1.49      0.00
   -3  -13   11     -4.10      0.00
   -2  -13   11     -1.41      0.00
   -1  -13   11      1.35      0.00
    0  -13   11      6.43      0.00
    1  -13   11     -0.21      0.00
    2  -13   11      2.74      0.00
    3  -13   11     -1.34      0.00
    4  -13   11      3.41      0.00
    5  -13   11      0.48      0.00
    6  -13   11     -0.94      0.00
    7  -13   11     -0.68      0.00
    8  -13   11     -4.10      0.00
    9  -13   11      1.98      0.00
   10  -13   11     -2.68      0.00
  -11  -12   11      0.32      0.00
  -10  -12   11     -1.66      0.00
   -9  -12   11     -3.49      0.00
   -8  -12   11     -4.15      0.00
   -7  -12   11      2.18      0.00
   -6  -12   11     -1.68      0.00
   -5  -12   11     -0.42      0.00
   -4  -12   11     -1.77      0.00
   -3  -12   11      0.73      0.00
   -2  -12   11      3.28      0.00
   -1  -12   11      2.01      0.00
    0  -12   11      5.21      0.00
    1  -12   11      8.34      0.00
    2  -12   11     -2.23      0.00
    3  -12   11     -2.90      0.00
    4  -12   11     -4.04      0.00
    5  -12   11      0.77      0.00
    6  -12   11     -1.34      0.00
    7  -12   11      3.94      0.00
    8  -12   11      0.22      0.00
    9  -12   11     -2.46      0.00
   10  -12   11     -1.45      0.00
  -11  -11   11      0.39      0.00
  -10  -11   11     -0.60      0.00
   -9  -11   11      1.10      0.00
   -8  -11   11     -0.61      0.00
   -7  -11   11     -1.51      0.00
   -6  -11   11     -1.17      0.00
   -5  -11   11      1.31      0.00
   -4  -11   11     -2.30      0.00
   -3  -11   11      2.68      0.00
   -2  -11   11     -0.71      0.00
   -1  -11   11      1.01      0.00
    0  -11   11     -3.06      0.00
    1  -11   11    -11.82      0.00
    2  -11   11    -10.10      0.00
    3  -11   11     -0.44      0.00
    4  -11   11     -2.03      0.00
    5  -11   11     -7.82      0.00
    6  -11   11     -3.26      0.00
    7  -11   11     -3.91      0.00
    8  -11   11     -3.15      0.00
    9  -11   11      0.22      0.00
   10  -11   11     -2.80      0.00
  -12  -10   11     -5.15      0.00
  -11  -10   11     -5.60      0.00
  -10  -10   11     -0.65      0.00
   -9  -10   11      2.44      0.00
   -8  -10   11      6.12      0.00
   -7  -10   11      5.91      0.00
   -6  -10   11      4.53      0.00
   -5  -10   11     -1.11      0.00
   -4  -10   11     -3.00      0.00
   -3  -10   11     -5.83      0.00
   -2  -10   11    -10.33      0.00
   -1  -10   11     -7.89      0.00
    0  -10   11     -0.34      0.00
    1  -10   11      1.46      0.00
    2  -10   11      8.54      0.00
    3  -10   11     -0.24      0.00
    4  -10   11     -2.39      0.00
    5  -10   11     -3.81      0.00
    6  -10   11     -0.95      0.00
    7  -10   11     -0.85      0.00
    8  -10   11      2.42      0.00
    9  -10   11     -0.06      0.00
   10  -10   11     -1.61      0.00
  -12   -9   11      0.11      0.00
  -11   -9   11      5.49      0.00
  -10   -9   11      4.90      0.00
   -9   -9   11      1.86      0.00
   -8   -9   11     -1.37      0.00
   -7   -9   11     -0.92      0.00
   -6   -9   11     -5.81      0.00
   -5   -9   11     -6.46      0.00
   -4   -9   11     -2.71      0.00
   -3   -9   11     -1.24      0.00
   -2   -9   11     -0.60      0.00
   -1   -9   11      8.08      0.00
    0   -9   11      9.29      0.00
    1   -9   11      8.36      0.00
    2   -9   11     -0.51      0.00
    3   -9   11      0.26      0.00
    4   -9   11     -1.80      0.00
    5   -9   11     -0.63      0.00
    6   -9   11      0.00      0.00
    7   -9   11     -0.35      0.00
    8   -9   11      0.62      0.00
    9   -9   11     -0.75      0.00
   10   -9   11      2.79      0.00
  -13   -8   11      2.57      0.00
  -12   -8   11      2.43      0.00
  -11   -8   11      2.13      0.00
  -10   -8   11     -2.51      0.00
   -9   -8   11     -2.92      0.00
   -8   -8   11     -3.86      0.00
   -7   -8   11     -4.06      0.00
   -6   -8   11      3.42      0.00
   -5   -8   11      4.29      0.00
   -4   -8   11      7.81      0.00
   -3   -8   11     -0.89      0.00
   -2   -8   11     -0.47      0.00
   -1   -8   11     11.96      0.00
    0   -8   11      4.88      0.00
    1   -8   11     -7.44      0.00
    2   -8   11     -7.84      0.00
    3   -8   11     -4.49      0.00
    4   -8   11      0.16      0.00
    5   -8   11      1.51      0.00
    6   -8   11      4.92      0.00
    7   -8   11      1.62      0.00
    8   -8   11      2.40      0.00
    9   -8   11     -6.01      0.00
   10   -8   11     -2.48      0.00
  -13   -7   11     -3.44      0.00
  -12   -7   11     -1.55      0.00
  -11   -7   11     -1.90      0.00
  -10   -7   11     -0.85      0.00
   -9   -7   11     -2.45      0.00
   -8   -7   11      5.17      0.00
   -7   -7   11     10.54      0.00
   -6   -7   11      9.07      0.00
   -5   -7   11      2.34      0.00
   -4   -7   11     -0.46      0.00
   -3   -7   11     -5.89      0.00
   -2   -7   11     -1.64      0.00
   -1   -7   11     -1.63      0.00
    0   -7   11    -16.99      0.00
    1   -7   11     -6.50      0.00
    2   -7   11      3.71      0.00
    3   -7   11     -1.00      0.00
    4   -7   11      4.19      0.00
    5   -7   11      2.46      0.00
    6   -7   11     -1.87      0.00
    7   -7   11      4.19      0.00
    8   -7   11     -0.45      0.00
    9   -7   11      2.11      0.00
   10   -7   11      1.27      0.00
  -14   -6   11     -2.20      0.00
  -13   -6   11     -1.66      0.00
  -12   -6   11      1.04      0.00
  -11   -6   11      2.26      0.00
  -10   -6   11      4.01      0.00
   -9   -6   11      5.54      0.00
   -8   -6   11      2.12      0.00
   -7   -6   11      0.67      0.00
   -6   -6   11    -12.87      0.00
   -5   -6   11    -10.79      0.00
   -4   -6   11    -12.87      0.00
   -3   -6   11    -16.53      0.00
   -2   -6   11     -0.72      0.00
   -1   -6   11    -10.02      0.00
    0   -6   11      2.66      0.00
    1   -6   11      8.32      0.00
    2   -6   11     -4.24      0.00
    3   -6   11      6.34      0.00
    4   -6   11      0.34      0.00
    5   -6   11     -4.03      0.00
    6   -6   11     -3.08      0.00
    7   -6   11     -2.99      0.00
    8   -6   11     -3.03      0.00
    9   -6   11      0.42      0.00
   10   -6   11     -1.19      0.00
  -14   -5   11      0.54      0.00
  -13   -5   11      2.54      0.00
  -12   -5   11     -0.81      0.00
  -11   -5   11      3.40      0.00
  -10   -5   11      3.65      0.00
   -9   -5   11     -0.93      0.00
   -8   -5   11      0.97      0.00
   -7   -5   11     -4.56      0.00
   -6   -5   11     -3.85      0.00
   -5   -5   11      8.34      0.00
   -4   -5   11      4.65      0.00
   -3   -5   11      6.65      0.00
   -2   -5   11      0.04      0.00
   -1   -5   11      0.45      0.00
    0   -5   11      5.78      0.00
    1   -5   11     -2.73      0.00
    2   -5   11     -2.51      0.00
    3   -5   11     -2.85      0.00
    4   -5   11     -7.92      0.00
    5   -5   11      1.03      0.00
    6   -5   11      2.31      0.00
    7   -5   11      0.36      0.00
    8   -5   11      2.26      0.00
    9   -5   11      0.34      0.00
  -14   -4   11      1.66      0.00
  -13   -4   11     -2.75      0.00
  -12   -4   11     -0.34      0.00
  -11   -4   11      5.09      0.00
  -10   -4   11     -4.57      0.00
   -9   -4   11     -0.25      0.00
   -8   -4   11     -2.23      0.00
   -7   -4   11     -3.68      0.00
   -6   -4   11      8.88      0.00
   -5   -4   11      0.33      0.00
   -4   -4   11     -4.98      0.00
   -3   -4   11     -5.55      0.00
   -2   -4   11     -1.67      0.00
   -1   -4   11      2.49      0.00
    0   -4   11    -10.05      0.00
    1   -4   11    -10.77      0.00
    2   -4   11      3.68      0.00
    3   -4   11      0.45      0.00
    4   -4   11      7.23      0.00
    5   -4   11     -2.00      0.00
    6   -4   11     -1.58      0.00
    7   -4   11      0.66      0.00
    8   -4   11      0.92      0.00
    9   -4   11      0.64      0.00
  -14   -3   11     -0.01      0.00
  -13   -3   11     -1.40      0.00
  -12   -3   11      3.74      0.00
  -11   -3   11     -6.46      0.00
  -10   -3   11     -1.00      0.00
   -9   -3   11      0.54      0.00
   -8   -3   11     -2.17      0.00
   -7   -3   11      4.61      0.00
   -6   -3   11     -6.70      0.00
   -5   -3   11     -7.19      0.00
   -4   -3   11     -4.25      0.00
   -3   -3   11     -3.93      0.00
   -2   -3   11      6.58      0.00
   -1   -3   11     -6.88      0.00
    0   -3   11      1.16      0.00
    1   -3   11      5.13      0.00
    2   -3   11     -4.37      0.00
    3   -3   11     -0.26      0.00
    4   -3   11     -6.03      0.00
    5   -3   11     -3.55      0.00
    6   -3   11     -0.86      0.00
    7   -3   11     -1.01      0.00
    8   -3   11     -0.64      0.00
    9   -3   11      1.74      0.00
  -15   -2   11      0.01      0.00
  -14   -2   11     -0.04      0.00
  -13   -2   11     -0.23      0.00
  -12   -2   11     -5.10      0.00
  -11   -2   11     -2.90      0.00
  -10   -2   11      0.35      0.00
   -9   -2   11     -2.89      0.00
   -8   -2   11      1.66      0.00
   -7   -2   11     -5.85      0.00
   -6   -2   11      1.28      0.00
   -5   -2   11     10.20      0.00
   -4   -2   11      0.70      0.00
   -3   -2   11     13.62      0.00
   -2   -2   11     -2.29      0.00
   -1   -2   11      0.21      0.00
    0   -2   11     -3.42      0.00
    1   -2   11     -9.61      0.00
    2   -2   11      5.26      0.00
    3   -2   11     -0.45      0.00
    4   -2   11     -7.28      0.00
    5   -2   11     -0.39      0.00
    6   -2   11     -1.23      0.00
    7   -2   11     -2.70      0.00
    8   -2   11     -0.79      0.00
  -15   -1   11      0.96      0.00
  -14   -1   11      2.78      0.00
  -13   -1   11     -1.58      0.00
  -12   -1   11     -1.51      0.00
  -11   -1   11     -0.40      0.00
  -10   -1   11     -2.22      0.00
   -9   -1   11      3.67      0.00
   -8   -1   11     -2.40      0.00
   -7   -1   11      1.23      0.00
   -6   -1   11      3.72      0.00
   -5   -1   11     -6.59      0.00
   -4   -1   11      2.91      0.00
   -3   -1   11    -13.07      0.00
   -2   -1   11     -2.07      0.00
   -1   -1   11      4.72      0.00
    0   -1   11     -1.39      0.00
    1   -1   11      3.97      0.00
    2   -1   11     -4.73      0.00
    3   -1   11     -9.69      0.00
    4   -1   11     -1.52      0.00
    5   -1   11     -0.90      0.00
    6   -1   11     -2.83      0.00
    7   -1   11      3.64      0.00
    8   -1   11      1.91      0.00
  -15    0   11      3.79      0.00
  -14    0   11      0.23      0.00
  -13    0   11     -1.28      0.00
  -12    0   11     -1.84      0.00
  -11    0   11     -1.21      0.00
  -10    0   11      6.56      0.00
   -9    0   11     -1.49      0.00
   -8    0   11      2.06      0.00
   -7    0   11      1.04      0.00
   -6    0   11     -3.59      0.00
   -5    0   11      8.61      0.00
   -4    0   11     -8.07      0.00
   -3    0   11      5.61      0.00
   -2    0   11      7.12      0.00
   -1    0   11     -4.22      0.00
    0    0   11      3.65      0.00
    1    0   11      3.00      0.00
    2    0   11     -1.59      0.00
    3    0   11      1.64      0.00
    4    0   11      0.45      0.00
    5    0   11     -0.27      0.00
    6    0   11      2.72      0.00
    7    0   11     -4.41      0.00
  -15    1   11      2.83      0.00
  -14    1   11      0.03      0.00
  -13    1   11      1.33      0.00
  -12    1   11     -0.12      0.00
  -11    1   11      1.63      0.00
  -10    1   11     -5.51      0.00
   -9    1   11      0.08      0.00
   -8    1   11      0.31      0.00
   -7    1   11     -4.45      0.00
   -6    1   11      8.53      0.00
   -5    1   11     -4.51      0.00
   -4    1   11     -0.02      0.00
   -3    1   11      5.35      0.00
   -2    1   11     -4.17      0.00
   -1    1   11      6.71      0.00
    0    1   11      5.31      0.00
    1    1   11     -4.29      0.00
    2    1   11     -0.60      0.00
    3    1   11     -4.90      0.00
    4    1   11     -3.14      0.00
    5    1   11     -3.88      0.00
    6    1   11     -1.98      0.00
    7    1   11      0.91      0.00
  -15    2   11     -1.00      0.00
  -14    2   11     -1.06      0.00
  -13    2   11      1.94      0.00
  -12    2   11      1.67      0.00
  -11    2   11      1.92      0.00
  -10    2   11      0.78      0.00
   -9    2   11      5.12      0.00
   -8    2   11     -1.38      0.00
   -7    2   11      9.51      0.00
   -6    2   11     -1.56      0.00
   -5    2   11      1.09      0.00
   -4    2   11      5.23      0.00
   -3    2   11     -5.65      0.00
   -2    2   11     -3.43      0.00
   -1    2   11      0.01      0.00
    0    2   11     -3.43      0.00
    1    2   11      3.38      0.00
    2    2   11     -0.12      0.00
    3    2   11      0.66      0.00
    4    2   11      0.46      0.00
    5    2   11      0.75      0.00
    6    2   11     -0.32      0.00
  -14    3   11      3.59      0.00
  -13    3   11      0.44      0.00
  -12    3   11     -1.61      0.00
  -11    3   11     -4.62      0.00
  -10    3   11      1.17      0.00
   -9    3   11     -1.87      0.00
   -8    3   11      4.05      0.00
   -7    3   11     -1.46      0.00
   -6    3   11     -0.62      0.00
   -5    3   11     -2.11      0.00
   -4    3   11     -6.20      0.00
   -3    3   11     -1.19      0.00
   -2    3   11     -2.61      0.00
   -1    3   11      2.31      0.00
    0    3   11      8.50      0.00
    1    3   11      4.13      0.00
    2    3   11      0.56      0.00
    3    3   11      0.61      0.00
    4    3   11     -7.84      0.00
    5    3   11     -3.75      0.00
    6    3   11     -4.53      0.00
  -14    4   11     -0.88      0.00
  -13    4   11     -2.05      0.00
  -12    4   11      0.95      0.00
  -11    4   11      4.66      0.00
  -10    4   11      0.90      0.00
   -9    4   11      0.86      0.00
   -8    4   11      2.51      0.00
   -7    4   11      1.14      0.00
   -6    4   11      2.64      0.00
   -5    4   11     -0.67      0.00
   -4    4   11      0.81      0.00
   -3    4   11     -2.87      0.00
   -2    4   11      4.48      0.00
   -1    4   11      3.63      0.00
    0    4   11     -1.83      0.00
    1    4   11     -2.98      0.00
    2    4   11     -0.21      0.00
    3    4   11     -3.84      0.00
    4    4   11      2.67      0.00
    5    4   11     -1.82      0.00
  -14    5   11     -2.96      0.00
  -13    5   11     -0.08      0.00
  -12    5   11      1.37      0.00
  -11    5   11     -1.09      0.00
  -10    5   11     -0.81      0.00
   -9    5   11      2.59      0.00
   -8    5   11      1.34      0.00
   -7    5   11      2.09      0.00
   -6    5   11     -2.78      0.00
   -5    5   11      1.52      0.00
   -4    5   11      1.97      0.00
   -3    5   11     -1.45      0.00
   -2    5   11     -1.61      0.00
   -1    5   11     -1.06      0.00
    0    5   11      1.37      0.00
    1    5   11     -1.86      0.00
    2    5   11     -4.34      0.00
    3    5   11      0.92      0.00
    4    5   11     -7.95      0.00
  -13    6   11      0.52      0.00
  -12    6   11      3.38      0.00
  -11    6   11      2.29      0.00
  -10    6   11      2.33      0.00
   -9    6   11      0.27      0.00
   -8    6   11     -2.12      0.00
   -7    6   11     -3.68      0.00
   -6    6   11      2.75      0.00
   -5    6   11     -1.49      0.00
   -4    6   11     -4.03      0.00
   -3    6   11      2.61      0.00
   -2    6   11      0.27      0.00
   -1    6   11      0.61      0.00
    0    6   11     -0.36      0.00
    1    6   11     -2.67      0.00
    2    6   11      3.13      0.00
    3    6   11     -4.38      0.00
  -13    7   11      3.64      0.00
  -12    7   11      2.52      0.00
  -11    7   11      1.47      0.00
  -10    7   11      0.07      0.00
   -9    7   11      1.91      0.00
   -8    7   11     -0.95      0.00
   -7    7   11      0.31      0.00
   -6    7   11     -3.03      0.00
   -5    7   11     -3.66      0.00
   -4    7   11      0.65      0.00
   -3    7   11     -3.29      0.00
   -2    7   11     -0.28      0.00
   -1    7   11      2.36      0.00
    0    7   11      0.96      0.00
    1    7   11      3.63      0.00
    2    7   11     -2.98      0.00
  -12    8   11      1.19      0.00
  -11    8   11     -0.46      0.00
  -10    8   11      6.02      0.00
   -9    8   11     -0.32      0.00
   -8    8   11     -3.76      0.00
   -7    8   11     -0.06      0.00
   -6    8   11     -2.39      0.00
   -5    8   11     -6.28      0.00
   -4    8   11      2.69      0.00
   -3    8   11      2.94      0.00
   -2    8   11      3.24      0.00
   -1    8   11      6.08      0.00
    0    8   11      1.02      0.00
  -11    9   11      4.12      0.00
  -10    9   11      2.04      0.00
   -9    9   11     -4.19      0.00
   -8    9   11      1.78      0.00
   -7    9   11      0.93      0.00
   -6    9   11     -3.24      0.00
   -5    9   11      9.16      0.00
   -4    9   11      0.52      0.00
   -3    9   11     -1.46      0.00
   -2    9   11      0.48      0.00
   -8   10   11     -1.16      0.00
   -7   10   11      5.43      0.00
   -6   10   11      6.54      0.00
   -5   10   11     -1.78      0.00
   -4   10   11      0.07      0.00
   -1  -19   12      1.54      0.00
    0  -19   12      0.31      0.00
    1  -19   12      1.17      0.00
    2  -19   12      1.29      0.00
    3  -19   12      1.04      0.00
    4  -19   12     -1.08      0.00
   -4  -18   12      3.51      0.00
   -3  -18   12     -1.96      0.00
   -2  -18   12     -1.33      0.00
   -1  -18   12     -1.62      0.00
    0  -18   12     -1.86      0.00
    1  -18   12     -3.01      0.00
    2  -18   12     -4.41      0.00
    3  -18   12     -5.03      0.00
    4  -18   12     -0.56      0.00
    5  -18   12     -1.24      0.00
    6  -18   12      0.87      0.00
   -5  -17   12     -2.66      0.00
   -4  -17   12     -0.06      0.00
   -3  -17   12     -1.95      0.00
   -2  -17   12      0.14      0.00
   -1  -17   12     -0.78      0.00
    0  -17   12      1.59      0.00
    1  -17   12     -0.59      0.00
    2  -17   12     -2.53      0.00
    3  -17   12      0.04      0.00
    4  -17   12      1.15      0.00
    5  -17   12     -2.92      0.00
    6  -17   12      1.71      0.00
    7  -17   12     -0.44      0.00
   -7  -16   12      1.01      0.00
   -6  -16   12     -0.23      0.00
   -5  -16   12      6.04      0.00
   -4  -16   12      0.96      0.00
   -3  -16   12      1.41      0.00
   -2  -16   12      4.01      0.00
   -1  -16   12      3.14      0.00
    0  -16   12     -1.95      0.00
    1  -16   12     -2.35      0.00
    2  -16   12      0.96      0.00
    3  -16   12      0.78      0.00
    4  -16   12     -1.98      0.00
    5  -16   12      1.60      0.00
    6  -16   12      0.12      0.00
    7  -16   12      0.69      0.00
    8  -16   12      1.65      0.00
   -8  -15   12      3.17      0.00
   -7  -15   12     -3.34      0.00
   -6  -15   12      2.14      0.00
   -5  -15   12     -0.72      0.00
   -4  -15   12     -1.17      0.00
   -3  -15   12      1.04      0.00
   -2  -15   12     -2.65      0.00
   -1  -15   12     -1.27      0.00
    0  -15   12      3.65      0.00
    1  -15   12     -0.40      0.00
    2  -15   12     -1.66      0.00
    3  -15   12      1.80      0.00
    4  -15   12      3.41      0.00
    5  -15   12     -0.27      0.00
    6  -15   12     -2.74      0.00
    7  -15   12     -2.84      0.00
    8  -15   12     -0.23      0.00
   -9  -14   12     -3.29      0.00
   -8  -14   12     -0.95      0.00
   -7  -14   12      6.30      0.00
   -6  -14   12      2.70      0.00
   -5  -14   12     -0.29      0.00
   -4  -14   12      1.88      0.00
   -3  -14   12     -1.45      0.00
   -2  -14   12      2.08      0.00
   -1  -14   12      1.49      0.00
    0  -14   12      0.74      0.00
    1  -14   12      0.89      0.00
    2  -14   12      2.01      0.00
    3  -14   12      1.50      0.00
    4  -14   12      0.06      0.00
    5  -14   12      0.79      0.00
    6  -14   12     -1.58      0.00
    7  -14   12      2.19      0.00
    8  -14   12     -0.69      0.00
    9  -14   12     -1.91      0.00
  -10  -13   12     -3.71      0.00
   -9  -13   12     -5.34      0.00
   -8  -13   12     -4.63      0.00
   -7  -13   12     -0.68      0.00
   -6  -13   12      0.21      0.00
   -5  -13   12      3.88      0.00
   -4  -13   12     -0.19      0.00
   -3  -13   12      1.01      0.00
   -2  -13   12      3.44      0.00
   -1  -13   12      0.20      0.00
    0  -13   12     -1.70      0.00
    1  -13   12     -2.67      0.00
    2  -13   12      0.41      0.00
    3  -13   12      2.79      0.00
    4  -13   12      5.13      0.00
    5  -13   12     -1.38      0.00
    6  -13   12      2.45      0.00
    7  -13   12      1.55      0.00
    8  -13   12      0.37      0.00
    9  -13   12      3.89      0.00
  -10  -12   12     -6.13      0.00
   -9  -12   12     -2.75      0.00
   -8  -12   12      4.79      0.00
   -7  -12   12      4.98      0.00
   -6  -12   12      1.09      0.00
   -5  -12   12     -0.08      0.00
   -4  -12   12     -3.55      0.00
   -3  -12   12     -2.31      0.00
   -2  -12   12     -9.68      0.00
   -1  -12   12     -6.96      0.00
    0  -12   12      1.75      0.00
    1  -12   12      2.17      0.00
    2  -12   12     -0.07      0.00
    3  -12   12      1.06      0.00
    4  -12   12     -2.59      0.00
    5  -12   12     -0.76      0.00
    6  -12   12     -0.17      0.00
    7  -12   12      3.42      0.00
    8  -12   12      2.25      0.00
    9  -12   12      1.19      0.00
  -11  -11   12      3.53      0.00
  -10  -11   12     -0.68      0.00
   -9  -11   12      2.33      0.00
   -8  -11   12      2.11      0.00
   -7  -11   12      1.77      0.00
   -6  -11   12      0.79      0.00
   -5  -11   12     -4.92      0.00
   -4  -11   12     -5.19      0.00
   -3  -11   12     -4.83      0.00
   -2  -11   12     -5.84      0.00
   -1  -11   12      3.61      0.00
    0  -11   12      2.84      0.00
    1  -11   12     -0.38      0.00
    2  -11   12     -0.62      0.00
    3  -11   12     -1.75      0.00
    4  -11   12     -1.95      0.00
    5  -11   12     -2.40      0.00
    6  -11   12      2.35      0.00
    7  -11   12      1.76      0.00
    8  -11   12      2.71      0.00
    9  -11   12     -0.23      0.00
  -12  -10   12      1.09      0.00
  -11  -10   12     -0.71      0.00
  -10  -10   12     -0.73      0.00
   -9  -10   12     -1.04      0.00
   -8  -10   12     -0.26      0.00
   -7  -10   12     -1.22      0.00
   -6  -10   12     -0.99      0.00
   -5  -10   12      0.46      0.00
   -4  -10   12      2.51      0.00
   -3  -10   12     -0.50      0.00
   -2  -10   12      2.95      0.00
   -1  -10   12      6.86      0.00
    0  -10   12      0.46      0.00
    1  -10   12     -6.29      0.00
    2  -10   12      0.40      0.00
    3  -10   12      1.47      0.00
    4  -10   12      4.72      0.00
    5  -10   12      0.64      0.00
    6  -10   12      5.44      0.00
    7  -10   12     -0.60      0.00
    8  -10   12      1.56      0.00
    9  -10   12     -6.04      0.00
  -12   -9   12      4.60      0.00
  -11   -9   12      3.44      0.00
  -10   -9   12     -0.46      0.00
   -9   -9   12     -0.33      0.00
   -8   -9   12      5.63      0.00
   -7   -9   12      7.48      0.00
   -6   -9   12      6.01      0.00
   -5   -9   12      3.72      0.00
   -4   -9   12      2.13      0.00
   -3   -9   12      5.20      0.00
   -2   -9   12      1.20      0.00
   -1   -9   12     -4.21      0.00
    0   -9   12     -9.08      0.00
    1   -9   12      0.32      0.00
    2   -9   12      0.94      0.00
    3   -9   12      2.90      0.00
    4   -9   12     -2.69      0.00
    5   -9   12      1.29      0.00
    6   -9   12     -2.78      0.00
    7   -9   12      4.71      0.00
    8   -9   12     -1.89      0.00
    9   -9   12     -1.80      0.00
  -13   -8   12     -1.46      0.00
  -12   -8   12      0.44      0.00
  -11   -8   12     -0.42      0.00
  -10   -8   12      1.05      0.00
   -9   -8   12      3.45      0.00
   -8   -8   12     -1.64      0.00
   -7   -8   12     -1.72      0.00
   -6   -8   12     -8.45      0.00
   -5   -8   12    -10.55      0.00
   -4   -8   12      0.14      0.00
   -3   -8   12     -6.46      0.00
   -2   -8   12     -4.89      0.00
   -1   -8   12      5.43      0.00
    0   -8   12      7.79      0.00
    1   -8   12      9.53      0.00
    2   -8   12      3.77      0.00
    3   -8   12      0.71      0.00
    4   -8   12     -2.75      0.00
    5   -8   12     -1.24      0.00
    6   -8   12      3.94      0.00
    7   -8   12      0.85      0.00
    8   -8   12      0.35      0.00
    9   -8   12     -0.60      0.00
  -13   -7   12     -1.12      0.00
  -12   -7   12     -1.10      0.00
  -11   -7   12     -1.10      0.00
  -10   -7   12     -0.80      0.00
   -9   -7   12     -6.70      0.00
   -8   -7   12     -0.63      0.00
   -7   -7   12     -4.86      0.00
   -6   -7   12     -6.35      0.00
   -5   -7   12      4.29      0.00
   -4   -7   12      4.85      0.00
   -3   -7   12     -3.48      0.00
   -2   -7   12      8.00      0.00
   -1   -7   12      5.22      0.00
    0   -7   12      0.30      0.00
    1   -7   12      6.39      0.00
    2   -7   12     -0.32      0.00
    3   -7   12     -3.92      0.00
    4   -7   12      0.52      0.00
    5   -7   12     -1.69      0.00
    6   -7   12      0.35      0.00
    7   -7   12      1.46      0.00
    8   -7   12     -1.44      0.00
    9   -7   12      1.32      0.00
  -14   -6   12      0.60      0.00
  -13   -6   12     -3.47      0.00
  -12   -6   12     -3.34      0.00
  -11   -6   12      0.59      0.00
  -10   -6   12     -2.94      0.00
   -9   -6   12     -0.38      0.00
   -8   -6   12      0.20      0.00
   -7   -6   12      2.34      0.00
   -6   -6   12      3.50      0.00
   -5   -6   12      6.11      0.00
   -4   -6   12     -5.73      0.00
   -3   -6   12      5.20      0.00
   -2   -6   12      6.33      0.00
   -1   -6   12     -9.38      0.00
    0   -6   12     -0.08      0.00
    1   -6   12     -9.68      0.00
    2   -6   12     -1.67      0.00
    3   -6   12      2.35      0.00
    4   -6   12     -3.20      0.00
    5   -6   12     -1.98      0.00
    6   -6   12      1.92      0.00
    7   -6   12      1.56      0.00
    8   -6   12     -1.40      0.00
    9   -6   12      0.25      0.00
  -14   -5   12     -3.28      0.00
  -13   -5   12     -0.66      0.00
  -12   -5   12      0.65      0.00
  -11   -5   12      3.69      0.00
  -10   -5   12      2.37      0.00
   -9   -5   12      7.33      0.00
   -8   -5   12      7.93      0.00
   -7   -5   12     -1.81      0.00
   -6   -5   12     -0.94      0.00
   -5   -5   12     -4.79      0.00
   -4   -5   12      4.08      0.00
   -3   -5   12      4.80      0.00
   -2   -5   12     -6.35      0.00
   -1   -5   12      2.58      0.00
    0   -5   12     -0.30      0.00
    1   -5   12      5.60      0.00
    2   -5   12      2.78      0.00
    3   -5   12     -2.99      0.00
    4   -5   12     -4.24      0.00
    5   -5   12      3.33      0.00
    6   -5   12      1.27      0.00
    7   -5   12     -3.46      0.00
    8   -5   12      1.63      0.00
    9   -5   12      2.38      0.00
  -14   -4   12      6.10      0.00
  -13   -4   12      1.33      0.00
  -12   -4   12      1.88      0.00
  -11   -4   12      0.17      0.00
  -10   -4   12     -0.51      0.00
   -9   -4   12      0.29      0.00
   -8   -4   12     -8.25      0.00
   -7   -4   12     -0.41      0.00
   -6   -4   12     -0.35      0.00
   -5   -4   12      6.42      0.00
   -4   -4   12      8.09      0.00
   -3   -4   12     -2.57      0.00
   -2   -4   12      7.13      0.00
   -1   -4   12     -5.73      0.00
    0   -4   12     -4.88      0.00
    1   -4   12     -1.70      0.00
    2   -4   12     -1.85      0.00
    3   -4   12     -0.57      0.00
    4   -4   12     -1.86      0.00
    5   -4   12     -1.40      0.00
    6   -4   12      0.68      0.00
    7   -4   12      3.09      0.00
    8   -4   12      4.17      0.00
  -14   -3   12     -2.73      0.00
  -13   -3   12     -2.10      0.00
  -12   -3   12      2.43      0.00
  -11   -3   12     -0.51      0.00
  -10   -3   12      3.50      0.00
   -9   -3   12     -3.94      0.00
   -8   -3   12      5.74      0.00
   -7   -3   12     -1.59      0.00
   -6   -3   12      1.61      0.00
   -5   -3   12      2.60      0.00
   -4   -3   12    -10.43      0.00
   -3   -3   12     -1.40      0.00
   -2   -3   12     -5.34      0.00
   -1   -3   12     -2.66      0.00
    0   -3   12      3.27      0.00
    1   -3   12     -6.20      0.00
    2   -3   12      2.09      0.00
    3   -3   12      4.09      0.00
    4   -3   12      2.31      0.00
    5   -3   12      4.03      0.00
    6   -3   12     -0.07      0.00
    7   -3   12     -1.09      0.00
    8   -3   12     -3.25      0.00
  -14   -2   12      5.10      0.00
  -13   -2   12      3.70      0.00
  -12   -2   12      2.19      0.00
  -11   -2   12      3.10      0.00
  -10   -2   12      0.64      0.00
   -9   -2   12      4.01      0.00
   -8   -2   12     -2.86      0.00
   -7   -2   12     -0.80      0.00
   -6   -2   12      0.20      0.00
   -5   -2   12     -6.91      0.00
   -4   -2   12      0.42      0.00
   -3   -2   12      2.86      0.00
   -2   -2   12     -1.85      0.00
   -1   -2   12      3.54      0.00
    0   -2   12     -4.66      0.00
    1   -2   12      6.38      0.00
    2   -2   12      8.13      0.00
    3   -2   12     -3.93      0.00
    4   -2   12      0.37      0.00
    5   -2   12     -1.49      0.00
    6   -2   12     -1.78      0.00
    7   -2   12     -4.70      0.00
    8   -2   12      0.30      0.00
  -14   -1   12      2.46      0.00
  -13   -1   12      3.48      0.00
  -12   -1   12      0.83      0.00
  -11   -1   12     -1.49      0.00
  -10   -1   12     -3.20      0.00
   -9   -1   12     -1.34      0.00
   -8   -1   12     -1.59      0.00
   -7   -1   12     -4.38      0.00
   -6   -1   12     -7.19      0.00
   -5   -1   12      4.25      0.00
   -4   -1   12     -0.12      0.00
   -3   -1   12     -4.68      0.00
   -2   -1   12      4.83      0.00
   -1   -1   12     -0.53      0.00
    0   -1   12      4.66      0.00
    1   -1   12      2.20      0.00
    2   -1   12     -4.42      0.00
    3   -1   12     -1.54      0.00
    4   -1   12     -0.66      0.00
    5   -1   12     -2.11      0.00
    6   -1   12     -2.43      0.00
    7   -1   12      2.40      0.00
  -14    0   12      1.21      0.00
  -13    0   12      0.34      0.00
  -12    0   12     -3.73      0.00
  -11    0   12      0.12      0.00
  -10    0   12      1.35      0.00
   -9    0   12      3.72      0.00
   -8    0   12      1.51      0.00
   -7    0   12     -0.13      0.00
   -6    0   12      8.50      0.00
   -5    0   12      0.65      0.00
   -4    0   12     -6.29      0.00
   -3    0   12      0.89      0.00
   -2    0   12    -10.92      0.00
   -1    0   12     -0.51      0.00
    0    0   12      1.50      0.00
    1    0   12     -1.96      0.00
    2    0   12     -0.40      0.00
    3    0   12      1.95      0.00
    4    0   12      0.93      0.00
    5    0   12      3.14      0.00
    6    0   12     -0.13      0.00
  -14    1   12      1.78      0.00
  -13    1   12     -0.90      0.00
  -12    1   12      0.38      0.00
  -11    1   12      0.11      0.00
  -10    1   12      2.75      0.00
   -9    1   12     -0.21      0.00
   -8    1   12     -2.60      0.00
   -7    1   12      1.53      0.00
   -6    1   12      0.62      0.00
   -5    1   12     -4.23      0.00
   -4    1   12      3.93      0.00
   -3    1   12      0.01      0.00
   -2    1   12      6.82      0.00
   -1    1   12      9.29      0.00
    0    1   12      3.18      0.00
    1    1   12      1.42      0.00
    2    1   12     -0.31      0.00
    3    1   12     -2.25      0.00
    4    1   12     -3.90      0.00
    5    1   12     -9.21      0.00
    6    1   12     -6.08      0.00
  -14    2   12     -0.89      0.00
  -13    2   12      2.21      0.00
  -12    2   12      1.03      0.00
  -11    2   12      1.28      0.00
  -10    2   12     -2.24      0.00
   -9    2   12      0.32      0.00
   -8    2   12      1.89      0.00
   -7    2   12      3.24      0.00
   -6    2   12     -2.23      0.00
   -5    2   12      4.07      0.00
   -4    2   12      0.11      0.00
   -3    2   12     -0.13      0.00
   -2    2   12      3.36      0.00
   -1    2   12     -2.15      0.00
    0    2   12     -3.89      0.00
    1    2   12     -0.33      0.00
    2    2   12      0.51      0.00
    3    2   12      2.60      0.00
    4    2   12      0.07      0.00
    5    2   12      0.18      0.00
  -14    3   12      3.33      0.00
  -13    3   12     -3.09      0.00
  -12    3   12     -3.34      0.00
  -11    3   12     -5.03      0.00
  -10    3   12     -0.28      0.00
   -9    3   12      1.61      0.00
   -8    3   12      0.27      0.00
   -7    3   12      0.29      0.00
   -6    3   12     -0.23      0.00
   -5    3   12     -0.88      0.00
   -4    3   12     -0.10      0.00
   -3    3   12     -0.05      0.00
   -2    3   12     -4.86      0.00
   -1    3   12     -1.22      0.00
    0    3   12      2.43      0.00
    1    3   12     -0.47      0.00
    2    3   12      4.84      0.00
    3    3   12      3.21      0.00
    4    3   12     -3.40      0.00
  -14    4   12     -0.57      0.00
  -13    4   12     -1.48      0.00
  -12    4   12     -0.57      0.00
  -11    4   12      2.74      0.00
  -10    4   12      0.08      0.00
   -9    4   12     -1.76      0.00
   -8    4   12      1.00      0.00
   -7    4   12     -2.45      0.00
   -6    4   12      3.36      0.00
   -5    4   12     -0.12      0.00
   -4    4   12      1.01      0.00
   -3    4   12      3.12      0.00
   -2    4   12      1.12      0.00
   -1    4   12      0.32      0.00
    0    4   12     -1.56      0.00
    1    4   12      0.67      0.00
    2    4   12      0.01      0.00
    3    4   12     -2.71      0.00
    4    4   12      7.70      0.00
  -13    5   12      3.73      0.00
  -12    5   12      5.67      0.00
  -11    5   12      0.13      0.00
  -10    5   12      1.98      0.00
   -9    5   12      1.49      0.00
   -8    5   12     -2.82      0.00
   -7    5   12     -0.61      0.00
   -6    5   12     -2.69      0.00
   -5    5   12     -0.75      0.00
   -4    5   12     -0.55      0.00
   -3    5   12     -5.16      0.00
   -2    5   12      0.40      0.00
   -1    5   12      3.71      0.00
    0    5   12      0.40      0.00
    1    5   12     -0.71      0.00
    2    5   12     -0.64      0.00
  -13    6   12     -2.20      0.00
  -12    6   12     -2.58      0.00
  -11    6   12     -1.41      0.00
  -10    6   12     -0.94      0.00
   -9    6   12     -4.93      0.00
   -8    6   12     -2.76      0.00
   -7    6   12     -0.41      0.00
   -6    6   12      1.26      0.00
   -5    6   12     -0.76      0.00
   -4    6   12      5.23      0.00
   -3    6   12      6.42      0.00
   -2    6   12      1.39      0.00
   -1    6   12     -4.04      0.00
    0    6   12     -4.33      0.00
    1    6   12     -3.36      0.00
  -12    7   12     -1.27      0.00
  -11    7   12     -0.33      0.00
  -10    7   12      1.03      0.00
   -9    7   12      2.08      0.00
   -8    7   12      0.55      0.00
   -7    7   12      2.48      0.00
   -6    7   12     -0.90      0.00
   -5    7   12     -0.07      0.00
   -4    7   12     -1.01      0.00
   -3    7   12     -3.06      0.00
   -2    7   12     -1.89      0.00
   -1    7   12     -0.70      0.00
    0    7   12      1.64      0.00
  -11    8   12     -0.35      0.00
  -10    8   12     -2.24      0.00
   -9    8   12     -6.87      0.00
   -8    8   12      1.31      0.00
   -7    8   12      7.96      0.00
   -6    8   12      2.92      0.00
   -5    8   12      0.29      0.00
   -4    8   12      3.08      0.00
   -3    8   12     -1.46      0.00
   -2    8   12      1.52      0.00
   -8    9   12      9.72      0.00
   -7    9   12      3.38      0.00
   -6    9   12     -7.47      0.00
   -5    9   12     -4.60      0.00
   -1  -19   13     -1.53      0.00
    0  -19   13     -1.70      0.00
    1  -19   13     -0.57      0.00
    2  -19   13     -6.69      0.00
    3  -19   13     -1.57      0.00
   -4  -18   13     -2.84      0.00
   -3  -18   13     -5.75      0.00
   -2  -18   13     -3.15      0.00
   -1  -18   13     -2.61      0.00
    0  -18   13     -2.28      0.00
    1  -18   13     -6.04      0.00
    2  -18   13     -1.74      0.00
    3  -18   13      0.24      0.00
    4  -18   13     -0.96      0.00
    5  -18   13     -1.66      0.00
   -5  -17   13     -0.06      0.00
   -4  -17   13      1.10      0.00
   -3  -17   13     -0.20      0.00
   -2  -17   13      3.73      0.00
   -1  -17   13      5.14      0.00
    0  -17   13      5.68      0.00
    1  -17   13      0.72      0.00
    2  -17   13      0.44      0.00
    3  -17   13      0.55      0.00
    4  -17   13     -1.78      0.00
    5  -17   13     -3.45      0.00
    6  -17   13     -1.72      0.00
   -7  -16   13      4.09      0.00
   -6  -16   13      1.92      0.00
   -5  -16   13      2.54      0.00
   -4  -16   13     -3.41      0.00
   -3  -16   13      0.72      0.00
   -2  -16   13      2.34      0.00
   -1  -16   13     -1.70      0.00
    0  -16   13     -3.94      0.00
    1  -16   13     -0.72      0.00
    2  -16   13      1.12      0.00
    3  -16   13     -3.24      0.00
    4  -16   13     -2.53      0.00
    5  -16   13     -3.06      0.00
    6  -16   13     -0.09      0.00
    7  -16   13      0.30      0.00
   -8  -15   13     -2.00      0.00
   -7  -15   13     -2.13      0.00
   -6  -15   13      0.06      0.00
   -5  -15   13     -4.05      0.00
   -4  -15   13      0.07      0.00
   -3  -15   13      1.68      0.00
   -2  -15   13     -0.19      0.00
   -1  -15   13      0.47      0.00
    0  -15   13      0.59      0.00
    1  -15   13     -2.89      0.00
    2  -15   13     -3.41      0.00
    3  -15   13     -0.09      0.00
    4  -15   13     -1.30      0.00
    5  -15   13      0.54      0.00
    6  -15   13      0.89      0.00
    7  -15   13      2.46      0.00
    8  -15   13     -0.32      0.00
   -9  -14   13     -1.51      0.00
   -8  -14   13      2.46      0.00
   -7  -14   13      0.72      0.00
   -6  -14   13     -5.07      0.00
   -5  -14   13     -1.52      0.00
   -4  -14   13     -0.11      0.00
   -3  -14   13     -2.88      0.00
   -2  -14   13     -2.39      0.00
   -1  -14   13     -0.44      0.00
    0  -14   13      2.24      0.00
    1  -14   13      1.67      0.00
    2  -14   13      1.05      0.00
    3  -14   13     -2.44      0.00
    4  -14   13      3.04      0.00
    5  -14   13      3.31      0.00
    6  -14   13      2.12      0.00
    7  -14   13      2.12      0.00
    8  -14   13     -1.17      0.00
  -10  -13   13     -3.61      0.00
   -9  -13   13     -5.43      0.00
   -8  -13   13     -3.72      0.00
   -7  -13   13     -3.57      0.00
   -6  -13   13     -3.44      0.00
   -5  -13   13      1.31      0.00
   -4  -13   13     -5.06      0.00
   -3  -13   13     -2.01      0.00
   -2  -13   13     -0.59      0.00
   -1  -13   13     -1.10      0.00
    0  -13   13      2.50      0.00
    1  -13   13      1.13      0.00
    2  -13   13     -2.91      0.00
    3  -13   13      1.35      0.00
    4  -13   13     -0.33      0.00
    5  -13   13     -0.76      0.00
    6  -13   13      3.78      0.00
    7  -13   13      2.66      0.00
    8  -13   13      1.49      0.00
  -10  -12   13     -1.24      0.00
   -9  -12   13      0.43      0.00
   -8  -12   13     -1.49      0.00
   -7  -12   13     -7.16      0.00
   -6  -12   13     -0.40      0.00
   -5  -12   13     -0.12      0.00
   -4  -12   13      0.31      0.00
   -3  -12   13      4.80      0.00
   -2  -12   13      0.36      0.00
   -1  -12   13      4.86      0.00
    0  -12   13      3.60      0.00
    1  -12   13     -3.78      0.00
    2  -12   13     -1.24      0.00
    3  -12   13     -2.86      0.00
    4  -12   13     -4.88      0.00
    5  -12   13     -6.54      0.00
    6  -12   13     -0.70      0.00
    7  -12   13     -3.74      0.00
    8  -12   13     -2.12      0.00
  -11  -11   13      4.29      0.00
  -10  -11   13     -2.00      0.00
   -9  -11   13     -0.72      0.00
   -8  -11   13     -4.13      0.00
   -7  -11   13      3.69      0.00
   -6  -11   13      4.44      0.00
   -5  -11   13      0.35      0.00
   -4  -11   13      5.78      0.00
   -3  -11   13     -0.85      0.00
   -2  -11   13     -6.99      0.00
   -1  -11   13     -1.51      0.00
    0  -11   13     -3.09      0.00
    1  -11   13     -1.04      0.00
    2  -11   13     -2.60      0.00
    3  -11   13     -2.92      0.00
    4  -11   13     -2.15      0.00
    5  -11   13      1.79      0.00
    6  -11   13     -1.16      0.00
    7  -11   13     -2.49      0.00
    8  -11   13     -0.15      0.00
    9  -11   13      0.61      0.00
  -12  -10   13      1.64      0.00
  -11  -10   13      2.67      0.00
  -10  -10   13      2.74      0.00
   -9  -10   13     -0.70      0.00
   -8  -10   13      1.49      0.00
   -7  -10   13      0.06      0.00
   -6  -10   13     -4.90      0.00
   -5  -10   13     -0.86      0.00
   -4  -10   13     -0.56      0.00
   -3  -10   13     -6.32      0.00
   -2  -10   13      2.00      0.00
   -1  -10   13      8.89      0.00
    0  -10   13      5.93      0.00
    1  -10   13      1.34      0.00
    2  -10   13     -1.41      0.00
    3  -10   13     -3.62      0.00
    4  -10   13      1.23      0.00
    5  -10   13     -1.89      0.00
    6  -10   13     -1.58      0.00
    7  -10   13     -0.04      0.00
    8  -10   13     -0.50      0.00
    9  -10   13     -3.83      0.00
  -12   -9   13      4.89      0.00
  -11   -9   13      0.03      0.00
  -10   -9   13     -1.84      0.00
   -9   -9   13     -4.09      0.00
   -8   -9   13     -2.98      0.00
   -7   -9   13     -4.60      0.00
   -6   -9   13     -0.27      0.00
   -5   -9   13      2.86      0.00
   -4   -9   13      1.51      0.00
   -3   -9   13      6.44      0.00
   -2   -9   13      5.27      0.00
   -1   -9   13      7.38      0.00
    0   -9   13     -1.65      0.00
    1   -9   13      0.35      0.00
    2   -9   13     -3.29      0.00
    3   -9   13      0.06      0.00
    4   -9   13     -4.60      0.00
    5   -9   13     -6.39      0.00
    6   -9   13     -4.34      0.00
    7   -9   13      0.19      0.00
    8   -9   13     -3.07      0.00
    9   -9   13      4.59      0.00
  -13   -8   13     -5.75      0.00
  -12   -8   13     -5.11      0.00
  -11   -8   13     -1.79      0.00
  -10   -8   13     -1.83      0.00
   -9   -8   13     -3.71      0.00
   -8   -8   13     -1.73      0.00
   -7   -8   13      2.46      0.00
   -6   -8   13     -2.11      0.00
   -5   -8   13     -1.61      0.00
   -4   -8   13      2.50      0.00
   -3   -8   13     -3.76      0.00
   -2   -8   13      0.43      0.00
   -1   -8   13     -8.69      0.00
    0   -8   13     -8.57      0.00
    1   -8   13     -3.13      0.00
    2   -8   13     -2.57      0.00
    3   -8   13      1.38      0.00
    4   -8   13     -2.92      0.00
    5   -8   13     -0.18      0.00
    6   -8   13      0.21      0.00
    7   -8   13     -0.32      0.00
    8   -8   13      1.22      0.00
  -13   -7   13     -0.57      0.00
  -12   -7   13      0.78      0.00
  -11   -7   13      4.56      0.00
  -10   -7   13      1.79      0.00
   -9   -7   13      1.77      0.00
   -8   -7   13      4.65      0.00
   -7   -7   13     -4.98      0.00
   -6   -7   13     -6.85      0.00
   -5   -7   13     -0.65      0.00
   -4   -7   13     -5.33      0.00
   -3   -7   13     -7.14      0.00
   -2   -7   13     -4.77      0.00
   -1   -7   13     -4.76      0.00
    0   -7   13      6.56      0.00
    1   -7   13      3.60      0.00
    2   -7   13      1.64      0.00
    3   -7   13     -0.22      0.00
    4   -7   13     -0.14      0.00
    5   -7   13      1.08      0.00
    6   -7   13      0.97      0.00
    7   -7   13     -3.52      0.00
    8   -7   13     -0.01      0.00
  -13   -6   13      0.21      0.00
  -12   -6   13      0.37      0.00
  -11   -6   13      1.52      0.00
  -10   -6   13     -2.48      0.00
   -9   -6   13     -0.33      0.00
   -8   -6   13     -2.11      0.00
   -7   -6   13     -3.55      0.00
   -6   -6   13      3.77      0.00
   -5   -6   13     -1.03      0.00
   -4   -6   13     -0.58      0.00
   -3   -6   13      3.96      0.00
   -2   -6   13      1.65      0.00
   -1   -6   13     -0.87      0.00
    0   -6   13     -5.93      0.00
    1   -6   13     -7.59      0.00
    2   -6   13      2.71      0.00
    3   -6   13     -0.03      0.00
    4   -6   13     -0.49      0.00
    5   -6   13     -3.65      0.00
    6   -6   13     -0.21      0.00
    7   -6   13      0.84      0.00
    8   -6   13      1.61      0.00
  -14   -5   13     -2.22      0.00
  -13   -5   13     -1.01      0.00
  -12   -5   13      2.59      0.00
  -11   -5   13     -0.29      0.00
  -10   -5   13     -0.13      0.00
   -9   -5   13      2.65      0.00
   -8   -5   13     -2.89      0.00
   -7   -5   13      0.78      0.00
   -6   -5   13     -5.13      0.00
   -5   -5   13     -3.75      0.00
   -4   -5   13     -0.91      0.00
   -3   -5   13     -5.94      0.00
   -2   -5   13      1.59      0.00
   -1   -5   13      2.48      0.00
    0   -5   13     -1.34      0.00
    1   -5   13      6.02      0.00
    2   -5   13      2.29      0.00
    3   -5   13      3.01      0.00
    4   -5   13     -1.89      0.00
    5   -5   13      1.61      0.00
    6   -5   13     -2.32      0.00
    7   -5   13      0.48      0.00
    8   -5   13      5.22      0.00
  -14   -4   13      6.00      0.00
  -13   -4   13     -0.80      0.00
  -12   -4   13     -3.19      0.00
  -11   -4   13     -2.79      0.00
  -10   -4   13     -0.85      0.00
   -9   -4   13     -2.55      0.00
   -8   -4   13      1.82      0.00
   -7   -4   13     -1.26      0.00
   -6   -4   13     -2.38      0.00
   -5   -4   13      2.29      0.00
   -4   -4   13     -5.51      0.00
   -3   -4   13      3.93      0.00
   -2   -4   13      0.45      0.00
   -1   -4   13    -11.30      0.00
    0   -4   13     -1.38      0.00
    1   -4   13     -2.32      0.00
    2   -4   13      3.87      0.00
    3   -4   13      1.77      0.00
    4   -4   13      0.94      0.00
    5   -4   13      1.85      0.00
    6   -4   13      1.44      0.00
    7   -4   13      3.64      0.00
  -14   -3   13     -4.91      0.00
  -13   -3   13     -2.02      0.00
  -12   -3   13     -2.92      0.00
  -11   -3   13     -2.70      0.00
  -10   -3   13     -1.62      0.00
   -9   -3   13     -0.94      0.00
   -8   -3   13     -2.47      0.00
   -7   -3   13     -8.17      0.00
   -6   -3   13      1.82      0.00
   -5   -3   13     -2.84      0.00
   -4   -3   13      1.14      0.00
   -3   -3   13     -0.54      0.00
   -2   -3   13     -2.77      0.00
   -1   -3   13      5.75      0.00
    0   -3   13     -0.68      0.00
    1   -3   13     -3.36      0.00
    2   -3   13     -0.90      0.00
    3   -3   13     -7.03      0.00
    4   -3   13     -5.35      0.00
    5   -3   13     -1.10      0.00
    6   -3   13     -0.79      0.00
    7   -3   13     -1.74      0.00
  -14   -2   13      5.47      0.00
  -13   -2   13     -1.31      0.00
  -12   -2   13      0.40      0.00
  -11   -2   13      4.02      0.00
  -10   -2   13      4.73      0.00
   -9   -2   13      0.94      0.00
   -8   -2   13      3.00      0.00
   -7   -2   13      7.55      0.00
   -6   -2   13      1.89      0.00
   -5   -2   13      2.07      0.00
   -4   -2   13     -2.87      0.00
   -3   -2   13     -2.37      0.00
   -2   -2   13      0.55      0.00
   -1   -2   13     -2.44      0.00
    0   -2   13     -2.79      0.00
    1   -2   13      1.93      0.00
    2   -2   13     -0.39      0.00
    3   -2   13     -0.02      0.00
    4   -2   13      4.67      0.00
    5   -2   13     -0.29      0.00
    6   -2   13     -1.36      0.00
    7   -2   13     -5.56      0.00
  -14   -1   13     -3.71      0.00
  -13   -1   13     -2.17      0.00
  -12   -1   13     -3.07      0.00
  -11   -1   13     -2.38      0.00
  -10   -1   13     -6.61      0.00
   -9   -1   13      4.51      0.00
   -8   -1   13      0.96      0.00
   -7   -1   13      1.36      0.00
   -6   -1   13      6.18      0.00
   -5   -1   13      2.82      0.00
   -4   -1   13      0.04      0.00
   -3   -1   13      7.29      0.00
   -2   -1   13      2.98      0.00
   -1   -1   13      1.76      0.00
    0   -1   13     -0.59      0.00
    1   -1   13     -2.37      0.00
    2   -1   13     -5.27      0.00
    3   -1   13     -3.75      0.00
    4   -1   13     -2.04      0.00
    5   -1   13     -3.30      0.00
    6   -1   13     -1.28      0.00
  -14    0   13     -2.90      0.00
  -13    0   13     -3.29      0.00
  -12    0   13     -0.19      0.00
  -11    0   13     -1.11      0.00
  -10    0   13      1.58      0.00
   -9    0   13      0.57      0.00
   -8    0   13     -2.05      0.00
   -7    0   13      5.06      0.00
   -6    0   13     -1.09      0.00
   -5    0   13     -2.75      0.00
   -4    0   13      5.02      0.00
   -3    0   13     -1.09      0.00
   -2    0   13     -2.78      0.00
   -1    0   13      0.11      0.00
    0    0   13     -1.36      0.00
    1    0   13     -1.09      0.00
    2    0   13     -0.36      0.00
    3    0   13     -0.77      0.00
    4    0   13     -2.23      0.00
    5    0   13      0.32      0.00
  -14    1   13      0.60      0.00
  -13    1   13      0.23      0.00
  -12    1   13     -1.69      0.00
  -11    1   13     -0.33      0.00
  -10    1   13      0.84      0.00
   -9    1   13     -3.00      0.00
   -8    1   13      3.49      0.00
   -7    1   13     -1.58      0.00
   -6    1   13     -1.03      0.00
   -5    1   13      3.95      0.00
   -4    1   13     -0.41      0.00
   -3    1   13     -1.57      0.00
   -2    1   13     -0.39      0.00
   -1    1   13      2.85      0.00
    0    1   13      3.42      0.00
    1    1   13      1.82      0.00
    2    1   13      0.02      0.00
    3    1   13      0.89      0.00
    4    1   13     -3.03      0.00
    5    1   13     -5.86      0.00
  -14    2   13      0.81      0.00
  -13    2   13     -0.01      0.00
  -12    2   13     -2.27      0.00
  -11    2   13      0.23      0.00
  -10    2   13     -0.94      0.00
   -9    2   13      3.68      0.00
   -8    2   13      0.75      0.00
   -7    2   13      0.37      0.00
   -6    2   13      2.03      0.00
   -5    2   13     -0.61      0.00
   -4    2   13     -1.52      0.00
   -3    2   13      1.14      0.00
   -2    2   13      4.06      0.00
   -1    2   13     -2.47      0.00
    0    2   13      0.54      0.00
    1    2   13     -1.12      0.00
    2    2   13      0.82      0.00
    3    2   13      2.79      0.00
    4    2   13     -0.68      0.00
  -13    3   13     -1.93      0.00
  -12    3   13      4.78      0.00
  -11    3   13     -0.01      0.00
  -10    3   13      2.73      0.00
   -9    3   13     -0.74      0.00
   -8    3   13     -0.87      0.00
   -7    3   13     -0.81      0.00
   -6    3   13     -1.28      0.00
   -5    3   13      1.76      0.00
   -4    3   13     -0.10      0.00
   -3    3   13      1.06      0.00
   -2    3   13     -2.50      0.00
   -1    3   13      4.88      0.00
    0    3   13      0.31      0.00
    1    3   13     -2.32      0.00
    2    3   13      2.47      0.00
    3    3   13     -1.79      0.00
  -13    4   13     -0.55      0.00
  -12    4   13     -2.66      0.00
  -11    4   13      0.42      0.00
  -10    4   13     -1.30      0.00
   -9    4   13     -0.34      0.00
   -8    4   13     -2.46      0.00
   -7    4   13     -0.17      0.00
   -6    4   13      3.35      0.00
   -5    4   13     -3.32      0.00
   -4    4   13      4.65      0.00
   -3    4   13      0.86      0.00
   -2    4   13     -1.42      0.00
   -1    4   13      2.24      0.00
    0    4   13     -2.51      0.00
    1    4   13      1.67      0.00
    2    4   13     -1.90      0.00
  -12    5   13      6.28      0.00
  -11    5   13      4.08      0.00
  -10    5   13      6.13      0.00
   -9    5   13     -0.79      0.00
   -8    5   13      1.08      0.00
   -7    5   13      1.30      0.00
   -6    5   13     -2.23      0.00
   -5    5   13      2.70      0.00
   -4    5   13     -0.06      0.00
   -3    5   13      0.21      0.00
   -2    5   13      7.36      0.00
   -1    5   13     -0.32      0.00
    0    5   13     -1.85      0.00
    1    5   13      0.09      0.00
  -12    6   13     -3.35      0.00
  -11    6   13     -1.87      0.00
  -10    6   13     -3.05      0.00
   -9    6   13     -1.01      0.00
   -8    6   13      1.26      0.00
   -7    6   13     -2.39      0.00
   -6    6   13      0.73      0.00
   -5    6   13     -3.74      0.00
   -4    6   13      5.08      0.00
   -3    6   13      3.05      0.00
   -2    6   13     -0.13      0.00
   -1    6   13      0.38      0.00
    0    6   13      6.92      0.00
  -10    7   13      6.17      0.00
   -9    7   13      4.15      0.00
   -8    7   13     -2.38      0.00
   -7    7   13      0.90      0.00
   -6    7   13    -10.73      0.00
   -5    7   13     -4.79      0.00
   -4    7   13     -3.82      0.00
   -3    7   13     -4.39      0.00
   -2    7   13     -2.20      0.00
   -8    8   13     -7.30      0.00
   -7    8   13     -8.28      0.00
   -6    8   13     -7.35      0.00
   -5    8   13      3.67      0.00
    1  -19   14     -0.88      0.00
   -3  -18   14      3.17      0.00
   -2  -18   14      1.76      0.00
   -1  -18   14      0.18      0.00
    0  -18   14     -0.91      0.00
    1  -18   14     -3.70      0.00
    2  -18   14      0.42      0.00
    3  -18   14     -0.81      0.00
    4  -18   14     -0.31      0.00
   -5  -17   14      2.07      0.00
   -4  -17   14      4.40      0.00
   -3  -17   14      1.74      0.00
   -2  -17   14      3.02      0.00
   -1  -17   14     -0.05      0.00
    0  -17   14     -3.32      0.00
    1  -17   14     -2.32      0.00
    2  -17   14     -0.14      0.00
    3  -17   14      0.54      0.00
    4  -17   14      0.50      0.00
    5  -17   14     -1.03      0.00
   -6  -16   14      1.17      0.00
   -5  -16   14      1.34      0.00
   -4  -16   14     -0.09      0.00
   -3  -16   14      1.95      0.00
   -2  -16   14      0.67      0.00
   -1  -16   14     -5.44      0.00
    0  -16   14      1.52      0.00
    1  -16   14      0.11      0.00
    2  -16   14     -0.52      0.00
    3  -16   14     -1.25      0.00
    4  -16   14      2.07      0.00
    5  -16   14      0.86      0.00
    6  -16   14      0.70      0.00
   -8  -15   14     -2.88      0.00
   -7  -15   14     -0.55      0.00
   -6  -15   14     -0.74      0.00
   -5  -15   14      0.39      0.00
   -4  -15   14     -0.71      0.00
   -3  -15   14     -0.13      0.00
   -2  -15   14     -4.43      0.00
   -1  -15   14      1.69      0.00
    0  -15   14      0.64      0.00
    1  -15   14     -0.85      0.00
    2  -15   14     -0.01      0.00
    3  -15   14      1.36      0.00
    4  -15   14     -0.07      0.00
    5  -15   14      1.19      0.00
    6  -15   14      5.34      0.00
    7  -15   14      5.93      0.00
   -9  -14   14     -1.34      0.00
   -8  -14   14      3.67      0.00
   -7  -14   14      1.89      0.00
   -6  -14   14      1.91      0.00
   -5  -14   14      1.52      0.00
   -4  -14   14     -0.88      0.00
   -3  -14   14     -1.08      0.00
   -2  -14   14      0.28      0.00
   -1  -14   14      0.14      0.00
    0  -14   14     -2.12      0.00
    1  -14   14     -1.23      0.00
    2  -14   14     -4.17      0.00
    3  -14   14     -3.12      0.00
    4  -14   14     -1.13      0.00
    5  -14   14     -1.29      0.00
    6  -14   14      2.06      0.00
    7  -14   14     -0.70      0.00
   -9  -13   14     -4.43      0.00
   -8  -13   14     -0.44      0.00
   -7  -13   14     -0.41      0.00
   -6  -13   14      2.26      0.00
   -5  -13   14      2.83      0.00
   -4  -13   14      1.93      0.00
   -3  -13   14      0.16      0.00
   -2  -13   14     -4.26      0.00
   -1  -13   14     -4.45      0.00
    0  -13   14      3.30      0.00
    1  -13   14     -5.65      0.00
    2  -13   14     -2.11      0.00
    3  -13   14     -2.53      0.00
    4  -13   14     -1.26      0.00
    5  -13   14      1.13      0.00
    6  -13   14     -2.09      0.00
    7  -13   14     -1.22      0.00
  -10  -12   14      1.20      0.00
   -9  -12   14      6.93      0.00
   -8  -12   14      4.18      0.00
   -7  -12   14      1.64      0.00
   -6  -12   14      0.44      0.00
   -5  -12   14     -4.59      0.00
   -4  -12   14     -5.20      0.00
   -3  -12   14     -3.87      0.00
   -2  -12   14     -4.90      0.00
   -1  -12   14      6.15      0.00
    0  -12   14     -2.23      0.00
    1  -12   14      0.33      0.00
    2  -12   14      1.33      0.00
    3  -12   14      2.78      0.00
    4  -12   14      2.46      0.00
    5  -12   14     -3.63      0.00
    6  -12   14      2.20      0.00
    7  -12   14      0.06      0.00
    8  -12   14      0.46      0.00
  -11  -11   14     -1.17      0.00
  -10  -11   14      0.82      0.00
   -9  -11   14      0.15      0.00
   -8  -11   14     -5.85      0.00
   -7  -11   14     -1.02      0.00
   -6  -11   14     -4.75      0.00
   -5  -11   14     -1.77      0.00
   -4  -11   14      1.77      0.00
   -3  -11   14      0.08      0.00
   -2  -11   14      2.03      0.00
   -1  -11   14      3.16      0.00
    0  -11   14     -2.38      0.00
    1  -11   14     -0.26      0.00
    2  -11   14     -4.41      0.00
    3  -11   14     -4.15      0.00
    4  -11   14     -8.00      0.00
    5  -11   14     -1.83      0.00
    6  -11   14     -3.46      0.00
    7  -11   14     -0.41      0.00
    8  -11   14     -1.43      0.00
  -11  -10   14      0.81      0.00
  -10  -10   14      0.95      0.00
   -9  -10   14     -7.14      0.00
   -8  -10   14      1.48      0.00
   -7  -10   14     -2.46      0.00
   -6  -10   14     -3.32      0.00
   -5  -10   14      0.45      0.00
   -4  -10   14      2.63      0.00
   -3  -10   14      1.51      0.00
   -2  -10   14      1.64      0.00
   -1  -10   14     -1.68      0.00
    0  -10   14      0.80      0.00
    1  -10   14     -0.82      0.00
    2  -10   14     -3.34      0.00
    3  -10   14     -1.42      0.00
    4  -10   14      2.68      0.00
    5  -10   14     -0.43      0.00
    6  -10   14      1.65      0.00
    7  -10   14      1.53      0.00
    8  -10   14     -1.72      0.00
  -12   -9   14      1.06      0.00
  -11   -9   14      1.04      0.00
  -10   -9   14      0.40      0.00
   -9   -9   14     -0.55      0.00
   -8   -9   14     -0.86      0.00
   -7   -9   14     -5.20      0.00
   -6   -9   14     -4.36      0.00
   -5   -9   14     -2.73      0.00
   -4   -9   14      0.60      0.00
   -3   -9   14     -5.45      0.00
   -2   -9   14     -2.19      0.00
   -1   -9   14      4.51      0.00
    0   -9   14      2.76      0.00
    1   -9   14      2.75      0.00
    2   -9   14      4.57      0.00
    3   -9   14      4.60      0.00
    4   -9   14      0.61      0.00
    5   -9   14      1.28      0.00
    6   -9   14      1.61      0.00
    7   -9   14     -4.70      0.00
    8   -9   14     -1.54      0.00
  -12   -8   14     -1.00      0.00
  -11   -8   14      5.19      0.00
  -10   -8   14     -0.30      0.00
   -9   -8   14      1.10      0.00
   -8   -8   14     -0.82      0.00
   -7   -8   14     -1.07      0.00
   -6   -8   14     -2.15      0.00
   -5   -8   14      2.01      0.00
   -4   -8   14     -2.57      0.00
   -3   -8   14      2.86      0.00
   -2   -8   14      5.88      0.00
   -1   -8   14     -2.42      0.00
    0   -8   14     -5.56      0.00
    1   -8   14      1.08      0.00
    2   -8   14      2.19      0.00
    3   -8   14      2.50      0.00
    4   -8   14      0.22      0.00
    5   -8   14      0.90      0.00
    6   -8   14     -1.55      0.00
    7   -8   14      1.10      0.00
    8   -8   14     -1.81      0.00
  -13   -7   14      2.23      0.00
  -12   -7   14      4.13      0.00
  -11   -7   14      6.05      0.00
  -10   -7   14      0.58      0.00
   -9   -7   14      1.17      0.00
   -8   -7   14     -0.63      0.00
   -7   -7   14     -5.14      0.00
   -6   -7   14     -2.44      0.00
   -5   -7   14     -1.83      0.00
   -4   -7   14      3.82      0.00
   -3   -7   14      1.75      0.00
   -2   -7   14      2.46      0.00
   -1   -7   14      2.16      0.00
    0   -7   14      5.42      0.00
    1   -7   14      1.24      0.00
    2   -7   14     -1.98      0.00
    3   -7   14     -4.50      0.00
    4   -7   14     -2.72      0.00
    5   -7   14      1.42      0.00
    6   -7   14      0.62      0.00
    7   -7   14     -1.58      0.00
  -13   -6   14     -2.70      0.00
  -12   -6   14     -1.84      0.00
  -11   -6   14     -2.70      0.00
  -10   -6   14     -1.48      0.00
   -9   -6   14      2.18      0.00
   -8   -6   14      1.07      0.00
   -7   -6   14      1.24      0.00
   -6   -6   14      0.70      0.00
   -5   -6   14     -0.63      0.00
   -4   -6   14     -2.26      0.00
   -3   -6   14     -4.32      0.00
   -2   -6   14     -0.90      0.00
   -1   -6   14     -6.32      0.00
    0   -6   14     -2.34      0.00
    1   -6   14     -2.58      0.00
    2   -6   14     -0.30      0.00
    3   -6   14      1.00      0.00
    4   -6   14      0.14      0.00
    5   -6   14     -0.59      0.00
    6   -6   14     -2.76      0.00
    7   -6   14     -0.69      0.00
  -13   -5   14     -0.98      0.00
  -12   -5   14      2.07      0.00
  -11   -5   14     -0.18      0.00
  -10   -5   14      2.99      0.00
   -9   -5   14     -3.85      0.00
   -8   -5   14     -2.21      0.00
   -7   -5   14     -3.92      0.00
   -6   -5   14     -3.84      0.00
   -5   -5   14      1.95      0.00
   -4   -5   14     -3.36      0.00
   -3   -5   14      0.95      0.00
   -2   -5   14      4.22      0.00
   -1   -5   14      2.15      0.00
    0   -5   14     -2.10      0.00
    1   -5   14     -3.12      0.00
    2   -5   14     -0.79      0.00
    3   -5   14     -2.32      0.00
    4   -5   14     -0.92      0.00
    5   -5   14      1.07      0.00
    6   -5   14      3.43      0.00
    7   -5   14      6.01      0.00
  -13   -4   14     -3.65      0.00
  -12   -4   14      0.14      0.00
  -11   -4   14      0.58      0.00
  -10   -4   14     -5.62      0.00
   -9   -4   14      0.45      0.00
   -8   -4   14      0.96      0.00
   -7   -4   14      1.84      0.00
   -6   -4   14      4.34      0.00
   -5   -4   14     -1.43      0.00
   -4   -4   14     -1.20      0.00
   -3   -4   14      3.18      0.00
   -2   -4   14     -3.22      0.00
   -1   -4   14     -4.84      0.00
    0   -4   14     -3.73      0.00
    1   -4   14     -0.61      0.00
    2   -4   14      2.78      0.00
    3   -4   14      0.95      0.00
    4   -4   14      3.56      0.00
    5   -4   14      1.29      0.00
    6   -4   14      0.55      0.00
  -14   -3   14      0.88      0.00
  -13   -3   14      6.51      0.00
  -12   -3   14      2.15      0.00
  -11   -3   14      0.16      0.00
  -10   -3   14      2.62      0.00
   -9   -3   14      4.15      0.00
   -8   -3   14      2.40      0.00
   -7   -3   14     -0.55      0.00
   -6   -3   14     -1.00      0.00
   -5   -3   14     -0.68      0.00
   -4   -3   14      1.68      0.00
   -3   -3   14      2.35      0.00
   -2   -3   14      1.84      0.00
   -1   -3   14      2.91      0.00
    0   -3   14      3.23      0.00
    1   -3   14      2.98      0.00
    2   -3   14     -1.24      0.00
    3   -3   14     -5.21      0.00
    4   -3   14     -2.18      0.00
    5   -3   14     -1.79      0.00
    6   -3   14     -3.31      0.00
  -14   -2   14      1.20      0.00
  -13   -2   14     -2.16      0.00
  -12   -2   14     -1.66      0.00
  -11   -2   14     -0.48      0.00
  -10   -2   14     -4.75      0.00
   -9   -2   14     -1.09      0.00
   -8   -2   14     -1.01      0.00
   -7   -2   14     -1.89      0.00
   -6   -2   14      0.31      0.00
   -5   -2   14      0.79      0.00
   -4   -2   14     -2.08      0.00
   -3   -2   14     -2.02      0.00
   -2   -2   14     -1.38      0.00
   -1   -2   14      2.95      0.00
    0   -2   14      0.35      0.00
    1   -2   14     -1.80      0.00
    2   -2   14     -1.67      0.00
    3   -2   14      2.67      0.00
    4   -2   14      1.95      0.00
    5   -2   14      1.12      0.00
  -14   -1   14      2.03      0.00
  -13   -1   14      0.33      0.00
  -12   -1   14      0.58      0.00
  -11   -1   14     -1.15      0.00
  -10   -1   14      2.10      0.00
   -9   -1   14     -0.39      0.00
   -8   -1   14     -5.76      0.00
   -7   -1   14      3.68      0.00
   -6   -1   14      0.90      0.00
   -5   -1   14     -1.77      0.00
   -4   -1   14     -1.82      0.00
   -3   -1   14      0.92      0.00
   -2   -1   14      4.52      0.00
   -1   -1   14      1.52      0.00
    0   -1   14     -0.02      0.00
    1   -1   14     -0.22      0.00
    2   -1   14     -2.48      0.00
    3   -1   14     -2.13      0.00
    4   -1   14     -3.93      0.00
    5   -1   14     -7.56      0.00
  -14    0   14     -4.96      0.00
  -13    0   14     -1.08      0.00
  -12    0   14     -0.97      0.00
  -11    0   14      0.40      0.00
  -10    0   14     -1.04      0.00
   -9    0   14     -1.92      0.00
   -8    0   14      2.56      0.00
   -7    0   14     -1.52      0.00
   -6    0   14     -5.10      0.00
   -5    0   14     -1.18      0.00
   -4    0   14      0.40      0.00
   -3    0   14      2.95      0.00
   -2    0   14      0.39      0.00
   -1    0   14      1.17      0.00
    0    0   14      2.60      0.00
    1    0   14      2.10      0.00
    2    0   14      2.53      0.00
    3    0   14      3.22      0.00
    4    0   14      0.94      0.00
  -13    1   14     -0.39      0.00
  -12    1   14      1.37      0.00
  -11    1   14      0.43      0.00
  -10    1   14      0.45      0.00
   -9    1   14      1.74      0.00
   -8    1   14      0.61      0.00
   -7    1   14     -0.94      0.00
   -6    1   14      3.47      0.00
   -5    1   14      2.77      0.00
   -4    1   14      0.67      0.00
   -3    1   14     -1.46      0.00
   -2    1   14      2.14      0.00
   -1    1   14      6.04      0.00
    0    1   14      2.21      0.00
    1    1   14      0.79      0.00
    2    1   14      4.53      0.00
    3    1   14      1.32      0.00
    4    1   14     -9.30      0.00
  -13    2   14     -4.99      0.00
  -12    2   14     -6.71      0.00
  -11    2   14     -1.75      0.00
  -10    2   14     -0.49      0.00
   -9    2   14     -2.21      0.00
   -8    2   14     -1.23      0.00
   -7    2   14     -0.49      0.00
   -6    2   14      1.16      0.00
   -5    2   14     -2.05      0.00
   -4    2   14     -0.35      0.00
   -3    2   14      7.32      0.00
   -2    2   14      0.59      0.00
   -1    2   14     -3.55      0.00
    0    2   14     -1.80      0.00
    1    2   14      1.61      0.00
    2    2   14      2.54      0.00
    3    2   14     -0.90      0.00
  -13    3   14      3.30      0.00
  -12    3   14     10.17      0.00
  -11    3   14      5.38      0.00
  -10    3   14      2.68      0.00
   -9    3   14      0.41      0.00
   -8    3   14     -0.46      0.00
   -7    3   14      0.48      0.00
   -6    3   14      2.11      0.00
   -5    3   14     -2.59      0.00
   -4    3   14      3.29      0.00
   -3    3   14     -1.52      0.00
   -2    3   14     -0.75      0.00
   -1    3   14      4.96      0.00
    0    3   14      3.83      0.00
    1    3   14      2.03      0.00
    2    3   14      0.93      0.00
  -12    4   14     -2.65      0.00
  -11    4   14     -0.78      0.00
  -10    4   14      0.53      0.00
   -9    4   14      0.56      0.00
   -8    4   14      1.06      0.00
   -7    4   14      3.47      0.00
   -6    4   14     -5.06      0.00
   -5    4   14      0.05      0.00
   -4    4   14      2.94      0.00
   -3    4   14     -3.29      0.00
   -2    4   14     -0.29      0.00
   -1    4   14      0.86      0.00
    0    4   14     -5.24      0.00
    1    4   14      0.71      0.00
  -11    5   14      2.57      0.00
  -10    5   14      1.99      0.00
   -9    5   14     -3.40      0.00
   -8    5   14     -0.04      0.00
   -7    5   14     -4.78      0.00
   -6    5   14     -1.34      0.00
   -5    5   14     -0.16      0.00
   -4    5   14     -2.04      0.00
   -3    5   14      4.60      0.00
   -2    5   14      5.33      0.00
   -1    5   14     -6.45      0.00
  -10    6   14     -5.85      0.00
   -9    6   14     -1.81      0.00
   -8    6   14     -2.59      0.00
   -7    6   14      2.67      0.00
   -6    6   14      3.68      0.00
   -5    6   14     -3.32      0.00
   -4    6   14      0.58      0.00
   -3    6   14     -6.02      0.00
   -7    7   14      7.88      0.00
   -3  -18   15      5.34      0.00
   -2  -18   15      3.71      0.00
   -1  -18   15      7.11      0.00
    0  -18   15      3.80      0.00
    1  -18   15      0.93      0.00
    2  -18   15      0.76      0.00
    3  -18   15     -2.98      0.00
   -5  -17   15     -1.34      0.00
   -4  -17   15     -3.80      0.00
   -3  -17   15     -3.62      0.00
   -2  -17   15     -1.35      0.00
   -1  -17   15     -6.82      0.00
    0  -17   15     -6.36      0.00
    1  -17   15     -1.49      0.00
    2  -17   15     -2.30      0.00
    3  -17   15     -0.64      0.00
    4  -17   15     -3.82      0.00
   -6  -16   15     -6.20      0.00
   -5  -16   15     -6.34      0.00
   -4  -16   15     -5.77      0.00
   -3  -16   15      0.12      0.00
   -2  -16   15     -0.41      0.00
   -1  -16   15     -1.14      0.00
    0  -16   15      8.03      0.00
    1  -16   15     -2.38      0.00
    2  -16   15     -2.91      0.00
    3  -16   15     -7.20      0.00
    4  -16   15     -0.60      0.00
    5  -16   15      0.15      0.00
   -7  -15   15     -0.16      0.00
   -6  -15   15      1.99      0.00
   -5  -15   15      4.24      0.00
   -4  -15   15      3.46      0.00
   -3  -15   15     -1.47      0.00
   -2  -15   15     -6.90      0.00
   -1  -15   15      2.58      0.00
    0  -15   15     -4.10      0.00
    1  -15   15     -2.46      0.00
    2  -15   15     -2.92      0.00
    3  -15   15      0.78      0.00
    4  -15   15      1.77      0.00
    5  -15   15      1.58      0.00
    6  -15   15      3.09      0.00
   -8  -14   15     -6.78      0.00
   -7  -14   15     -5.47      0.00
   -6  -14   15      0.63      0.00
   -5  -14   15     -0.60      0.00
   -4  -14   15     -4.05      0.00
   -3  -14   15     -1.75      0.00
   -2  -14   15      1.30      0.00
   -1  -14   15      0.82      0.00
    0  -14   15      2.55      0.00
    1  -14   15      2.41      0.00
    2  -14   15     -0.27      0.00
    3  -14   15      1.48      0.00
    4  -14   15     -0.84      0.00
    5  -14   15     -4.27      0.00
    6  -14   15      3.91      0.00
   -9  -13   15      1.41      0.00
   -8  -13   15     -3.11      0.00
   -7  -13   15     -1.05      0.00
   -6  -13   15     -1.79      0.00
   -5  -13   15     -2.48      0.00
   -4  -13   15      0.50      0.00
   -3  -13   15      1.66      0.00
   -2  -13   15      0.86      0.00
   -1  -13   15      6.76      0.00
    0  -13   15      4.86      0.00
    1  -13   15     -4.52      0.00
    2  -13   15     -0.68      0.00
    3  -13   15     -3.18      0.00
    4  -13   15     -2.88      0.00
    5  -13   15      3.25      0.00
    6  -13   15     -2.41      0.00
  -10  -12   15     -3.58      0.00
   -9  -12   15     -6.80      0.00
   -8  -12   15     -4.25      0.00
   -7  -12   15     -0.03      0.00
   -6  -12   15      0.65      0.00
   -5  -12   15      1.42      0.00
   -4  -12   15      2.99      0.00
   -3  -12   15     -2.31      0.00
   -2  -12   15      0.37      0.00
   -1  -12   15      3.33      0.00
    0  -12   15     -4.96      0.00
    1  -12   15     -1.74      0.00
    2  -12   15     -4.75      0.00
    3  -12   15     -2.04      0.00
    4  -12   15      2.72      0.00
    5  -12   15     -0.45      0.00
    6  -12   15     -0.98      0.00
    7  -12   15      2.18      0.00
  -11  -11   15      0.56      0.00
  -10  -11   15      0.69      0.00
   -9  -11   15     -4.41      0.00
   -8  -11   15     -2.97      0.00
   -7  -11   15     -0.03      0.00
   -6  -11   15     -3.05      0.00
   -5  -11   15      0.66      0.00
   -4  -11   15     -2.91      0.00
   -3  -11   15     -0.06      0.00
   -2  -11   15      1.57      0.00
   -1  -11   15      4.11      0.00
    0  -11   15     -0.15      0.00
    1  -11   15      4.15      0.00
    2  -11   15     -0.32      0.00
    3  -11   15      1.88      0.00
    4  -11   15     -3.08      0.00
    5  -11   15     -6.59      0.00
    6  -11   15     -3.32      0.00
    7  -11   15     -4.87      0.00
  -11  -10   15      1.71      0.00
  -10  -10   15     -1.28      0.00
   -9  -10   15     -5.97      0.00
   -8  -10   15      0.88      0.00
   -7  -10   15     -5.25      0.00
   -6  -10   15      0.07      0.00
   -5  -10   15     -1.77      0.00
   -4  -10   15      1.55      0.00
   -3  -10   15      1.36      0.00
   -2  -10   15      3.81      0.00
   -1  -10   15     -3.13      0.00
    0  -10   15     -0.11      0.00
    1  -10   15     -3.59      0.00
    2  -10   15     -1.17      0.00
    3  -10   15      0.47      0.00
    4  -10   15     -2.69      0.00
    5  -10   15     -2.86      0.00
    6  -10   15     -1.75      0.00
    7  -10   15      2.11      0.00
  -12   -9   15     -0.56      0.00
  -11   -9   15      3.59      0.00
  -10   -9   15     -3.62      0.00
   -9   -9   15     -1.16      0.00
   -8   -9   15      0.00      0.00
   -7   -9   15      0.13      0.00
   -6   -9   15     -1.43      0.00
   -5   -9   15      2.15      0.00
   -4   -9   15      4.21      0.00
   -3   -9   15     -0.75      0.00
   -2   -9   15      0.14      0.00
   -1   -9   15     -0.14      0.00
    0   -9   15     -1.56      0.00
    1   -9   15     -2.42      0.00
    2   -9   15      1.32      0.00
    3   -9   15     -2.52      0.00
    4   -9   15     -5.55      0.00
    5   -9   15     -2.19      0.00
    6   -9   15     -1.22      0.00
    7   -9   15     -1.78      0.00
  -12   -8   15      1.59      0.00
  -11   -8   15      1.07      0.00
  -10   -8   15     -1.83      0.00
   -9   -8   15      2.82      0.00
   -8   -8   15     -0.68      0.00
   -7   -8   15     -1.02      0.00
   -6   -8   15     -0.48      0.00
   -5   -8   15     -0.16      0.00
   -4   -8   15     -4.33      0.00
   -3   -8   15     -2.65      0.00
   -2   -8   15     -1.80      0.00
   -1   -8   15     -3.62      0.00
    0   -8   15     -5.97      0.00
    1   -8   15      0.72      0.00
    2   -8   15     -4.84      0.00
    3   -8   15     -5.08      0.00
    4   -8   15     -1.51      0.00
    5   -8   15     -0.80      0.00
    6   -8   15     -0.22      0.00
    7   -8   15      1.78      0.00
  -12   -7   15     -2.17      0.00
  -11   -7   15     -2.46      0.00
  -10   -7   15     -3.02      0.00
   -9   -7   15      1.84      0.00
   -8   -7   15      0.24      0.00
   -7   -7   15     -0.45      0.00
   -6   -7   15     -3.73      0.00
   -5   -7   15     -2.57      0.00
   -4   -7   15     -1.23      0.00
   -3   -7   15     -2.26      0.00
   -2   -7   15      3.73      0.00
   -1   -7   15     -1.42      0.00
    0   -7   15     -1.60      0.00
    1   -7   15     -0.13      0.00
    2   -7   15     -1.45      0.00
    3   -7   15     -0.12      0.00
    4   -7   15     -1.66      0.00
    5   -7   15      0.01      0.00
    6   -7   15     -0.45      0.00
  -13   -6   15     -2.20      0.00
  -12   -6   15     -1.36      0.00
  -11   -6   15     -3.33      0.00
  -10   -6   15     -0.11      0.00
   -9   -6   15     -1.05      0.00
   -8   -6   15      0.70      0.00
   -7   -6   15     -4.69      0.00
   -6   -6   15     -0.42      0.00
   -5   -6   15      1.27      0.00
   -4   -6   15     -0.84      0.00
   -3   -6   15      1.39      0.00
   -2   -6   15     -2.14      0.00
   -1   -6   15     -8.21      0.00
    0   -6   15      4.80      0.00
    1   -6   15     -0.07      0.00
    2   -6   15      4.10      0.00
    3   -6   15      2.23      0.00
    4   -6   15      2.64      0.00
    5   -6   15      0.75      0.00
    6   -6   15     -2.45      0.00
  -13   -5   15     -0.20      0.00
  -12   -5   15     -1.44      0.00
  -11   -5   15     -3.12      0.00
  -10   -5   15     -1.98      0.00
   -9   -5   15     -1.06      0.00
   -8   -5   15     -0.30      0.00
   -7   -5   15     -3.21      0.00
   -6   -5   15      1.84      0.00
   -5   -5   15     -0.09      0.00
   -4   -5   15     -0.33      0.00
   -3   -5   15      0.47      0.00
   -2   -5   15     -2.42      0.00
   -1   -5   15      2.89      0.00
    0   -5   15      2.59      0.00
    1   -5   15      1.50      0.00
    2   -5   15      1.41      0.00
    3   -5   15     -3.61      0.00
    4   -5   15      0.14      0.00
    5   -5   15     -0.12      0.00
    6   -5   15      3.84      0.00
  -13   -4   15     -1.41      0.00
  -12   -4   15      1.13      0.00
  -11   -4   15     -0.29      0.00
  -10   -4   15      0.48      0.00
   -9   -4   15      3.50      0.00
   -8   -4   15     -0.17      0.00
   -7   -4   15      1.82      0.00
   -6   -4   15     -4.08      0.00
   -5   -4   15     -0.19      0.00
   -4   -4   15     -3.17      0.00
   -3   -4   15     -0.54      0.00
   -2   -4   15      2.76      0.00
   -1   -4   15      2.47      0.00
    0   -4   15     -1.91      0.00
    1   -4   15     -0.62      0.00
    2   -4   15     -2.76      0.00
    3   -4   15      0.72      0.00
    4   -4   15     -2.42      0.00
    5   -4   15     -3.46      0.00
  -13   -3   15      1.12      0.00
  -12   -3   15     -3.85      0.00
  -11   -3   15     -0.65      0.00
  -10   -3   15     -3.64      0.00
   -9   -3   15      1.81      0.00
   -8   -3   15     -0.76      0.00
   -7   -3   15      0.16      0.00
   -6   -3   15      2.64      0.00
   -5   -3   15     -0.32      0.00
   -4   -3   15      1.22      0.00
   -3   -3   15      7.09      0.00
   -2   -3   15     -1.84      0.00
   -1   -3   15     -1.20      0.00
    0   -3   15     -3.98      0.00
    1   -3   15     -0.24      0.00
    2   -3   15      0.36      0.00
    3   -3   15     -0.31      0.00
    4   -3   15      3.27      0.00
    5   -3   15      0.43      0.00
  -13   -2   15     -1.15      0.00
  -12   -2   15      2.24      0.00
  -11   -2   15     -3.55      0.00
  -10   -2   15      1.68      0.00
   -9   -2   15      2.32      0.00
   -8   -2   15      1.55      0.00
   -7   -2   15      0.41      0.00
   -6   -2   15      0.47      0.00
   -5   -2   15     -0.54      0.00
   -4   -2   15      3.42      0.00
   -3   -2   15     -1.20      0.00
   -2   -2   15      1.77      0.00
   -1   -2   15      0.03      0.00
    0   -2   15      1.49      0.00
    1   -2   15     -0.93      0.00
    2   -2   15      0.43      0.00
    3   -2   15      0.35      0.00
    4   -2   15     -2.52      0.00
  -13   -1   15     -2.46      0.00
  -12   -1   15     -4.83      0.00
  -11   -1   15      2.75      0.00
  -10   -1   15      0.07      0.00
   -9   -1   15     -2.66      0.00
   -8   -1   15      1.19      0.00
   -7   -1   15      1.07      0.00
   -6   -1   15     -3.17      0.00
   -5   -1   15      0.61      0.00
   -4   -1   15     -1.21      0.00
   -3   -1   15      0.27      0.00
   -2   -1   15     -1.80      0.00
   -1   -1   15     -3.71      0.00
    0   -1   15     -1.11      0.00
    1   -1   15      0.35      0.00
    2   -1   15     -2.57      0.00
    3   -1   15     -4.17      0.00
    4   -1   15     -7.30      0.00
  -13    0   15     -1.68      0.00
  -12    0   15      0.54      0.00
  -11    0   15     -3.18      0.00
  -10    0   15     -1.31      0.00
   -9    0   15      4.70      0.00
   -8    0   15      1.30      0.00
   -7    0   15     -2.49      0.00
   -6    0   15      3.12      0.00
   -5    0   15      1.39      0.00
   -4    0   15      2.19      0.00
   -3    0   15      2.67      0.00
   -2    0   15     -1.75      0.00
   -1    0   15      3.23      0.00
    0    0   15      6.08      0.00
    1    0   15      3.72      0.00
    2    0   15      4.76      0.00
    3    0   15      9.26      0.00
  -13    1   15      1.69      0.00
  -12    1   15      2.46      0.00
  -11    1   15      2.70      0.00
  -10    1   15      5.11      0.00
   -9    1   15      0.23      0.00
   -8    1   15     -1.47      0.00
   -7    1   15      0.95      0.00
   -6    1   15     -1.97      0.00
   -5    1   15      0.60      0.00
   -4    1   15      0.08      0.00
   -3    1   15      2.07      0.00
   -2    1   15      1.69      0.00
   -1    1   15      1.73      0.00
    0    1   15     -6.14      0.00
    1    1   15     -7.07      0.00
    2    1   15      0.96      0.00
  -12    2   15     -0.02      0.00
  -11    2   15      1.41      0.00
  -10    2   15     -1.40      0.00
   -9    2   15      1.13      0.00
   -8    2   15      2.65      0.00
   -7    2   15     -0.67      0.00
   -6    2   15      4.28      0.00
   -5    2   15     -1.21      0.00
   -4    2   15      4.28      0.00
   -3    2   15     -0.48      0.00
   -2    2   15     -7.58      0.00
   -1    2   15     -4.03      0.00
    0    2   15     -4.48      0.00
    1    2   15      6.35      0.00
  -12    3   15      3.69      0.00
  -11    3   15      2.78      0.00
  -10    3   15      4.69      0.00
   -9    3   15     -1.14      0.00
   -8    3   15     -2.97      0.00
   -7    3   15      2.14      0.00
   -6    3   15     -1.31      0.00
   -5    3   15     -4.00      0.00
   -4    3   15      2.43      0.00
   -3    3   15     -2.36      0.00
   -2    3   15      3.36      0.00
   -1    3   15     -3.77      0.00
    0    3   15      0.08      0.00
  -11    4   15     -0.57      0.00
  -10    4   15     -4.60      0.00
   -9    4   15      0.83      0.00
   -8    4   15      4.90      0.00
   -7    4   15      1.00      0.00
   -6    4   15     -2.98      0.00
   -5    4   15      4.44      0.00
   -4    4   15      2.56      0.00
   -3    4   15      2.50      0.00
   -2    4   15      1.57      0.00
   -1    4   15      4.41      0.00
   -9    5   15      2.40      0.00
   -8    5   15      0.24      0.00
   -7    5   15     -1.57      0.00
   -6    5   15     -0.60      0.00
   -5    5   15     -0.46      0.00
   -4    5   15      2.58      0.00
   -3    5   15      5.74      0.00
    0  -18   16      0.08      0.00
   -4  -17   16     -2.10      0.00
   -3  -17   16      0.31      0.00
   -2  -17   16     -5.81      0.00
   -1  -17   16     -0.15      0.00
    0  -17   16     -0.58      0.00
    1  -17   16     -0.44      0.00
    2  -17   16     -2.77      0.00
    3  -17   16     -2.91      0.00
   -6  -16   16      6.03      0.00
   -5  -16   16      4.94      0.00
   -4  -16   16      1.95      0.00
   -3  -16   16     -1.99      0.00
   -2  -16   16     -3.78      0.00
   -1  -16   16     -4.14      0.00
    0  -16   16      0.88      0.00
    1  -16   16     -4.09      0.00
    2  -16   16     -0.59      0.00
    3  -16   16     -1.45      0.00
    4  -16   16      1.91      0.00
   -7  -15   16     -2.25      0.00
   -6  -15   16     -0.09      0.00
   -5  -15   16      0.02      0.00
   -4  -15   16      0.86      0.00
   -3  -15   16     -0.79      0.00
   -2  -15   16      2.37      0.00
   -1  -15   16      5.50      0.00
    0  -15   16     -2.25      0.00
    1  -15   16     -1.39      0.00
    2  -15   16     -2.22      0.00
    3  -15   16     -0.50      0.00
    4  -15   16      1.06      0.00
    5  -15   16      4.25      0.00
   -8  -14   16     -0.71      0.00
   -7  -14   16      3.42      0.00
   -6  -14   16      1.84      0.00
   -5  -14   16      1.71      0.00
   -4  -14   16      1.66      0.00
   -3  -14   16      4.42      0.00
   -2  -14   16     -0.95      0.00
   -1  -14   16     -0.30      0.00
    0  -14   16     -3.68      0.00
    1  -14   16     -2.64      0.00
    2  -14   16     -6.27      0.00
    3  -14   16      1.13      0.00
    4  -14   16      1.22      0.00
    5  -14   16     -4.44      0.00
   -9  -13   16     -3.20      0.00
   -8  -13   16     -1.56      0.00
   -7  -13   16     -1.22      0.00
   -6  -13   16     -1.63      0.00
   -5  -13   16     -1.07      0.00
   -4  -13   16     -0.55      0.00
   -3  -13   16     -3.00      0.00
   -2  -13   16     -1.03      0.00
   -1  -13   16      0.45      0.00
    0  -13   16     -2.80      0.00
    1  -13   16     -6.02      0.00
    2  -13   16     -1.22      0.00
    3  -13   16     -2.14      0.00
    4  -13   16     -6.22      0.00
    5  -13   16     -0.53      0.00
  -10  -12   16      6.40      0.00
   -9  -12   16     -3.31      0.00
   -8  -12   16      1.15      0.00
   -7  -12   16     -2.38      0.00
   -6  -12   16     -0.36      0.00
   -5  -12   16      1.37      0.00
   -4  -12   16      1.70      0.00
   -3  -12   16     -0.34      0.00
   -2  -12   16      3.38      0.00
   -1  -12   16     -2.36      0.00
    0  -12   16     -0.71      0.00
    1  -12   16      0.42      0.00
    2  -12   16      0.48      0.00
    3  -12   16     -1.50      0.00
    4  -12   16      4.36      0.00
    5  -12   16     -3.09      0.00
    6  -12   16      1.30      0.00
  -10  -11   16     -7.81      0.00
   -9  -11   16     -4.20      0.00
   -8  -11   16     -2.39      0.00
   -7  -11   16     -0.58      0.00
   -6  -11   16     -0.98      0.00
   -5  -11   16     -1.14      0.00
   -4  -11   16      0.86      0.00
   -3  -11   16      2.10      0.00
   -2  -11   16      0.53      0.00
   -1  -11   16      4.25      0.00
    0  -11   16     -1.37      0.00
    1  -11   16     -0.10      0.00
    2  -11   16     -3.87      0.00
    3  -11   16      1.54      0.00
    4  -11   16     -5.33      0.00
    5  -11   16     -1.58      0.00
    6  -11   16      2.06      0.00
  -11  -10   16      2.68      0.00
  -10  -10   16     -0.13      0.00
   -9  -10   16      0.46      0.00
   -8  -10   16     -2.72      0.00
   -7  -10   16     -1.75      0.00
   -6  -10   16     -1.56      0.00
   -5  -10   16      4.97      0.00
   -4  -10   16      1.83      0.00
   -3  -10   16      2.99      0.00
   -2  -10   16      1.01      0.00
   -1  -10   16     -1.17      0.00
    0  -10   16     -3.07      0.00
    1  -10   16     -0.03      0.00
    2  -10   16      1.69      0.00
    3  -10   16      2.20      0.00
    4  -10   16      2.20      0.00
    5  -10   16      0.06      0.00
    6  -10   16     -4.21      0.00
  -11   -9   16      4.01      0.00
  -10   -9   16     -0.16      0.00
   -9   -9   16      1.58      0.00
   -8   -9   16      2.55      0.00
   -7   -9   16     -5.94      0.00
   -6   -9   16     -1.09      0.00
   -5   -9   16     -4.77      0.00
   -4   -9   16     -0.96      0.00
   -3   -9   16     -5.80      0.00
   -2   -9   16      3.25      0.00
   -1   -9   16     -2.79      0.00
    0   -9   16     -1.89      0.00
    1   -9   16     -1.48      0.00
    2   -9   16      2.56      0.00
    3   -9   16      0.64      0.00
    4   -9   16     -0.77      0.00
    5   -9   16     -0.03      0.00
    6   -9   16     -0.06      0.00
  -12   -8   16      3.00      0.00
  -11   -8   16      0.77      0.00
  -10   -8   16      1.46      0.00
   -9   -8   16      1.68      0.00
   -8   -8   16     -5.19      0.00
   -7   -8   16     -1.04      0.00
   -6   -8   16     -0.15      0.00
   -5   -8   16      2.91      0.00
   -4   -8   16     -1.76      0.00
   -3   -8   16      0.85      0.00
   -2   -8   16      1.09      0.00
   -1   -8   16     -1.76      0.00
    0   -8   16      5.24      0.00
    1   -8   16      3.35      0.00
    2   -8   16     -3.24      0.00
    3   -8   16      0.49      0.00
    4   -8   16     -0.61      0.00
    5   -8   16     -3.41      0.00
  -12   -7   16      0.50      0.00
  -11   -7   16     -3.49      0.00
  -10   -7   16     -1.57      0.00
   -9   -7   16     -2.26      0.00
   -8   -7   16      1.41      0.00
   -7   -7   16      0.27      0.00
   -6   -7   16     -0.95      0.00
   -5   -7   16     -1.16      0.00
   -4   -7   16     -4.59      0.00
   -3   -7   16     -0.78      0.00
   -2   -7   16      1.83      0.00
   -1   -7   16      1.56      0.00
    0   -7   16      1.07      0.00
    1   -7   16     -0.05      0.00
    2   -7   16      2.66      0.00
    3   -7   16      0.69      0.00
    4   -7   16     -0.24      0.00
    5   -7   16     -0.23      0.00
  -12   -6   16     -1.12      0.00
  -11   -6   16      0.81      0.00
  -10   -6   16      0.18      0.00
   -9   -6   16      4.27      0.00
   -8   -6   16     -0.86      0.00
   -7   -6   16     -5.07      0.00
   -6   -6   16     -1.52      0.00
   -5   -6   16     -4.04      0.00
   -4   -6   16     -2.64      0.00
   -3   -6   16     -0.06      0.00
   -2   -6   16     -2.21      0.00
   -1   -6   16     -2.31      0.00
    0   -6   16     -0.18      0.00
    1   -6   16     -2.41      0.00
    2   -6   16      1.60      0.00
    3   -6   16     -2.34      0.00
    4   -6   16     -2.20      0.00
    5   -6   16     -0.82      0.00
  -12   -5   16      0.41      0.00
  -11   -5   16     -0.06      0.00
  -10   -5   16      2.61      0.00
   -9   -5   16      0.42      0.00
   -8   -5   16     -1.71      0.00
   -7   -5   16     -0.18      0.00
   -6   -5   16      0.61      0.00
   -5   -5   16      1.12      0.00
   -4   -5   16      1.29      0.00
   -3   -5   16      3.80      0.00
   -2   -5   16     -0.12      0.00
   -1   -5   16      0.79      0.00
    0   -5   16      0.73      0.00
    1   -5   16      1.20      0.00
    2   -5   16     -0.91      0.00
    3   -5   16     -1.74      0.00
    4   -5   16      4.54      0.00
    5   -5   16     -0.45      0.00
  -12   -4   16      0.69      0.00
  -11   -4   16      0.48      0.00
  -10   -4   16     -2.75      0.00
   -9   -4   16      0.53      0.00
   -8   -4   16      0.84      0.00
   -7   -4   16     -0.27      0.00
   -6   -4   16      1.75      0.00
   -5   -4   16      3.42      0.00
   -4   -4   16      0.99      0.00
   -3   -4   16      1.45      0.00
   -2   -4   16     -0.12      0.00
   -1   -4   16      0.80      0.00
    0   -4   16     -2.08      0.00
    1   -4   16     -2.49      0.00
    2   -4   16     -0.92      0.00
    3   -4   16      3.03      0.00
    4   -4   16     -4.44      0.00
  -12   -3   16     -2.23      0.00
  -11   -3   16     -2.49      0.00
  -10   -3   16     -1.03      0.00
   -9   -3   16      1.35      0.00
   -8   -3   16     -2.17      0.00
   -7   -3   16      2.55      0.00
   -6   -3   16     -0.76      0.00
   -5   -3   16     -1.36      0.00
   -4   -3   16     -3.21      0.00
   -3   -3   16     -2.31      0.00
   -2   -3   16     -2.54      0.00
   -1   -3   16     -1.23      0.00
    0   -3   16     -2.08      0.00
    1   -3   16      2.88      0.00
    2   -3   16      0.10      0.00
    3   -3   16      1.01      0.00
    4   -3   16      1.74      0.00
  -12   -2   16      2.15      0.00
  -11   -2   16     -0.03      0.00
  -10   -2   16      2.71      0.00
   -9   -2   16     -1.63      0.00
   -8   -2   16     -0.02      0.00
   -7   -2   16     -4.17      0.00
   -6   -2   16      2.43      0.00
   -5   -2   16     -3.78      0.00
   -4   -2   16      0.00      0.00
   -3   -2   16      2.43      0.00
   -2   -2   16      1.02      0.00
   -1   -2   16      0.23      0.00
    0   -2   16      2.06      0.00
    1   -2   16     -1.51      0.00
    2   -2   16      3.46      0.00
    3   -2   16     -1.21      0.00
  -12   -1   16      0.94      0.00
  -11   -1   16      4.11      0.00
  -10   -1   16     -2.88      0.00
   -9   -1   16      1.40      0.00
   -8   -1   16     -1.30      0.00
   -7   -1   16      0.71      0.00
   -6   -1   16     -3.31      0.00
   -5   -1   16     -0.33      0.00
   -4   -1   16      2.63      0.00
   -3   -1   16     -2.75      0.00
   -2   -1   16     -1.38      0.00
   -1   -1   16      3.36      0.00
    0   -1   16      6.84      0.00
    1   -1   16      5.89      0.00
    2   -1   16      1.66      0.00
  -12    0   16      1.43      0.00
  -11    0   16     -3.89      0.00
  -10    0   16      2.09      0.00
   -9    0   16      1.29      0.00
   -8    0   16      0.07      0.00
   -7    0   16      0.90      0.00
   -6    0   16      3.04      0.00
   -5    0   16      1.70      0.00
   -4    0   16     -2.68      0.00
   -3    0   16      1.85      0.00
   -2    0   16      0.41      0.00
   -1    0   16      1.69      0.00
    0    0   16     -4.80      0.00
    1    0   16     -4.36      0.00
  -12    1   16      0.53      0.00
  -11    1   16      3.65      0.00
  -10    1   16      0.53      0.00
   -9    1   16     -3.57      0.00
   -8    1   16     -2.03      0.00
   -7    1   16      0.64      0.00
   -6    1   16      2.03      0.00
   -5    1   16     -2.07      0.00
   -4    1   16      2.08      0.00
   -3    1   16      6.97      0.00
   -2    1   16     -1.09      0.00
   -1    1   16     -0.06      0.00
    0    1   16     -0.72      0.00
  -11    2   16     -2.35      0.00
  -10    2   16     -3.00      0.00
   -9    2   16      1.04      0.00
   -8    2   16      2.51      0.00
   -7    2   16      3.31      0.00
   -6    2   16      0.48      0.00
   -5    2   16     -0.13      0.00
   -4    2   16      9.76      0.00
   -3    2   16     -4.91      0.00
   -2    2   16     -0.89      0.00
   -1    2   16      2.81      0.00
  -10    3   16      5.71      0.00
   -9    3   16      1.36      0.00
   -8    3   16      4.52      0.00
   -7    3   16      2.44      0.00
   -6    3   16     -1.78      0.00
   -5    3   16     -1.92      0.00
   -4    3   16     -2.11      0.00
   -3    3   16      1.34      0.00
   -2    3   16      7.29      0.00
   -8    4   16     -7.55      0.00
   -7    4   16     -3.79      0.00
   -6    4   16     -1.55      0.00
   -5    4   16      1.49      0.00
   -2  -17   17     -5.78      0.00
   -1  -17   17      4.08      0.00
    0  -17   17     -3.25      0.00
   -5  -16   17      1.82      0.00
   -4  -16   17      0.16      0.00
   -3  -16   17     -0.44      0.00
   -2  -16   17      1.44      0.00
   -1  -16   17      0.37      0.00
    0  -16   17     -0.17      0.00
    1  -16   17     -2.96      0.00
    2  -16   17     -2.50      0.00
   -6  -15   17      2.08      0.00
   -5  -15   17     -0.28      0.00
   -4  -15   17     -1.85      0.00
   -3  -15   17     -1.60      0.00
   -2  -15   17      4.17      0.00
   -1  -15   17     -0.28      0.00
    0  -15   17     -1.64      0.00
    1  -15   17     -2.35      0.00
    2  -15   17     -0.36      0.00
    3  -15   17     -0.18      0.00
   -7  -14   17      3.50      0.00
   -6  -14   17     -0.20      0.00
   -5  -14   17     -1.46      0.00
   -4  -14   17     -1.70      0.00
   -3  -14   17      4.41      0.00
   -2  -14   17      0.79      0.00
   -1  -14   17      3.43      0.00
    0  -14   17     -0.23      0.00
    1  -14   17     -0.42      0.00
    2  -14   17     -4.16      0.00
    3  -14   17     -0.83      0.00
    4  -14   17     -0.42      0.00
   -8  -13   17     -1.35      0.00
   -7  -13   17      1.82      0.00
   -6  -13   17      0.26      0.00
   -5  -13   17     -0.84      0.00
   -4  -13   17      2.15      0.00
   -3  -13   17      1.41      0.00
   -2  -13   17      2.13      0.00
   -1  -13   17      1.71      0.00
    0  -13   17     -4.41      0.00
    1  -13   17     -3.55      0.00
    2  -13   17      3.33      0.00
    3  -13   17      2.54      0.00
    4  -13   17      4.00      0.00
   -9  -12   17     -7.01      0.00
   -8  -12   17      1.69      0.00
   -7  -12   17     -5.72      0.00
   -6  -12   17     -1.48      0.00
   -5  -12   17     -2.42      0.00
   -4  -12   17     -2.63      0.00
   -3  -12   17     -3.03      0.00
   -2  -12   17     -0.67      0.00
   -1  -12   17     -8.62      0.00
    0  -12   17     -1.36      0.00
    1  -12   17      1.34      0.00
    2  -12   17     -2.20      0.00
    3  -12   17     -3.73      0.00
    4  -12   17     -5.14      0.00
  -10  -11   17     -8.69      0.00
   -9  -11   17      2.31      0.00
   -8  -11   17     -2.88      0.00
   -7  -11   17      0.84      0.00
   -6  -11   17     -3.08      0.00
   -5  -11   17     -1.96      0.00
   -4  -11   17     -0.33      0.00
   -3  -11   17      1.37      0.00
   -2  -11   17      1.79      0.00
   -1  -11   17      2.84      0.00
    0  -11   17      1.19      0.00
    1  -11   17      0.53      0.00
    2  -11   17      0.03      0.00
    3  -11   17      5.10      0.00
    4  -11   17     -1.64      0.00
  -10  -10   17      2.89      0.00
   -9  -10   17      2.11      0.00
   -8  -10   17     -0.54      0.00
   -7  -10   17     -0.42      0.00
   -6  -10   17     -0.58      0.00
   -5  -10   17      2.67      0.00
   -4  -10   17     -1.10      0.00
   -3  -10   17      1.42      0.00
   -2  -10   17     -4.07      0.00
   -1  -10   17      1.51      0.00
    0  -10   17     -3.87      0.00
    1  -10   17     -3.38      0.00
    2  -10   17     -5.05      0.00
    3  -10   17     -1.75      0.00
    4  -10   17     -2.50      0.00
  -11   -9   17     -4.05      0.00
  -10   -9   17     -1.84      0.00
   -9   -9   17      2.40      0.00
   -8   -9   17      3.95      0.00
   -7   -9   17     -0.44      0.00
   -6   -9   17      1.84      0.00
   -5   -9   17     -1.01      0.00
   -4   -9   17      0.12      0.00
   -3   -9   17     -3.42      0.00
   -2   -9   17      9.70      0.00
   -1   -9   17     -2.31      0.00
    0   -9   17     -0.59      0.00
    1   -9   17     -2.36      0.00
    2   -9   17      1.30      0.00
    3   -9   17     -6.57      0.00
    4   -9   17      0.08      0.00
  -11   -8   17      0.73      0.00
  -10   -8   17      4.84      0.00
   -9   -8   17      4.86      0.00
   -8   -8   17      0.14      0.00
   -7   -8   17     -2.87      0.00
   -6   -8   17     -0.31      0.00
   -5   -8   17     -3.63      0.00
   -4   -8   17     -2.59      0.00
   -3   -8   17      3.08      0.00
   -2   -8   17     -0.83      0.00
   -1   -8   17     -1.83      0.00
    0   -8   17      4.41      0.00
    1   -8   17     -1.05      0.00
    2   -8   17     -5.37      0.00
    3   -8   17      0.71      0.00
    4   -8   17     -0.98      0.00
  -11   -7   17     -2.10      0.00
  -10   -7   17     -0.39      0.00
   -9   -7   17      0.25      0.00
   -8   -7   17      0.52      0.00
   -7   -7   17     -0.27      0.00
   -6   -7   17     -0.23      0.00
   -5   -7   17      1.76      0.00
   -4   -7   17     -1.19      0.00
   -3   -7   17     -0.35      0.00
   -2   -7   17     -2.89      0.00
   -1   -7   17     -2.43      0.00
    0   -7   17     -2.50      0.00
    1   -7   17     -8.07      0.00
    2   -7   17     -4.32      0.00
    3   -7   17     -2.32      0.00
    4   -7   17      1.05      0.00
  -12   -6   17      1.83      0.00
  -11   -6   17     -0.88      0.00
  -10   -6   17      1.83      0.00
   -9   -6   17      5.27      0.00
   -8   -6   17     -0.13      0.00
   -7   -6   17      4.02      0.00
   -6   -6   17      1.69      0.00
   -5   -6   17      3.20      0.00
   -4   -6   17     -2.95      0.00
   -3   -6   17     -1.45      0.00
   -2   -6   17     -3.57      0.00
   -1   -6   17      3.56      0.00
    0   -6   17     -2.09      0.00
    1   -6   17      2.94      0.00
    2   -6   17      4.99      0.00
    3   -6   17      0.71      0.00
    4   -6   17     -2.61      0.00
  -12   -5   17     -7.59      0.00
  -11   -5   17     -2.70      0.00
  -10   -5   17     -1.18      0.00
   -9   -5   17      0.94      0.00
   -8   -5   17      1.19      0.00
   -7   -5   17     -3.27      0.00
   -6   -5   17      0.73      0.00
   -5   -5   17     -3.34      0.00
   -4   -5   17     -1.49      0.00
   -3   -5   17      2.26      0.00
   -2   -5   17      1.05      0.00
   -1   -5   17      1.55      0.00
    0   -5   17      0.99      0.00
    1   -5   17     -0.44      0.00
    2   -5   17     -2.76      0.00
    3   -5   17     -1.59      0.00
  -12   -4   17      1.85      0.00
  -11   -4   17     -3.15      0.00
  -10   -4   17      0.97      0.00
   -9   -4   17      3.07      0.00
   -8   -4   17     -0.81      0.00
   -7   -4   17      0.31      0.00
   -6   -4   17      4.15      0.00
   -5   -4   17      1.92      0.00
   -4   -4   17      6.74      0.00
   -3   -4   17     -0.46      0.00
   -2   -4   17      3.67      0.00
   -1   -4   17     -1.77      0.00
    0   -4   17     -4.32      0.00
    1   -4   17     -3.61      0.00
    2   -4   17      0.47      0.00
    3   -4   17      1.18      0.00
  -12   -3   17     -0.42      0.00
  -11   -3   17      3.84      0.00
  -10   -3   17      2.24      0.00
   -9   -3   17      0.03      0.00
   -8   -3   17     -0.54      0.00
   -7   -3   17     -2.25      0.00
   -6   -3   17     -2.49      0.00
   -5   -3   17      0.49      0.00
   -4   -3   17     -7.32      0.00
   -3   -3   17      1.85      0.00
   -2   -3   17     -1.71      0.00
   -1   -3   17      0.09      0.00
    0   -3   17      2.74      0.00
    1   -3   17      1.89      0.00
    2   -3   17     -1.37      0.00
  -11   -2   17     -5.58      0.00
  -10   -2   17     -3.65      0.00
   -9   -2   17      1.42      0.00
   -8   -2   17     -2.64      0.00
   -7   -2   17      3.56      0.00
   -6   -2   17      5.48      0.00
   -5   -2   17     -3.92      0.00
   -4   -2   17      7.09      0.00
   -3   -2   17      6.08      0.00
   -2   -2   17     -4.11      0.00
   -1   -2   17     -3.20      0.00
    0   -2   17     -4.74      0.00
    1   -2   17      0.26      0.00
  -11   -1   17     -0.69      0.00
  -10   -1   17      5.89      0.00
   -9   -1   17      3.53      0.00
   -8   -1   17      3.70      0.00
   -7   -1   17      4.06      0.00
   -6   -1   17     -4.71      0.00
   -5   -1   17      2.82      0.00
   -4   -1   17      2.71      0.00
   -3   -1   17     -6.37      0.00
   -2   -1   17     -0.49      0.00
   -1   -1   17      4.09      0.00
    0   -1   17      6.37      0.00
  -11    0   17      2.60      0.00
  -10    0   17      0.61      0.00
   -9    0   17      0.26      0.00
   -8    0   17      2.28      0.00
   -7    0   17     -3.46      0.00
   -6    0   17      2.78      0.00
   -5    0   17      2.57      0.00
   -4    0   17      1.20      0.00
   -3    0   17      3.84      0.00
   -2    0   17     -2.11      0.00
   -1    0   17     -0.84      0.00
  -10    1   17      3.33      0.00
   -9    1   17      2.95      0.00
   -8    1   17     -1.61      0.00
   -7    1   17      2.77      0.00
   -6    1   17      1.76      0.00
   -5    1   17     -8.93      0.00
   -4    1   17      0.37      0.00
   -3    1   17     -1.66      0.00
   -2    1   17     -4.08      0.00
   -9    2   17     -1.46      0.00
   -8    2   17      0.10      0.00
   -7    2   17      1.28      0.00
   -6    2   17     -6.47      0.00
   -5    2   17      3.41      0.00
   -4    2   17      7.88      0.00
   -3  -16   18      5.07      0.00
   -2  -16   18      2.99      0.00
   -1  -16   18     -0.16      0.00
    0  -16   18     -2.34      0.00
   -5  -15   18     -0.75      0.00
   -4  -15   18     -1.77      0.00
   -3  -15   18     -2.90      0.00
   -2  -15   18     -1.02      0.00
   -1  -15   18     -4.76      0.00
    0  -15   18      1.70      0.00
    1  -15   18     -3.10      0.00
   -6  -14   18      3.47      0.00
   -5  -14   18      1.93      0.00
   -4  -14   18      2.64      0.00
   -3  -14   18      3.10      0.00
   -2  -14   18     -1.90      0.00
   -1  -14   18      0.15      0.00
    0  -14   18     -0.79      0.00
    1  -14   18     -1.47      0.00
    2  -14   18     -0.68      0.00
   -7  -13   18      4.62      0.00
   -6  -13   18     -3.11      0.00
   -5  -13   18     -0.63      0.00
   -4  -13   18     -1.83      0.00
   -3  -13   18     -0.16      0.00
   -2  -13   18     -1.28      0.00
   -1  -13   18      2.48      0.00
    0  -13   18     -6.07      0.00
    1  -13   18      0.03      0.00
    2  -13   18      0.48      0.00
    3  -13   18      2.88      0.00
   -8  -12   18     -0.10      0.00
   -7  -12   18     -3.66      0.00
   -6  -12   18      2.87      0.00
   -5  -12   18      3.09      0.00
   -4  -12   18      4.48      0.00
   -3  -12   18      1.29      0.00
   -2  -12   18      3.55      0.00
   -1  -12   18     -0.66      0.00
    0  -12   18      3.89      0.00
    1  -12   18      3.12      0.00
    2  -12   18      2.75      0.00
    3  -12   18      3.58      0.00
   -9  -11   18      3.17      0.00
   -8  -11   18      1.34      0.00
   -7  -11   18     -0.24      0.00
   -6  -11   18      1.87      0.00
   -5  -11   18      3.01      0.00
   -4  -11   18      0.55      0.00
   -3  -11   18      2.17      0.00
   -2  -11   18      6.14      0.00
   -1  -11   18     -2.56      0.00
    0  -11   18     -0.02      0.00
    1  -11   18     -3.01      0.00
    2  -11   18     -1.08      0.00
    3  -11   18      2.59      0.00
   -9  -10   18      3.30      0.00
   -8  -10   18     -2.33      0.00
   -7  -10   18      1.03      0.00
   -6  -10   18      3.90      0.00
   -5  -10   18      0.34      0.00
   -4  -10   18      1.14      0.00
   -3  -10   18      3.91      0.00
   -2  -10   18     -5.08      0.00
   -1  -10   18      2.67      0.00
    0  -10   18     -4.57      0.00
    1  -10   18     -6.35      0.00
    2  -10   18     -3.59      0.00
    3  -10   18     -2.38      0.00
  -10   -9   18      2.48      0.00
   -9   -9   18     -0.82      0.00
   -8   -9   18      0.04      0.00
   -7   -9   18      0.10      0.00
   -6   -9   18     -1.66      0.00
   -5   -9   18      0.06      0.00
   -4   -9   18     -4.06      0.00
   -3   -9   18     -3.92      0.00
   -2   -9   18      5.20      0.00
   -1   -9   18     -0.86      0.00
    0   -9   18      0.02      0.00
    1   -9   18      0.98      0.00
    2   -9   18      2.01      0.00
    3   -9   18     -3.84      0.00
  -10   -8   18     -0.41      0.00
   -9   -8   18      1.98      0.00
   -8   -8   18     -1.75      0.00
   -7   -8   18      0.29      0.00
   -6   -8   18      1.92      0.00
   -5   -8   18     -7.13      0.00
   -4   -8   18     -7.41      0.00
   -3   -8   18     -4.92      0.00
   -2   -8   18     -0.60      0.00
   -1   -8   18      0.80      0.00
    0   -8   18      3.02      0.00
    1   -8   18      0.89      0.00
    2   -8   18      0.58      0.00
    3   -8   18     -0.88      0.00
  -10   -7   18      2.38      0.00
   -9   -7   18      1.53      0.00
   -8   -7   18      0.32      0.00
   -7   -7   18      1.56      0.00
   -6   -7   18      0.61      0.00
   -5   -7   18     -1.71      0.00
   -4   -7   18     -5.16      0.00
   -3   -7   18      1.77      0.00
   -2   -7   18      0.88      0.00
   -1   -7   18      2.81      0.00
    0   -7   18      2.51      0.00
    1   -7   18      0.27      0.00
    2   -7   18     -1.94      0.00
  -11   -6   18      1.15      0.00
  -10   -6   18      1.08      0.00
   -9   -6   18     -3.73      0.00
   -8   -6   18     -1.36      0.00
   -7   -6   18     -0.56      0.00
   -6   -6   18      1.08      0.00
   -5   -6   18      0.97      0.00
   -4   -6   18     -2.28      0.00
   -3   -6   18      0.97      0.00
   -2   -6   18     -0.54      0.00
   -1   -6   18     -0.53      0.00
    0   -6   18     -6.43      0.00
    1   -6   18     -3.45      0.00
    2   -6   18     -0.87      0.00
  -11   -5   18     -1.22      0.00
  -10   -5   18     -5.05      0.00
   -9   -5   18      1.02      0.00
   -8   -5   18     -3.47      0.00
   -7   -5   18      1.04      0.00
   -6   -5   18      3.09      0.00
   -5   -5   18     -1.36      0.00
   -4   -5   18      0.58      0.00
   -3   -5   18     -0.15      0.00
   -2   -5   18     -2.55      0.00
   -1   -5   18      2.89      0.00
    0   -5   18      5.11      0.00
    1   -5   18      6.50      0.00
    2   -5   18      7.19      0.00
  -11   -4   18     -4.04      0.00
  -10   -4   18      3.57      0.00
   -9   -4   18     -0.23      0.00
   -8   -4   18      0.85      0.00
   -7   -4   18      0.33      0.00
   -6   -4   18      2.25      0.00
   -5   -4   18     -2.37      0.00
   -4   -4   18     -0.38      0.00
   -3   -4   18     -6.17      0.00
   -2   -4   18      1.56      0.00
   -1   -4   18     -6.06      0.00
    0   -4   18     -2.12      0.00
    1   -4   18     -0.44      0.00
  -10   -3   18     -0.34      0.00
   -9   -3   18      1.96      0.00
   -8   -3   18     -2.97      0.00
   -7   -3   18     -0.21      0.00
   -6   -3   18      1.48      0.00
   -5   -3   18     -2.48      0.00
   -4   -3   18     -7.73      0.00
   -3   -3   18      1.67      0.00
   -2   -3   18     -4.63      0.00
   -1   -3   18      6.98      0.00
    0   -3   18      6.10      0.00
  -10   -2   18      3.24      0.00
   -9   -2   18      0.42      0.00
   -8   -2   18     -1.21      0.00
   -7   -2   18      5.85      0.00
   -6   -2   18     -4.79      0.00
   -5   -2   18     -7.75      0.00
   -4   -2   18      3.00      0.00
   -3   -2   18     -3.37      0.00
   -2   -2   18     -3.41      0.00
   -1   -2   18      2.33      0.00
  -10   -1   18      3.76      0.00
   -9   -1   18     -2.30      0.00
   -8   -1   18      1.25      0.00
   -7   -1   18     -1.89      0.00
   -6   -1   18     -2.03      0.00
   -5   -1   18      1.93      0.00
   -4   -1   18     -5.26      0.00
   -3   -1   18     -3.03      0.00
   -2   -1   18      3.10      0.00
   -9    0   18     -0.98      0.00
   -8    0   18      0.67      0.00
   -7    0   18     -0.44      0.00
   -6    0   18      4.94      0.00
   -5    0   18     -0.25      0.00
   -4    0   18      9.68      0.00
   -3    0   18      2.23      0.00
   -5  -14   19      0.31      0.00
   -4  -14   19      1.53      0.00
   -3  -14   19     -1.04      0.00
   -2  -14   19     -1.56      0.00
   -1  -14   19     -3.77      0.00
    0  -14   19     -5.28      0.00
   -6  -13   19     -5.51      0.00
   -5  -13   19     -0.54      0.00
   -4  -13   19     -3.74      0.00
   -3  -13   19      0.51      0.00
   -2  -13   19     -5.20      0.00
   -1  -13   19     -6.12      0.00
    0  -13   19     -3.73      0.00
    1  -13   19      2.89      0.00
   -7  -12   19      1.92      0.00
   -6  -12   19      5.40      0.00
   -5  -12   19      1.32      0.00
   -4  -12   19      0.26      0.00
   -3  -12   19     -1.63      0.00
   -2  -12   19     -4.28      0.00
   -1  -12   19      0.86      0.00
    0  -12   19     -1.70      0.00
    1  -12   19     -7.94      0.00
   -8  -11   19     -0.36      0.00
   -7  -11   19     -1.31      0.00
   -6  -11   19     -1.61      0.00
   -5  -11   19     -2.60      0.00
   -4  -11   19      0.54      0.00
   -3  -11   19      1.15      0.00
   -2  -11   19      9.17      0.00
   -1  -11   19     -2.54      0.00
    0  -11   19     -2.97      0.00
    1  -11   19     -4.07      0.00
   -8  -10   19      0.00      0.00
   -7  -10   19     -0.77      0.00
   -6  -10   19     -0.18      0.00
   -5  -10   19     -6.21      0.00
   -4  -10   19     -2.42      0.00
   -3  -10   19      4.93      0.00
   -2  -10   19      2.00      0.00
   -1  -10   19      6.51      0.00
    0  -10   19     -1.68      0.00
    1  -10   19      1.56      0.00
   -9   -9   19      0.91      0.00
   -8   -9   19     -1.52      0.00
   -7   -9   19      0.03      0.00
   -6   -9   19     -5.54      0.00
   -5   -9   19     -2.08      0.00
   -4   -9   19     -0.03      0.00
   -3   -9   19      3.17      0.00
   -2   -9   19      7.73      0.00
   -1   -9   19     -2.14      0.00
    0   -9   19      0.58      0.00
    1   -9   19     -3.97      0.00
   -9   -8   19      0.70      0.00
   -8   -8   19     -0.30      0.00
   -7   -8   19      3.52      0.00
   -6   -8   19      1.58      0.00
   -5   -8   19      1.71      0.00
   -4   -8   19     -7.08      0.00
   -3   -8   19     -1.05      0.00
   -2   -8   19     -4.31      0.00
   -1   -8   19     -3.40      0.00
    0   -8   19     -7.98      0.00
    1   -8   19     -6.38      0.00
   -9   -7   19      1.82      0.00
   -8   -7   19      4.47      0.00
   -7   -7   19      2.10      0.00
   -6   -7   19      8.23      0.00
   -5   -7   19      0.69      0.00
   -4   -7   19      6.67      0.00
   -3   -7   19      4.84      0.00
   -2   -7   19      2.25      0.00
   -1   -7   19      2.93      0.00
    0   -7   19      4.44      0.00
    1   -7   19      7.46      0.00
   -9   -6   19     -1.18      0.00
   -8   -6   19     -4.15      0.00
   -7   -6   19     -5.73      0.00
   -6   -6   19     -1.15      0.00
   -5   -6   19     -3.18      0.00
   -4   -6   19     -4.25      0.00
   -3   -6   19     -4.84      0.00
   -2   -6   19     -0.14      0.00
   -1   -6   19     -0.23      0.00
    0   -6   19      1.21      0.00
   -9   -5   19      6.38      0.00
   -8   -5   19      0.69      0.00
   -7   -5   19      7.54      0.00
   -6   -5   19      4.75      0.00
   -5   -5   19      2.86      0.00
   -4   -5   19     -2.18      0.00
   -3   -5   19      3.95      0.00
   -2   -5   19      2.00      0.00
   -1   -5   19      6.25      0.00
   -9   -4   19     -2.11      0.00
   -8   -4   19     -3.37      0.00
   -7   -4   19     -0.28      0.00
   -6   -4   19     -2.78      0.00
   -5   -4   19     -8.46      0.00
   -4   -4   19      1.03      0.00
   -3   -4   19      0.00      0.00
   -2   -4   19     -1.54      0.00
   -1   -4   19     -9.18      0.00
   -9   -3   19      1.57      0.00
   -8   -3   19      2.86      0.00
   -7   -3   19      5.48      0.00
   -6   -3   19      1.91      0.00
   -5   -3   19     -0.78      0.00
   -4   -3   19      0.33      0.00
   -3   -3   19     -0.91      0.00
   -2   -3   19     -5.96      0.00
   -8   -2   19      5.24      0.00
   -7   -2   19      2.41      0.00
   -6   -2   19     -5.24      0.00
   -5   -2   19      2.76      0.00
   -4   -2   19      6.63      0.00
   -5  -12   20     -2.01      0.00
   -4  -12   20      1.68      0.00
   -3  -12   20      5.50      0.00
   -2  -12   20     -2.67      0.00
   -6  -11   20     -7.60      0.00
   -5  -11   20      0.35      0.00
   -4  -11   20      5.21      0.00
   -3  -11   20      2.27      0.00
   -2  -11   20     10.19      0.00
   -1  -11   20     -1.71      0.00
   -6  -10   20      7.46      0.00
   -5  -10   20     -1.89      0.00
   -4  -10   20     -4.61      0.00
   -3  -10   20     -1.39      0.00
   -2  -10   20      2.10      0.00
   -1  -10   20      1.38      0.00
   -7   -9   20      5.94      0.00
   -6   -9   20     -1.67      0.00
   -5   -9   20     -4.84      0.00
   -4   -9   20     -8.51      0.00
   -3   -9   20     -1.42      0.00
   -2   -9   20      0.11      0.00
   -1   -9   20     -3.87      0.00
   -7   -8   20      2.27      0.00
   -6   -8   20      2.10      0.00
   -5   -8   20     -0.88      0.00
   -4   -8   20     -4.85      0.00
   -3   -8   20      6.49      0.00
   -2   -8   20      3.43      0.00
   -7   -7   20     -1.24      0.00
   -6   -7   20     -1.13      0.00
   -5   -7   20    -10.22      0.00
   -4   -7   20     -1.63      0.00
   -3   -7   20     -4.67      0.00
   -2   -7   20     -3.41      0.00
   -7   -6   20     -0.20      0.00
   -6   -6   20     -0.30      0.00
   -5   -6   20     -2.99      0.00
   -4   -6   20     -2.67      0.00
   -3   -6   20     -5.68      0.00
   -6   -5   20      0.25      0.00
   -5   -5   20     -5.23      0.00
   -4   -5   20    -10.47      0.00
    1    0    0    135.76      0.00
   -1    1    0    142.46      0.00
    0    1    0   -157.95      0.00
  -15    2    0      2.13      0.00
   13    4    0      2.73      0.00
   12    6    0     -2.55      0.00
  -15    9    0      0.77      0.00
   10    9    0      3.01      0.00
  -14   12    0      1.21      0.00
  -12   15    0     -0.53      0.00
    2   16    0      0.58      0.00
   -9   17    0     -1.87      0.00
    2  -18    1      2.36      0.00
    7  -18    1      5.14      0.00
   -1  -17    1      4.18      0.00
   -3  -16    1     -0.58      0.00
   13  -14    1      0.63      0.00
   -7  -13    1      5.93      0.00
   -8  -12    1      1.61      0.00
   14  -12    1     -0.92      0.00
   -9  -11    1     -1.85      0.00
   15   -8    1     -1.96      0.00
  -13   -5    1     -6.86      0.00
   -5   -4    1      6.30      0.00
   15   -4    1      0.81      0.00
    3   -2    1    -58.01      0.00
   -1   -1    1    -36.82      0.00
    0   -1    1    -27.16      0.00
   -1    0    1     -0.30      0.00
    0    0    1     76.98      0.00
  -14   12    1     -0.81      0.00
    1   16    1     -5.82      0.00
   -8   17    1      2.40      0.00
   -2   17    1     -1.82      0.00
    8  -18    2     -3.64      0.00
   -2  -17    2      0.77      0.00
   10  -17    2     -0.52      0.00
   13  -14    2     -1.88      0.00
  -11   -9    2     -4.62      0.00
   13    2    2      3.16      0.00
   11    6    2      3.31      0.00
    8   10    2      5.22      0.00
    7   11    2      5.23      0.00
  -14   12    2     -3.71      0.00
    6   12    2      4.09      0.00
    4  -19    3      1.19      0.00
  -10  -11    3     -0.76      0.00
   14  -11    3     -0.29      0.00
   13    1    3      2.80      0.00
   11    5    3      0.60      0.00
    9    8    3     -4.71      0.00
  -13   13    3      2.46      0.00
  -12   14    3     -3.90      0.00
    2  -19    4     -0.57      0.00
    6  -19    4     -0.92      0.00
    9  -18    4      0.48      0.00
   14  -10    4     -1.86      0.00
  -13   -7    4     -3.95      0.00
  -14   -5    4      3.83      0.00
   14   -5    4      1.48      0.00
  -15   -2    4     -1.71      0.00
   12    2    4     -1.22      0.00
   11    4    4      4.12      0.00
    1   14    4      1.70      0.00
    7  -19    5     -3.64      0.00
    9  -18    5      1.35      0.00
   -7  -15    5     -2.92      0.00
   12  -15    5      0.53      0.00
   -8  -14    5     -0.37      0.00
   -9  -13    5      1.52      0.00
  -10  -12    5      1.78      0.00
   13   -2    5      2.44      0.00
   11    3    5      3.52      0.00
  -15    9    5     -0.99      0.00
  -13   12    5     -2.44      0.00
  -12   13    5     -4.30      0.00
   -8   15    5      3.84      0.00
   -4   15    5      2.02      0.00
    7  -19    6     -2.19      0.00
   -3  -18    6     -1.93      0.00
    9  -18    6      3.94      0.00
   11  -16    6      3.13      0.00
  -11  -11    6      0.68      0.00
  -13   -8    6     -1.16      0.00
  -14   -6    6     -6.52      0.00
   13   -4    6     -1.22      0.00
  -15   -3    6      4.07      0.00
    4   -3    6     -7.85      0.00
    2   12    6     -4.48      0.00
    0   13    6     -0.26      0.00
   -9   14    6     -0.78      0.00
   -1  -19    7     -2.78      0.00
    7  -19    7     -5.22      0.00
   10  -17    7     -0.27      0.00
  -12  -10    7     -2.65      0.00
   13   -8    7      0.10      0.00
    9    4    7      0.87      0.00
  -13   11    7     -2.26      0.00
  -10   13    7      4.76      0.00
    7  -19    8     -1.56      0.00
   -4  -18    8      0.98      0.00
   -8  -15    8     -2.53      0.00
   11  -15    8     -0.51      0.00
   -9  -14    8      2.69      0.00
  -10  -13    8      0.63      0.00
   12   -5    8     -1.12      0.00
   10    1    8      2.20      0.00
  -15    7    8      3.48      0.00
  -14    9    8     -0.57      0.00
  -12   11    8      2.81      0.00
   -7   13    8      5.18      0.00
   -6   13    8     -1.36      0.00
   -5   13    8      3.76      0.00
   -2  -19    9     -0.23      0.00
   10  -16    9      0.34      0.00
   11  -14    9      0.88      0.00
  -11  -12    9     -5.68      0.00
  -15   -4    9      3.32      0.00
    8    3    9      2.64      0.00
  -15    6    9     -1.54      0.00
  -14    8    9      0.09      0.00
  -11   11    9      0.82      0.00
   -1   11    9     -4.28      0.00
   -8   12    9      2.57      0.00
   -4   12    9      3.35      0.00
    6  -19   10     -0.94      0.00
   -6  -17   10      1.08      0.00
   10  -15   10     -2.47      0.00
  -11  -12   10     -2.88      0.00
   11  -12   10      2.36      0.00
  -13   -9   10     -0.28      0.00
   11   -6   10      0.14      0.00
  -14    7   10      0.14      0.00
    1    9   10      4.89      0.00
   -1   10   10      4.76      0.00
   -9   11   10     -1.36      0.00
   -4   11   10     -4.09      0.00
   -6  -17   11      3.72      0.00
    9  -16   11     -0.29      0.00
   10  -14   11      0.66      0.00
  -13   -9   11     -2.63      0.00
   10   -5   11      1.16      0.00
  -15   -3   11     -2.44      0.00
    9   -2   11     -1.22      0.00
    8    0   11     -4.95      0.00
  -15    3   11     -0.63      0.00
  -14    6   11      1.97      0.00
   -1    9   11     -5.12      0.00
   -9   10   11     -1.66      0.00
   -2  -19   12      3.05      0.00
    5  -19   12      0.86      0.00
   -6  -17   12     -2.38      0.00
  -11  -12   12     -5.99      0.00
   10  -10   12     -2.46      0.00
  -15   -2   12     -2.08      0.00
  -15   -1   12      7.21      0.00
  -15    0   12     -0.47      0.00
    7    0   12     -4.32      0.00
  -15    1   12      1.75      0.00
    5    3   12      3.52      0.00
    3    5   12      7.54      0.00
    2    6   12      1.28      0.00
   -1    8   12      4.05      0.00
   -9    9   12      6.27      0.00
   -4    9   12     -9.60      0.00
   -2  -19   13      0.56      0.00
    4  -19   13     -0.61      0.00
   -6  -17   13     -1.16      0.00
  -11  -12   13     -1.95      0.00
    9  -12   13     -4.95      0.00
    9   -8   13     -0.81      0.00
  -14   -6   13      3.58      0.00
    8   -4   13     -0.94      0.00
    6    0   13     -2.20      0.00
  -14    3   13     -0.75      0.00
  -13    5   13      3.70      0.00
  -11    7   13      5.27      0.00
   -9    8   13     -9.09      0.00
   -4    8   13     -2.23      0.00
   -1  -19   14     -2.41      0.00
    0  -19   14     -1.51      0.00
    2  -19   14     -4.95      0.00
   -4  -18   14     -2.28      0.00
    6  -17   14     -0.94      0.00
   -7  -16   14      4.43      0.00
  -10  -13   14     -9.00      0.00
    8  -13   14      0.05      0.00
  -12  -10   14      1.66      0.00
  -13   -8   14     -1.26      0.00
    8   -7   14      2.43      0.00
  -14   -4   14      0.46      0.00
    7   -4   14     -1.22      0.00
    6   -2   14      0.01      0.00
  -14    1   14      2.66      0.00
   -2    6   14     -7.42      0.00
   -8    7   14      5.80      0.00
   -6    7   14     -8.07      0.00
   -5    7   14     -0.77      0.00
   -8  -15   15      1.92      0.00
   -9  -14   15     -4.40      0.00
    7  -13   15     -1.30      0.00
  -13   -7   15     -2.50      0.00
    7   -7   15     -0.07      0.00
    6   -4   15     -2.59      0.00
  -10    5   15      3.84      0.00
   -2  -18   16      0.11      0.00
   -1  -18   16     -2.60      0.00
    1  -18   16     -0.32      0.00
    6  -13   16     -5.19      0.00
    6   -8   16     -3.22      0.00
  -13   -5   16      2.36      0.00
  -13   -4   16     -1.49      0.00
  -13   -3   16     -1.44      0.00
  -13   -2   16      2.61      0.00
    2    0   16      0.79      0.00
    1    1   16      3.45      0.00
   -9    4   16     -1.88      0.00
   -4    4   16      0.48      0.00
   -3  -17   17     -2.89      0.00
    1  -17   17     -0.48      0.00
    3  -16   17      1.08      0.00
    4  -15   17     -1.83      0.00
   -8  -14   17      1.89      0.00
    5  -12   17     -7.57      0.00
    5  -11   17      1.99      0.00
    5  -10   17     -0.83      0.00
    5   -9   17     -0.69      0.00
  -12   -7   17     -2.06      0.00
  -12   -2   17     -0.69      0.00
    2   -2   17      3.13      0.00
    1   -1   17     -1.58      0.00
    0    0   17     -8.55      0.00
   -1    1   17     -5.54      0.00
   -3    2   17     -1.73      0.00
   -4  -16   18      3.62      0.00
    1  -16   18     -1.30      0.00
    2  -15   18      0.45      0.00
   -7  -14   18     -1.61      0.00
    3  -14   18     -1.19      0.00
   -8  -13   18     -1.16      0.00
  -10  -10   18      2.39      0.00
  -11   -7   18     -1.80      0.00
    3   -7   18     -0.06      0.00
  -11   -3   18      4.50      0.00
    0   -2   18     -0.16      0.00
   -1   -1   18      1.34      0.00
   -7    1   18      7.81      0.00
   -6    1   18     -0.55      0.00
   -5    1   18     -0.84      0.00
   -3  -15   19      2.13      0.00
   -2  -15   19      1.81      0.00
   -1  -15   19     -0.39      0.00
    2  -11   19     -0.52      0.00
   -9  -10   19      2.36      0.00
    2  -10   19     -2.49      0.00
  -10   -7   19      3.23      0.00
  -10   -6   19     -2.47      0.00
  -10   -5   19      6.56      0.00
    0   -5   19     -1.12      0.00
   -3   -2   19     -3.96      0.00
   -6   -1   19      5.37      0.00
   -4  -13   20      1.68      0.00
   -3  -13   20      6.93      0.00
   -2  -13   20      3.79      0.00
   -1  -12   20      6.38      0.00
   -7  -10   20     -0.39      0.00
   -8   -8   20      1.06      0.00
   -1   -8   20      6.40      0.00
   -8   -7   20     -0.02      0.00
   -8   -6   20     -2.09      0.00
   -2   -6   20     -2.63      0.00
   -7   -5   20      3.77      0.00
   -3   -5   20     -2.57      0.00
   -6   -4   20     -6.36      0.00
   -5   -4   20     -6.99      0.00
    0    0    0      0.00      0.00
# SQUEEZE RESULTS (Version = 230916)
# Note: Data are Listed for all Voids in the P1 Unit Cell
# i.e. Centre of Gravity, Solvent Accessible Volume,
# Recovered number of Electrons in the Void and
# Details about the Squeezed Material
loop_
  _platon_squeeze_void_nr
  _platon_squeeze_void_average_x
  _platon_squeeze_void_average_y
  _platon_squeeze_void_average_z
  _platon_squeeze_void_volume
  _platon_squeeze_void_count_electrons
  _platon_squeeze_void_content
   1 -0.009 -0.012 -0.002      1671       494 ' '
# Missing Reflections Below sin(th)/lambda = 0.25
loop_
  _platon_missing_refln_index_h
  _platon_missing_refln_index_k
  _platon_missing_refln_index_l
  _platon_missing_refln_theta
    1    0    0     1.717
   -1    1    0     1.870
    0    1    0     1.476
    3   -2    1     5.396
   -1   -1    1     2.175
    0   -1    1     1.451
   -1    0    1     1.771
    0    0    1     1.463
_platon_squeeze_void_probe_radius                  1.20
_platon_squeeze_details
)
TITL T         P -1         R = 0.19
CELL   13.0290   16.2640   16.8560    116.37    105.98     98.88
SPGR P-1
# Solvent Accessible Volume =      1671
# Electrons Found in S.A.V. =       487
# Note: Atoms in Void as Cxxx and Qxxx all others
C101 0.909 0.665 0.379 !       7.07 eA-3
C102 0.801 0.730 0.246 !       5.22 eA-3
C103 0.391 0.407 0.361 !       5.05 eA-3
C104 0.361 0.340 0.171 !       4.94 eA-3
C105 0.107 0.471 0.041 !       4.72 eA-3
C106 0.359 0.204 0.255 !       4.29 eA-3
Q107 0.140 0.885 0.265 !       4.00 eA-3
Q108 0.293 0.939 0.312 !       3.82 eA-3
C109 0.293 0.575 0.225 !       3.56 eA-3
Q110 0.500 1.000 0.500 !       3.47 eA-3
C111 0.066 0.590 0.213 !       3.28 eA-3
C112 0.900 0.884 0.425 !       2.90 eA-3
C113 0.956 0.602 0.189 !       2.76 eA-3
Q114 0.418 0.964 0.469 !       2.66 eA-3
C115 0.012 0.464 0.484 !       2.64 eA-3
Q116 0.205 0.877 0.236 !       2.59 eA-3
C117 0.485 0.430 0.046 !       2.56 eA-3
Q118 0.216 0.891 0.283 !       2.56 eA-3
C119 0.393 0.316 0.248 !       2.55 eA-3
C120 0.050 0.116 0.483 !       2.52 eA-3
Q121 0.225 0.951 0.319 !       2.49 eA-3
C122 0.880 0.971 0.430 !       2.41 eA-3
Q123 0.207 0.931 0.248 !       2.26 eA-3
Q124 0.228 0.901 0.334 !       2.24 eA-3
C125 0.996 0.425 0.375 !       2.24 eA-3
C126 0.909 0.708 0.279 !       2.23 eA-3
C127 0.155 0.577 0.154 !       2.19 eA-3
C128 0.993 0.329 0.293 !       2.16 eA-3
C129 0.220 0.586 0.167 !       2.13 eA-3
C130 0.990 0.507 0.450 !       2.04 eA-3
C131 0.506 0.643 0.026 !       2.02 eA-3
C132 0.020 0.299 0.232 !       2.01 eA-3
C133 0.894 0.761 0.346 !       1.99 eA-3
C134 0.328 0.063 0.080 !       1.99 eA-3
Q135 0.988 0.835 0.161 !       1.98 eA-3
Q136 0.923 0.082 0.343 !       1.96 eA-3
C137 0.992 0.373 0.343 !       1.96 eA-3
C138 0.504 0.586 0.016 !       1.93 eA-3
C139 0.862 0.066 0.062 !       1.78 eA-3
Q140 0.268 0.100 0.422 !       1.78 eA-3
C141 0.265 0.494 0.065 !       1.77 eA-3
C142 0.954 0.168 0.212 !       1.76 eA-3
C143 0.512 0.668 0.119 !       1.74 eA-3
C144 0.143 0.088 0.177 !       1.74 eA-3
Q145 0.483 0.949 0.434 !       1.72 eA-3
Q146 0.937 0.822 0.043 !       1.71 eA-3
C147 0.887 0.078 0.027 !       1.71 eA-3
C148 0.979 0.237 0.269 !       1.70 eA-3
C149 0.973 0.176 0.153 !       1.69 eA-3
C150 0.300 0.270 0.211 !       1.69 eA-3
C151 0.173 0.553 0.252 !       1.68 eA-3
Q152 0.487 0.013 0.455 !       1.67 eA-3
C153 0.030 0.470 0.359 !       1.66 eA-3
C154 0.033 0.426 0.322 !       1.63 eA-3
C155 0.988 0.198 0.082 !       1.61 eA-3
C156 0.937 0.141 0.085 !       1.61 eA-3
C157 0.030 0.999 0.027 !       1.61 eA-3
C158 0.406 0.672 0.165 !       1.59 eA-3
C159 0.170 0.120 0.184 !       1.59 eA-3
C160 0.377 0.292 0.332 !       1.57 eA-3
C161 0.309 0.526 0.143 !       1.57 eA-3
C162 0.051 0.378 0.243 !       1.55 eA-3
C163 0.047 0.439 0.274 !       1.54 eA-3
C164 0.358 0.129 0.140 !       1.53 eA-3
Q165 0.798 0.233 0.418 !       1.53 eA-3
C166 0.018 0.211 0.204 !       1.51 eA-3
Q167 0.987 0.015 0.418 !       1.50 eA-3
Q168 0.500 0.027 0.248 !       1.49 eA-3
C169 0.441 0.519 0.027 !       1.48 eA-3
C170 0.474 0.494 0.085 !       1.48 eA-3
C171 0.200 0.552 0.106 !       1.48 eA-3
Q172 0.657 0.432 0.391 !       1.47 eA-3
C173 0.215 0.533 0.131 !       1.45 eA-3
C174 0.064 0.035 0.092 !       1.44 eA-3
C175 0.500 0.718 0.088 !       1.42 eA-3
C176 0.329 0.364 0.269 !       1.39 eA-3
C177 0.859 0.016 0.000 !       1.39 eA-3
C178 0.048 0.941 0.012 !       1.38 eA-3
C179 0.903 0.155 0.136 !       1.36 eA-3
C180 0.408 0.090 0.114 !       1.34 eA-3
Q181 0.303 0.799 0.281 !       1.34 eA-3
Q182 0.641 0.955 0.122 !       1.33 eA-3
C183 0.468 0.595 0.062 !       1.33 eA-3
C184 0.182 0.083 0.140 !       1.31 eA-3
C185 0.657 0.545 0.034 !       1.30 eA-3
Q186 0.192 0.039 0.340 !       1.29 eA-3
C187 0.075 0.294 0.219 !       1.29 eA-3
C188 0.127 0.363 0.249 !       1.28 eA-3
C189 0.324 0.252 0.166 !       1.27 eA-3
Q190 0.455 0.924 0.461 !       1.26 eA-3
Q191 0.300 0.855 0.411 !       1.25 eA-3
Q192 0.677 0.468 0.334 !       1.25 eA-3
C193 0.285 0.107 0.170 !       1.24 eA-3
C194 0.912 0.093 0.126 !       1.24 eA-3
C195 0.028 0.281 0.139 !       1.23 eA-3
C196 0.467 0.679 0.186 !       1.21 eA-3
C197 0.608 0.561 0.091 !       1.20 eA-3
C198 0.667 0.629 0.059 !       1.19 eA-3
Q199 0.985 0.765 0.095 !       1.19 eA-3
)
;
_shelx_fab_checksum              88589
loop_
_space_group_symop_operation_xyz
'x, y, z'
'-x, -y, -z'
loop_
_atom_site_label
_atom_site_type_symbol
_atom_site_fract_x
_atom_site_fract_y
_atom_site_fract_z
_atom_site_U_iso_or_equiv
_atom_site_adp_type
_atom_site_occupancy
_atom_site_site_symmetry_order
_atom_site_calc_flag
_atom_site_refinement_flags_posn
_atom_site_refinement_flags_adp
_atom_site_refinement_flags_occupancy
_atom_site_disorder_assembly
_atom_site_disorder_group
Cd1 Cd 0.21418(7) -0.09184(5) 0.28510(5) 0.0389(2) Uani 0.75 1 d . . P A 1
Co1 Co 0.21418(7) -0.09184(5) 0.28510(5) 0.0389(2) Uani 0.25 1 d . . P A 2
Cd2 Cd 0.500000 0.000000 0.500000 0.0356(3) Uani 0.75 2 d S . P B 1
Co2 Co 0.500000 0.000000 0.500000 0.0356(3) Uani 0.25 2 d S . P B 2
S1 S 0.6419(3) -0.0084(3) 0.1390(2) 0.0719(9) Uani 1 1 d . . . . .
S2 S 0.6694(3) -0.1350(3) 0.0677(2) 0.0826(11) Uani 1 1 d . . . . .
O1 O 0.2618(6) 0.0639(4) 0.3758(5) 0.0543(18) Uani 1 1 d . . . . .
O2 O 0.4115(5) 0.1026(4) 0.5025(4) 0.0437(15) Uani 1 1 d . . . . .
O3 O 0.2863(7) 0.9042(5) 1.1804(5) 0.065(2) Uani 1 1 d . . . . .
O4 O 0.1894(7) 0.7633(5) 1.1437(5) 0.0597(19) Uani 1 1 d . . . . .
O5 O 0.1611(6) 0.8498(5) 0.3736(5) 0.0563(18) Uani 1 1 d . . . . .
O6 O 0.3385(5) 0.8775(4) 0.3938(4) 0.0410(14) Uani 1 1 d . . . . .
N1 N 0.5381(6) -0.0128(4) 0.3731(5) 0.0378(17) Uani 1 1 d . . . . .
N2 N 1.0344(8) -0.1016(6) 0.2140(6) 0.055(2) Uani 1 1 d . . . . .
C1 C 0.3360(8) 0.1220(6) 0.4573(6) 0.0339(19) Uani 1 1 d . . . . .
C2 C 0.3350(8) 0.2237(6) 0.5045(6) 0.0342(19) Uani 1 1 d . . . . .
C3 C 0.2675(9) 0.2545(7) 0.4525(6) 0.050(2) Uani 1 1 d . . . . .
H3 H 0.221159 0.210570 0.387461 0.060 Uiso 1 1 calc R U . . .
C4 C 0.2672(10) 0.3483(7) 0.4944(7) 0.059(3) Uani 1 1 d . . . . .
H4 H 0.222851 0.368317 0.456646 0.070 Uiso 1 1 calc R U . . .
C5 C 0.3305(9) 0.4144(6) 0.5910(6) 0.045(2) Uani 1 1 d . . . . .
C6 C 0.3977(9) 0.3832(6) 0.6421(7) 0.046(2) Uani 1 1 d . . . . .
H6 H 0.442879 0.426354 0.707583 0.055 Uiso 1 1 calc R U . . .
C7 C 0.3998(8) 0.2895(6) 0.5987(7) 0.044(2) Uani 1 1 d . . . . .
H7 H 0.447459 0.270348 0.635290 0.052 Uiso 1 1 calc R U . . .
C8 C 0.2471(9) 0.8137(7) 1.1236(7) 0.051(3) Uani 1 1 d . . . . .
C9 C 0.2693(8) 0.7715(7) 1.0360(6) 0.046(2) Uani 1 1 d . . . . .
C10 C 0.2195(11) 0.6725(8) 0.9689(8) 0.064(3) Uani 1 1 d . . . . .
H10 H 0.174620 0.632201 0.981184 0.077 Uiso 1 1 calc R U . . .
C11 C 0.2368(10) 0.6343(7) 0.8839(7) 0.058(3) Uani 1 1 d . . . . .
H11 H 0.203936 0.567534 0.838814 0.070 Uiso 1 1 calc R U . . .
C12 C 0.3003(9) 0.6916(7) 0.8650(7) 0.047(2) Uani 1 1 d . . . . .
C13 C 0.3485(10) 0.7873(7) 0.9296(7) 0.058(3) Uani 1 1 d . . . . .
H13 H 0.392694 0.827174 0.916436 0.070 Uiso 1 1 calc R U . . .
C14 C 0.3329(9) 0.8266(7) 1.0146(7) 0.058(3) Uani 1 1 d . . . . .
H14 H 0.367109 0.893433 1.059077 0.070 Uiso 1 1 calc R U . . .
C15 C 0.2559(9) 0.8451(6) 0.4088(6) 0.039(2) Uani 1 1 d . . . . .
C16 C 0.2723(8) 0.7988(6) 0.4674(6) 0.036(2) Uani 1 1 d . . . . .
C17 C 0.2084(9) 0.8023(7) 0.5218(7) 0.047(2) Uani 1 1 d . . . . .
H17 H 0.155850 0.835944 0.522479 0.056 Uiso 1 1 calc R U . . .
C18 C 0.2205(9) 0.7573(6) 0.5746(7) 0.046(2) Uani 1 1 d . . . . .
H18 H 0.176690 0.760902 0.611269 0.055 Uiso 1 1 calc R U . . .
C19 C 0.2966(10) 0.7071(6) 0.5741(6) 0.049(3) Uani 1 1 d . . . . .
C20 C 0.3603(9) 0.7032(6) 0.5188(6) 0.045(2) Uani 1 1 d . . . . .
H20 H 0.411775 0.668425 0.516897 0.055 Uiso 1 1 calc R U . . .
C21 C 0.3491(8) 0.7490(6) 0.4674(6) 0.040(2) Uani 1 1 d . . . . .
H21 H 0.394013 0.746679 0.431750 0.048 Uiso 1 1 calc R U . . .
C22 C 0.3247(9) 0.5137(6) 0.6371(7) 0.045(2) Uani 1 1 d . . . . .
C23 C 0.3213(9) 0.5573(6) 0.7270(6) 0.046(2) Uani 1 1 d . . . . .
H23 H 0.325779 0.523950 0.760604 0.055 Uiso 1 1 calc R U . . .
C24 C 0.3115(9) 0.6473(6) 0.7685(6) 0.045(2) Uani 1 1 d . . . . .
C25 C 0.3042(8) 0.6971(6) 0.7186(6) 0.044(2) Uani 1 1 d . . . . .
H25 H 0.297398 0.759435 0.746955 0.052 Uiso 1 1 calc R U . . .
C26 C 0.3070(9) 0.6555(6) 0.6280(7) 0.046(2) Uani 1 1 d . . . . .
C27 C 0.3198(9) 0.5650(6) 0.5905(6) 0.045(2) Uani 1 1 d . . . . .
H27 H 0.325319 0.537045 0.530276 0.054 Uiso 1 1 calc R U . . .
C28 C 0.5863(11) -0.0731(7) 0.3322(7) 0.061(3) Uani 1 1 d . . . . .
H28 H 0.597656 -0.118135 0.351566 0.074 Uiso 1 1 calc R U . . .
C29 C 0.6232(11) -0.0756(8) 0.2598(8) 0.067(3) Uani 1 1 d . . . . .
H29 H 0.663455 -0.117246 0.235680 0.080 Uiso 1 1 calc R U . . .
C30 C 0.5989(8) -0.0168(7) 0.2269(7) 0.050(2) Uani 1 1 d . . . . .
C31 C 0.5433(8) 0.0442(7) 0.2658(6) 0.045(2) Uani 1 1 d . . . . .
H31 H 0.526485 0.086892 0.244502 0.055 Uiso 1 1 calc R U . . .
C32 C 0.5123(8) 0.0429(7) 0.3361(7) 0.046(2) Uani 1 1 d . . . . .
H32 H 0.470479 0.083079 0.360076 0.055 Uiso 1 1 calc R U . . .
C33 C 0.8125(10) -0.1165(9) 0.1285(8) 0.061(3) Uani 1 1 d . . . . .
C34 C 0.8808(10) -0.0383(10) 0.2095(10) 0.073(3) Uani 1 1 d . . . . .
H34 H 0.855566 0.014690 0.237287 0.088 Uiso 1 1 calc R U . . .
C35 C 0.9898(11) -0.0330(9) 0.2546(8) 0.081(4) Uani 1 1 d . . . . .
H35 H 1.034293 0.020855 0.316075 0.098 Uiso 1 1 calc R U . . .
C36 C 0.9607(12) -0.1808(8) 0.1281(14) 0.119(7) Uani 1 1 d . . . . .
H36 H 0.987628 -0.229999 0.093910 0.142 Uiso 1 1 calc R U . . .
C37 C 0.8516(11) -0.1904(10) 0.0912(8) 0.080(4) Uani 1 1 d . . . . .
H37 H 0.801368 -0.250152 0.037934 0.096 Uiso 1 1 calc R U . . .
loop_
_atom_site_aniso_label
_atom_site_aniso_U_11
_atom_site_aniso_U_22
_atom_site_aniso_U_33
_atom_site_aniso_U_23
_atom_site_aniso_U_13
_atom_site_aniso_U_12
Cd1 0.0587(5) 0.0339(4) 0.0323(4) 0.0179(3) 0.0238(4) 0.0206(4)
Co1 0.0587(5) 0.0339(4) 0.0323(4) 0.0179(3) 0.0238(4) 0.0206(4)
Cd2 0.0500(7) 0.0291(5) 0.0398(6) 0.0210(5) 0.0236(5) 0.0214(5)
Co2 0.0500(7) 0.0291(5) 0.0398(6) 0.0210(5) 0.0236(5) 0.0214(5)
S1 0.080(2) 0.115(3) 0.0662(18) 0.0636(19) 0.0500(17) 0.051(2)
S2 0.072(2) 0.122(3) 0.0471(16) 0.0294(18) 0.0322(16) 0.040(2)
O1 0.086(5) 0.040(4) 0.042(4) 0.017(3) 0.027(4) 0.041(4)
O2 0.062(4) 0.042(3) 0.041(3) 0.025(3) 0.024(3) 0.028(3)
O3 0.082(5) 0.055(4) 0.039(4) 0.009(3) 0.035(4) 0.005(4)
O4 0.087(6) 0.059(4) 0.057(4) 0.035(4) 0.046(4) 0.032(4)
O5 0.044(4) 0.088(5) 0.069(5) 0.061(4) 0.027(4) 0.025(4)
O6 0.054(4) 0.036(3) 0.048(4) 0.026(3) 0.032(3) 0.015(3)
N1 0.064(5) 0.021(3) 0.045(4) 0.020(3) 0.033(4) 0.022(3)
N2 0.065(6) 0.050(5) 0.045(5) 0.020(4) 0.022(4) 0.020(5)
C1 0.047(5) 0.040(5) 0.031(5) 0.024(4) 0.026(4) 0.019(4)
C2 0.055(6) 0.027(4) 0.030(4) 0.016(4) 0.025(4) 0.016(4)
C3 0.075(7) 0.043(5) 0.025(4) 0.015(4) 0.013(5) 0.024(5)
C4 0.103(9) 0.045(6) 0.048(6) 0.033(5) 0.031(6) 0.045(6)
C5 0.084(7) 0.031(5) 0.041(5) 0.025(4) 0.034(5) 0.026(5)
C6 0.071(7) 0.031(5) 0.037(5) 0.014(4) 0.025(5) 0.024(5)
C7 0.056(6) 0.042(5) 0.044(5) 0.027(5) 0.022(5) 0.023(5)
C8 0.074(7) 0.040(6) 0.038(5) 0.013(5) 0.029(5) 0.024(5)
C9 0.054(6) 0.042(5) 0.035(5) 0.014(4) 0.019(5) 0.014(5)
C10 0.098(9) 0.054(6) 0.067(7) 0.037(6) 0.053(7) 0.033(6)
C11 0.110(9) 0.031(5) 0.046(6) 0.018(4) 0.052(6) 0.025(5)
C12 0.082(7) 0.043(5) 0.043(5) 0.027(5) 0.043(5) 0.037(5)
C13 0.094(9) 0.044(6) 0.050(6) 0.021(5) 0.051(6) 0.021(6)
C14 0.066(7) 0.041(6) 0.047(6) 0.012(5) 0.020(5) 0.003(5)
C15 0.061(7) 0.028(4) 0.033(5) 0.016(4) 0.022(5) 0.013(4)
C16 0.051(6) 0.027(4) 0.034(5) 0.017(4) 0.020(4) 0.011(4)
C17 0.063(7) 0.047(5) 0.060(6) 0.039(5) 0.037(5) 0.030(5)
C18 0.067(7) 0.042(5) 0.051(6) 0.033(5) 0.036(5) 0.019(5)
C19 0.099(8) 0.027(4) 0.037(5) 0.021(4) 0.035(5) 0.027(5)
C20 0.073(7) 0.033(5) 0.047(5) 0.024(4) 0.033(5) 0.027(5)
C21 0.054(6) 0.034(5) 0.044(5) 0.022(4) 0.030(5) 0.015(4)
C22 0.074(7) 0.035(5) 0.045(5) 0.028(4) 0.032(5) 0.025(5)
C23 0.085(7) 0.036(5) 0.044(5) 0.033(4) 0.036(5) 0.029(5)
C24 0.076(7) 0.029(4) 0.040(5) 0.018(4) 0.037(5) 0.019(5)
C25 0.075(7) 0.031(4) 0.046(5) 0.024(4) 0.039(5) 0.029(5)
C26 0.068(7) 0.039(5) 0.053(6) 0.035(5) 0.033(5) 0.024(5)
C27 0.078(7) 0.027(4) 0.039(5) 0.015(4) 0.035(5) 0.018(5)
C28 0.111(10) 0.046(6) 0.046(6) 0.025(5) 0.044(6) 0.046(6)
C29 0.100(9) 0.072(7) 0.064(7) 0.038(6) 0.059(7) 0.058(7)
C30 0.053(6) 0.058(6) 0.047(6) 0.031(5) 0.028(5) 0.013(5)
C31 0.053(6) 0.056(6) 0.038(5) 0.028(5) 0.024(5) 0.020(5)
C32 0.048(6) 0.043(5) 0.047(5) 0.022(5) 0.020(5) 0.015(5)
C33 0.075(8) 0.074(8) 0.045(6) 0.026(6) 0.044(6) 0.028(7)
C34 0.058(8) 0.086(9) 0.091(9) 0.045(8) 0.034(7) 0.049(7)
C35 0.083(9) 0.064(8) 0.045(6) 0.008(6) -0.015(6) 0.028(7)
C36 0.083(10) 0.025(6) 0.222(19) 0.017(9) 0.111(12) 0.004(6)
C37 0.073(9) 0.088(9) 0.039(6) 0.008(6) 0.018(6) 0.016(7)
loop_
_atom_type_symbol
_atom_type_description
_atom_type_scat_dispersion_real
_atom_type_scat_dispersion_imag
_atom_type_scat_source
C C 0.0033 0.0016 'International Tables Vol C Tables 4.2.6.8 and 6.1.1.4'
H H 0.0000 0.0000 'International Tables Vol C Tables 4.2.6.8 and 6.1.1.4'
N N 0.0061 0.0033 'International Tables Vol C Tables 4.2.6.8 and 6.1.1.4'
O O 0.0106 0.0060 'International Tables Vol C Tables 4.2.6.8 and 6.1.1.4'
S S 0.1246 0.1234 'International Tables Vol C Tables 4.2.6.8 and 6.1.1.4'
Co Co 0.3494 0.9721 'International Tables Vol C Tables 4.2.6.8 and 6.1.1.4'
Cd Cd -0.8075 1.2024 'International Tables Vol C Tables 4.2.6.8 and 6.1.1.4'
loop_
_geom_angle_atom_site_label_1
_geom_angle_atom_site_label_2
_geom_angle_atom_site_label_3
_geom_angle
_geom_angle_site_symmetry_1
_geom_angle_site_symmetry_3
O1 Cd1 O3 98.5(3) . 1_544
O1 Cd1 N2 91.3(3) . 1_455
O3 Cd1 N2 102.4(3) 1_544 1_455
O1 Cd1 O5 103.8(3) . 1_545
O3 Cd1 O5 153.9(3) 1_544 1_545
N2 Cd1 O5 90.5(3) 1_455 1_545
O1 Cd1 O6 98.5(2) . 1_545
O3 Cd1 O6 108.0(3) 1_544 1_545
N2 Cd1 O6 146.2(3) 1_455 1_545
O5 Cd1 O6 55.8(2) 1_545 1_545
O1 Cd1 O4 153.9(2) . 1_544
O3 Cd1 O4 55.9(2) 1_544 1_544
N2 Cd1 O4 89.4(3) 1_455 1_544
O5 Cd1 O4 102.3(3) 1_545 1_544
O6 Cd1 O4 95.4(2) 1_545 1_544
O1 Cd1 C8 126.4(3) . 1_544
O3 Cd1 C8 28.1(3) 1_544 1_544
N2 Cd1 C8 96.4(3) 1_455 1_544
O5 Cd1 C8 128.9(3) 1_545 1_544
O6 Cd1 C8 103.4(3) 1_545 1_544
O4 Cd1 C8 27.8(3) 1_544 1_544
O1 Cd1 C15 104.2(2) . 1_545
O3 Cd1 C15 132.5(3) 1_544 1_545
N2 Cd1 C15 118.0(3) 1_455 1_545
O5 Cd1 C15 27.7(2) 1_545 1_545
O6 Cd1 C15 28.2(2) 1_545 1_545
O4 Cd1 C15 98.5(2) 1_544 1_545
C8 Cd1 C15 117.9(3) 1_544 1_545
O1 Co1 O3 98.5(3) . 1_544
O1 Co1 N2 91.3(3) . 1_455
O3 Co1 N2 102.4(3) 1_544 1_455
O1 Co1 O5 103.8(3) . 1_545
O3 Co1 O5 153.9(3) 1_544 1_545
N2 Co1 O5 90.5(3) 1_455 1_545
O1 Co1 O6 98.5(2) . 1_545
O3 Co1 O6 108.0(3) 1_544 1_545
N2 Co1 O6 146.2(3) 1_455 1_545
O5 Co1 O6 55.8(2) 1_545 1_545
O1 Co1 O4 153.9(2) . 1_544
O3 Co1 O4 55.9(2) 1_544 1_544
N2 Co1 O4 89.4(3) 1_455 1_544
O5 Co1 O4 102.3(3) 1_545 1_544
O6 Co1 O4 95.4(2) 1_545 1_544
O2 Cd2 O2 180.0(4) . 2_656
O2 Cd2 O6 90.4(2) . 2_666
O2 Cd2 O6 89.6(2) 2_656 2_666
O2 Cd2 O6 89.6(2) . 1_545
O2 Cd2 O6 90.4(2) 2_656 1_545
O6 Cd2 O6 180.0 2_666 1_545
O2 Cd2 N1 93.2(2) . .
O2 Cd2 N1 86.8(2) 2_656 .
O6 Cd2 N1 92.6(2) 2_666 .
O6 Cd2 N1 87.4(2) 1_545 .
O2 Cd2 N1 86.8(2) . 2_656
O2 Cd2 N1 93.2(2) 2_656 2_656
O6 Cd2 N1 87.4(2) 2_666 2_656
O6 Cd2 N1 92.6(2) 1_545 2_656
N1 Cd2 N1 180.0 . 2_656
O2 Co2 O2 180.0(4) . 2_656
O2 Co2 O6 90.4(2) . 2_666
O2 Co2 O6 89.6(2) 2_656 2_666
O2 Co2 O6 89.6(2) . 1_545
O2 Co2 O6 90.4(2) 2_656 1_545
O6 Co2 O6 180.0 2_666 1_545
O2 Co2 N1 93.2(2) . .
O2 Co2 N1 86.8(2) 2_656 .
O6 Co2 N1 92.6(2) 2_666 .
O6 Co2 N1 87.4(2) 1_545 .
O2 Co2 N1 86.8(2) . 2_656
O2 Co2 N1 93.2(2) 2_656 2_656
O6 Co2 N1 87.4(2) 2_666 2_656
O6 Co2 N1 92.6(2) 1_545 2_656
N1 Co2 N1 180.0 . 2_656
C30 S1 S2 104.9(4) . .
C33 S2 S1 106.4(4) . .
C1 O1 Cd1 131.9(6) . .
C1 O1 Co1 131.9(6) . .
C1 O2 Cd2 147.5(6) . .
C1 O2 Co2 147.5(6) . .
C8 O3 Cd1 96.8(6) . 1_566
C8 O4 Cd1 88.6(6) . 1_566
C15 O5 Cd1 93.6(5) . 1_565
C15 O6 Cd2 128.8(5) . 1_565
C15 O6 Cd1 89.0(5) . 1_565
Cd2 O6 Cd1 115.1(2) 1_565 1_565
C28 N1 C32 116.1(8) . .
C28 N1 Co2 122.3(6) . .
C32 N1 Co2 121.6(6) . .
C28 N1 Cd2 122.3(6) . .
C32 N1 Cd2 121.6(6) . .
C35 N2 C36 114.6(10) . .
C35 N2 Cd1 122.9(7) . 1_655
C36 N2 Cd1 122.4(8) . 1_655
O2 C1 O1 125.6(8) . .
O2 C1 C2 117.0(8) . .
O1 C1 C2 117.4(8) . .
C7 C2 C3 117.5(8) . .
C7 C2 C1 122.5(8) . .
C3 C2 C1 120.0(8) . .
C4 C3 C2 120.8(9) . .
C4 C3 H3 119.6 . .
C2 C3 H3 119.6 . .
C3 C4 C5 121.6(9) . .
C3 C4 H4 119.2 . .
C5 C4 H4 119.2 . .
C6 C5 C4 117.1(8) . .
C6 C5 C22 121.4(8) . .
C4 C5 C22 121.4(8) . .
C5 C6 C7 120.7(9) . .
C5 C6 H6 119.6 . .
C7 C6 H6 119.6 . .
C2 C7 C6 122.2(9) . .
C2 C7 H7 118.9 . .
C6 C7 H7 118.9 . .
O4 C8 O3 118.7(8) . .
O4 C8 C9 122.1(9) . .
O3 C8 C9 119.2(9) . .
O4 C8 Cd1 63.6(5) . 1_566
O3 C8 Cd1 55.1(5) . 1_566
C9 C8 Cd1 174.1(7) . 1_566
C14 C9 C10 118.0(9) . .
C14 C9 C8 121.9(9) . .
C10 C9 C8 119.9(9) . .
C11 C10 C9 119.3(10) . .
C11 C10 H10 120.3 . .
C9 C10 H10 120.3 . .
C12 C11 C10 120.9(9) . .
C12 C11 H11 119.5 . .
C10 C11 H11 119.5 . .
C13 C12 C11 120.0(8) . .
C13 C12 C24 121.0(8) . .
C11 C12 C24 119.0(8) . .
C12 C13 C14 120.0(9) . .
C12 C13 H13 120.0 . .
C14 C13 H13 120.0 . .
C9 C14 C13 121.7(9) . .
C9 C14 H14 119.1 . .
C13 C14 H14 119.1 . .
O5 C15 O6 121.3(8) . .
O5 C15 C16 119.8(8) . .
O6 C15 C16 118.9(9) . .
O5 C15 Cd1 58.7(4) . 1_565
O6 C15 Cd1 62.9(4) . 1_565
C16 C15 Cd1 173.4(6) . 1_565
C21 C16 C17 118.5(8) . .
C21 C16 C15 120.9(8) . .
C17 C16 C15 120.5(8) . .
C18 C17 C16 121.2(9) . .
C18 C17 H17 119.4 . .
C16 C17 H17 119.4 . .
C17 C18 C19 120.3(8) . .
C17 C18 H18 119.9 . .
C19 C18 H18 119.9 . .
C18 C19 C20 118.4(8) . .
C18 C19 C26 120.5(8) . .
C20 C19 C26 121.1(8) . .
C21 C20 C19 121.2(8) . .
C21 C20 H20 119.4 . .
C19 C20 H20 119.4 . .
C20 C21 C16 120.4(8) . .
C20 C21 H21 119.8 . .
C16 C21 H21 119.8 . .
C27 C22 C23 117.7(8) . .
C27 C22 C5 120.9(8) . .
C23 C22 C5 121.4(7) . .
C24 C23 C22 121.8(7) . .
C24 C23 H23 119.1 . .
C22 C23 H23 119.1 . .
C23 C24 C25 119.4(8) . .
C23 C24 C12 120.9(7) . .
C25 C24 C12 119.6(7) . .
C26 C25 C24 120.5(7) . .
C26 C25 H25 119.8 . .
C24 C25 H25 119.8 . .
C27 C26 C25 117.6(8) . .
C27 C26 C19 121.8(8) . .
C25 C26 C19 120.6(8) . .
C22 C27 C26 123.0(8) . .
C22 C27 H27 118.5 . .
C26 C27 H27 118.5 . .
N1 C28 C29 123.9(9) . .
N1 C28 H28 118.1 . .
C29 C28 H28 118.1 . .
C30 C29 C28 118.0(9) . .
C30 C29 H29 121.0 . .
C28 C29 H29 121.0 . .
C29 C30 C31 119.0(9) . .
C29 C30 S1 123.8(8) . .
C31 C30 S1 117.1(7) . .
C30 C31 C32 119.2(9) . .
C30 C31 H31 120.4 . .
C32 C31 H31 120.4 . .
N1 C32 C31 123.5(9) . .
N1 C32 H32 118.2 . .
C31 C32 H32 118.2 . .
C34 C33 C37 118.0(12) . .
C34 C33 S2 124.8(9) . .
C37 C33 S2 117.1(10) . .
C33 C34 C35 120.5(11) . .
C33 C34 H34 119.8 . .
C35 C34 H34 119.8 . .
N2 C35 C34 122.5(11) . .
N2 C35 H35 118.7 . .
C34 C35 H35 118.7 . .
C37 C36 N2 122.1(11) . .
C37 C36 H36 119.0 . .
N2 C36 H36 119.0 . .
C33 C37 C36 121.3(12) . .
C33 C37 H37 119.3 . .
C36 C37 H37 119.3 . .
loop_
_geom_bond_atom_site_label_1
_geom_bond_atom_site_label_2
_geom_bond_distance
_geom_bond_site_symmetry_2
Cd1 O1 2.165(6) .
Cd1 O3 2.198(6) 1_544
Cd1 N2 2.263(9) 1_455
Cd1 O5 2.287(6) 1_545
Cd1 O6 2.378(6) 1_545
Cd1 O4 2.385(7) 1_544
Cd1 C8 2.662(9) 1_544
Cd1 C15 2.672(8) 1_545
Co1 O1 2.165(6) .
Co1 O3 2.198(6) 1_544
Co1 N2 2.263(9) 1_455
Co1 O5 2.287(6) 1_545
Co1 O6 2.378(6) 1_545
Co1 O4 2.385(7) 1_544
Cd2 O2 2.163(6) .
Cd2 O2 2.163(6) 2_656
Cd2 O6 2.250(6) 2_666
Cd2 O6 2.250(6) 1_545
Cd2 N1 2.255(7) .
Cd2 N1 2.255(7) 2_656
Co2 O2 2.163(6) .
Co2 O2 2.163(6) 2_656
Co2 O6 2.250(6) 2_666
Co2 O6 2.250(6) 1_545
Co2 N1 2.255(7) .
Co2 N1 2.255(7) 2_656
S1 C30 1.772(9) .
S1 S2 2.019(5) .
S2 C33 1.766(13) .
O1 C1 1.244(11) .
O2 C1 1.242(10) .
O3 C8 1.262(11) .
O4 C8 1.244(12) .
O5 C15 1.244(11) .
O6 C15 1.262(10) .
N1 C28 1.288(11) .
N1 C32 1.342(11) .
N2 C35 1.338(14) .
N2 C36 1.369(17) .
C1 C2 1.487(11) .
C2 C7 1.361(12) .
C2 C3 1.377(12) .
C3 C4 1.369(12) .
C3 H3 0.9400 .
C4 C5 1.386(13) .
C4 H4 0.9400 .
C5 C6 1.370(13) .
C5 C22 1.473(11) .
C6 C7 1.376(12) .
C6 H6 0.9400 .
C7 H7 0.9400 .
C8 C9 1.460(12) .
C9 C14 1.358(14) .
C9 C10 1.396(14) .
C10 C11 1.385(13) .
C10 H10 0.9400 .
C11 C12 1.351(13) .
C11 H11 0.9400 .
C12 C13 1.349(13) .
C12 C24 1.520(11) .
C13 C14 1.375(13) .
C13 H13 0.9400 .
C14 H14 0.9400 .
C15 C16 1.478(11) .
C16 C21 1.381(12) .
C16 C17 1.388(12) .
C17 C18 1.374(12) .
C17 H17 0.9400 .
C18 C19 1.378(13) .
C18 H18 0.9400 .
C19 C20 1.398(13) .
C19 C26 1.482(11) .
C20 C21 1.365(12) .
C20 H20 0.9400 .
C21 H21 0.9400 .
C22 C27 1.374(12) .
C22 C23 1.376(12) .
C23 C24 1.358(11) .
C23 H23 0.9400 .
C24 C25 1.399(12) .
C25 C26 1.383(12) .
C25 H25 0.9400 .
C26 C27 1.379(12) .
C27 H27 0.9400 .
C28 C29 1.416(14) .
C28 H28 0.9400 .
C29 C30 1.338(14) .
C29 H29 0.9400 .
C30 C31 1.359(13) .
C31 C32 1.361(12) .
C31 H31 0.9400 .
C32 H32 0.9400 .
C33 C34 1.309(16) .
C33 C37 1.339(16) .
C34 C35 1.382(16) .
C34 H34 0.9400 .
C35 H35 0.9400 .
C36 C37 1.338(19) .
C36 H36 0.9400 .
C37 H37 0.9400 .
loop_
_publcif_info_exptl_table_extra_item
sin_theta_over_lambda_max
