#------------------------------------------------------------------------------
#$Date: 2019-11-17 10:18:19 +0200 (Sun, 17 Nov 2019) $
#$Revision: 229307 $
#$URL: file:///home/coder/svn-repositories/cod/cif/7/04/73/7047325.cif $
#------------------------------------------------------------------------------
#
# This file is available in the Crystallography Open Database (COD),
# http://www.crystallography.net/
#
# All data on this site have been placed in the public domain by the
# contributors.
#
data_7047325
loop_
_publ_author_name
'Gong, Ya-Ru'
'Chen, Wei-Chao'
'Zhao, Liang'
'Shao, Kui-Zhan'
'Wang, Xin-Long'
'Su, Zhong-Min'
_publ_section_title
;
 Functionalized polyoxometalate-based metal-organic cuboctahedra for
 selective adsorption toward cationic dyes in aqueous solution.
;
_journal_issue                   37
_journal_name_full
'Dalton transactions (Cambridge, England : 2003)'
_journal_page_first              12979
_journal_page_last               12983
_journal_paper_doi               10.1039/c8dt02580k
_journal_volume                  47
_journal_year                    2018
_chemical_formula_moiety         'C132 H156 N12 O100 V28'
_chemical_formula_sum            'C164 H284 N16 O124 V28'
_chemical_formula_weight         5890.37
_space_group_crystal_system      cubic
_space_group_IT_number           217
_space_group_name_Hall           'I -4 2 3'
_space_group_name_H-M_alt        'I -4 3 m'
_symmetry_space_group_name_Hall  'I -4 2 3'
_symmetry_space_group_name_H-M   'I -4 3 m'
_atom_sites_solution_hydrogens   geom
_audit_creation_method           SHELXL-2016/6
_audit_update_record
;
2018-06-23 deposited with the CCDC.
2018-08-20 downloaded from the CCDC.
;
_cell_angle_alpha                90
_cell_angle_beta                 90
_cell_angle_gamma                90
_cell_formula_units_Z            2
_cell_length_a                   27.796(4)
_cell_length_b                   27.796(4)
_cell_length_c                   27.796(4)
_cell_measurement_reflns_used    2402
_cell_measurement_temperature    293(2)
_cell_measurement_theta_max      22.92
_cell_measurement_theta_min      2.54
_cell_volume                     21476(5)
_computing_cell_refinement       'Bruker SAINT v8.34a'
_computing_data_collection       'Bruker APEX 2'
_computing_data_reduction        'Bruker SAINT v8.34a'
_computing_molecular_graphics    'Bruker SHELXTL'
_computing_publication_material  'Bruker SHELXTL & local programs'
_computing_structure_refinement  'SHELXL-2016/6 (Sheldrick, 2016)'
_computing_structure_solution    'Bruker SHELXTL 2014/4'
_diffrn_ambient_temperature      293(2)
_diffrn_measured_fraction_theta_full 0.984
_diffrn_measured_fraction_theta_max 0.984
_diffrn_measurement_device_type  'Bruker Smart Apex II CCD'
_diffrn_measurement_method       \w-2\q
_diffrn_radiation_type           MoK\a
_diffrn_radiation_wavelength     0.71073
_diffrn_reflns_av_R_equivalents  0.1630
_diffrn_reflns_av_unetI/netI     0.1024
_diffrn_reflns_Laue_measured_fraction_full 0.984
_diffrn_reflns_Laue_measured_fraction_max 0.984
_diffrn_reflns_limit_h_max       24
_diffrn_reflns_limit_h_min       -33
_diffrn_reflns_limit_k_max       33
_diffrn_reflns_limit_k_min       -21
_diffrn_reflns_limit_l_max       32
_diffrn_reflns_limit_l_min       -33
_diffrn_reflns_number            22229
_diffrn_reflns_point_group_measured_fraction_full 0.986
_diffrn_reflns_point_group_measured_fraction_max 0.986
_diffrn_reflns_theta_full        25.162
_diffrn_reflns_theta_max         25.162
_diffrn_reflns_theta_min         2.317
_diffrn_source                   'fine-focus sealed tube'
_exptl_absorpt_coefficient_mu    0.633
_exptl_absorpt_correction_T_max  0.884
_exptl_absorpt_correction_T_min  0.863
_exptl_absorpt_correction_type   multi-scan
_exptl_absorpt_process_details   'SADABS 2014/4 Bruker AXS Madison WI USA'
_exptl_crystal_colour            reddishbrown
_exptl_crystal_density_diffrn    0.911
_exptl_crystal_density_method    'not measured'
_exptl_crystal_description       block
_exptl_crystal_F_000             6032
_exptl_crystal_size_max          0.240
_exptl_crystal_size_mid          0.220
_exptl_crystal_size_min          0.200
_refine_diff_density_max         0.930
_refine_diff_density_min         -0.882
_refine_diff_density_rms         0.080
_refine_ls_abs_structure_details
;
 Refined as an inversion twin.
;
_refine_ls_abs_structure_Flack   0.325(5)
_refine_ls_extinction_method     none
_refine_ls_goodness_of_fit_ref   1.085
_refine_ls_hydrogen_treatment    constr
_refine_ls_matrix_type           full
_refine_ls_number_parameters     132
_refine_ls_number_reflns         3467
_refine_ls_number_restraints     263
_refine_ls_restrained_S_all      1.092
_refine_ls_R_factor_all          0.1878
_refine_ls_R_factor_gt           0.1180
_refine_ls_shift/su_max          0.002
_refine_ls_shift/su_mean         0.000
_refine_ls_structure_factor_coef Fsqd
_refine_ls_weighting_details
'w=1/[\s^2^(Fo^2^)+(0.1853P)^2^+81.9784P] where P=(Fo^2^+2Fc^2^)/3'
_refine_ls_weighting_scheme      calc
_refine_ls_wR_factor_gt          0.3054
_refine_ls_wR_factor_ref         0.3751
_reflns_Friedel_coverage         0.879
_reflns_Friedel_fraction_full    0.989
_reflns_Friedel_fraction_max     0.989
_reflns_number_gt                2008
_reflns_number_total             3467
_reflns_threshold_expression     'I > 2\s(I)'
_cod_data_source_file            c8dt02580k2.cif
_cod_data_source_block           VMOP_18
_cod_depositor_comments
;
The following automatic conversions were performed:

'_exptl_absorpt_correction_type' value 'Multi-scan' changed to
'multi-scan' according to
/home/data/users/saulius/crontab/automatic-downloads/rss-feeds/RSC/lib/dictionaries/cif_core.dic
dictionary named 'cif_core.dic' version 2.4.2 from 2011-04-26.

Automatic conversion script
Id: cif_fix_values 4973 2017-02-22 13:04:09Z antanas 

 Adding full bibliography for 7047325--7047326.cif.
;
_cod_original_cell_volume        21476(8)
_cod_database_code               7047325
_shelx_shelxl_version_number     2016/6
_shelx_space_group_comment
;
The symmetry employed for this shelxl refinement is uniquely defined
by the following loop, which should always be used as a source of
symmetry information in preference to the above space-group names.
They are only intended as comments.
;
_shelx_estimated_absorpt_t_min   0.863
_shelx_estimated_absorpt_t_max   0.884
_shelx_res_file
;
TITL 2_a.res in I-43m
    1_sq.res
    created by SHELXL-2016/6 at 09:13:46 on 23-Jun-2018
REM Old TITL 2 in I-43m
REM SHELXT solution in I-43m
REM R1 0.298, Rweak 0.018, Alpha 0.072, Orientation as input
REM Flack x = 0.302 ( 0.031 ) from Parsons' quotients
REM Formula found by SHELXT: O68 V7
CELL 0.71073 27.7962 27.7962 27.7962 90 90 90
ZERR 2 0.0036 0.0036 0.0036 0 0 0
LATT -2
SYMM -X,-Y,+Z
SYMM -X,+Y,-Z
SYMM +X,-Y,-Z
SYMM +Z,+X,+Y
SYMM +Z,-X,-Y
SYMM -Z,-X,+Y
SYMM -Z,+X,-Y
SYMM +Y,+Z,+X
SYMM -Y,+Z,-X
SYMM +Y,-Z,-X
SYMM -Y,-Z,+X
SYMM +Y,+X,+Z
SYMM -Y,-X,+Z
SYMM +Y,-X,-Z
SYMM -Y,+X,-Z
SYMM +X,+Z,+Y
SYMM -X,+Z,-Y
SYMM -X,-Z,+Y
SYMM +X,-Z,-Y
SYMM +Z,+Y,+X
SYMM +Z,-Y,-X
SYMM -Z,+Y,-X
SYMM -Z,-Y,+X
SFAC C H N O V
UNIT 328 568 32 248 56
DFIX 1.5 O2 C9
DFIX 1.38 0.01 C5 C4 C4 C3 C3 C2
DFIX 1.45 C6 C5
SIMU 0.01 0.03 3.8 $C $O
ISOR 0.005 0.002 V1
ISOR 0.005 0.001 V3 V2 V1

L.S. 50 0 72
PLAN  5
SIZE 0.2 0.22 0.24
TEMP 20.09
ABIN
DAMP 900000
fmap 2
acta
TWIN -1 0 0 0 -1 0 0 0 -1 2
REM <olex2.extras>
REM <HklSrc "%.\\1_sq.hkl">
REM </olex2.extras>

WGHT    0.185300   81.978401
BASF   0.32504
FVAR       0.06746
V1    5    0.271380    0.649880    0.186820    11.00000    0.12252    0.12240 =
         0.09173    0.02486   -0.04566    0.02750
O1    4    0.276310    0.583520    0.220498    11.00000    0.10920    0.11853 =
         0.09977    0.02539   -0.03850    0.03163
O2    4    0.343290    0.656710    0.193800    10.50000    0.12012    0.12012 =
         0.10361    0.03301   -0.03301    0.03667
O3    4    0.265440    0.628380    0.134701    11.00000    0.14552    0.15752 =
         0.12259    0.03123   -0.02449    0.02898
O4    4    0.281450    0.718550    0.174080    10.50000    0.12181    0.12181 =
         0.11142    0.03385   -0.03385    0.04560
O5    4    0.202080    0.653180    0.202080    10.50000    0.11598    0.12159 =
         0.11598    0.03106   -0.04388    0.03106
O6    4    0.263240    0.674620    0.263240    10.50000    0.10500    0.11598 =
         0.10500    0.03061   -0.03778    0.03061
O7    4    0.332220    0.667780    0.332220    10.16667    0.14208    0.14208 =
         0.14208    0.01602   -0.01602    0.01602
N007  3    0.314360    0.373420    0.373420    10.50000    0.08185    0.06057 =
         0.06057   -0.01046   -0.00919   -0.00919
C1    1    0.334970    0.393130    0.334970    10.50000    0.08717    0.10115 =
         0.08717    0.01023   -0.03104    0.01023
C2    1    0.313870    0.437660    0.313870    10.50000    0.09539    0.09957 =
         0.09539    0.01846   -0.02854    0.01846
C3    1    0.273610    0.458200    0.334730    11.00000    0.09445    0.10917 =
         0.09303    0.02283   -0.02551    0.01462
AFIX  44
H3    2    0.264279    0.448814    0.352036    11.00000   -1.20000
AFIX   0
C4    1    0.254750    0.500210    0.315950    11.00000    0.09860    0.10684 =
         0.09404    0.02288   -0.02829    0.02162
AFIX  43
H4    2    0.227858    0.514614    0.329690    11.00000   -1.20000
AFIX   0
C5    1    0.276670    0.520000    0.276670    10.50000    0.09618    0.10433 =
         0.09618    0.02640   -0.03123    0.02640
C6    1    0.260530    0.565310    0.260530    10.50000    0.10585    0.11256 =
         0.10585    0.02442   -0.02908    0.02442
C7    1    0.163920    0.645590    0.163920    10.50000    0.16032    0.16750 =
         0.16032    0.00054   -0.05689    0.00054
PART -1
AFIX 137
H7A   2    0.174251    0.620935    0.142052    10.50000   -1.50000
H7B   2    0.158976    0.675038    0.146566    10.50000   -1.50000
H7C   2    0.134350    0.635987    0.178959    10.50000   -1.50000
AFIX   0
PART 0
C8    1    0.249059    0.750941    0.145570    10.50000    0.14462    0.14462 =
         0.13439    0.03487   -0.03487    0.05194
PART -1
AFIX 137
H8A   2    0.262074    0.755229    0.113868    10.50000   -1.50000
H8B   2    0.246704    0.781602    0.161292    10.50000   -1.50000
H8C   2    0.217665    0.736726    0.143301    10.50000   -1.50000
AFIX   0
PART 0
C9    1    0.378880    0.621120    0.200728    10.50000    0.13635    0.13635 =
         0.13034    0.01433   -0.01433    0.00894
PART -1
AFIX 137
H9A   2    0.402439    0.623347    0.175572    10.50000   -1.50000
H9B   2    0.364199    0.589867    0.200018    10.50000   -1.50000
H9C   2    0.394195    0.625953    0.231304    10.50000   -1.50000
AFIX   0
PART 0
PART 2
V3    5    0.298020    0.701980    0.298020    10.11111    0.15267    0.15267 =
         0.15267    0.01036   -0.01036    0.01036
PART 0
PART 1
V2    5    0.270579    0.729421    0.270579    10.05556    0.16530    0.16530 =
         0.16530    0.00546   -0.00546    0.00546
HKLF 4




REM  2_a.res in I-43m
REM R1 =  0.1180 for    2008 Fo > 4sig(Fo)  and  0.1878 for all    3467 data
REM    132 parameters refined using    263 restraints

END

WGHT      0.1853     81.9024

REM Highest difference peak  0.930,  deepest hole -0.882,  1-sigma level  0.080
Q1    1   0.3506  0.6493  0.2698  10.50000  0.05    0.93
Q2    1   0.2696  0.8108  0.1892  10.50000  0.05    0.47
Q3    1   0.3418  0.6582  0.3418  10.16667  0.05    0.44
Q4    1   0.2686  0.7314  0.1081  10.50000  0.05    0.43
Q5    1   0.1767  0.7319  0.1451  11.00000  0.05    0.36
;
_shelx_res_checksum              86791
_shelx_fab_file
;
    0    1    3     23.82      9.32
    1    2    3     12.80   -262.42
    0    3    3    284.09     -1.19
    0    0    4   -317.00      3.06
    0    2    4   -143.15      6.46
    1    1    4    -73.05     37.65
    1    3    4     40.77      4.67
    0    4    4     33.18     -1.85
    0    1    5    -28.00     16.01
    1    2    5    104.64    -39.51
    1    4    5     86.41     12.11
    3    4    5    -52.71     14.11
    0    5    5    102.34      0.52
    2    5    5    -55.53     41.33
    0    4    6    -23.53      0.38
    1    3    6      4.74      5.05
    1    5    6    -13.93    -42.79
    2    4    6    -20.98     -6.36
    3    5    6    -36.14    -13.89
    4    4    6    -53.64    -90.18
    0    6    6    -18.26     -2.26
    2    6    6     19.74    -14.22
    4    6    6      2.59    -50.71
    0    1    7    -54.08      7.45
    0    3    7    -62.60      4.07
    0    5    7     25.19     -0.32
    1    2    7      7.62     24.96
    1    6    7      9.90    -17.02
    2    3    7    -33.38     52.45
    2    5    7     11.19     16.32
    3    4    7      5.93    -43.27
    3    6    7     26.20     -6.03
    4    5    7     17.83      3.07
    5    6    7      6.71      7.93
    0    7    7     20.11      1.48
    2    7    7     24.48    -45.43
    4    7    7    -35.94    -30.08
    6    7    7    -30.84    -38.22
    0    0    8     78.29     -4.13
    0    2    8     40.59     -3.72
    0    4    8      8.19      0.91
    0    6    8     21.34      0.10
    1    1    8     -8.88     34.50
    1    3    8    -27.42      9.44
    1    5    8    -41.98    -25.59
    1    7    8     -0.25    -12.09
    2    2    8    -30.94      5.34
    2    4    8     -0.95     22.49
    2    6    8      2.80     -1.65
    3    3    8      9.55    -12.27
    3    5    8    -20.18      5.97
    3    7    8     -7.44      9.28
    4    4    8    -24.95     32.32
    4    6    8    -20.10    -13.85
    5    5    8    -50.86    -11.87
    5    7    8     -5.22    -15.23
    6    6    8     -3.07    -19.23
    7    7    8    -15.58    -10.43
    0    8    8     20.98     -0.87
    2    8    8    -30.75     -4.45
    4    8    8    -29.70    -20.10
    6    8    8     36.00     -7.22
    0    1    9    -24.05      5.65
    0    3    9      2.89      2.82
    0    5    9      8.79      0.06
    0    7    9      3.25      1.08
    1    2    9    -10.71    -43.61
    1    4    9    -23.11     -1.21
    1    6    9    -39.62     34.57
    1    8    9      0.18      5.93
    2    3    9     22.48    -21.09
    2    5    9    -14.49     -3.98
    2    7    9    -27.94    -15.69
    3    4    9     41.11     17.17
    3    6    9     10.90      7.17
    3    8    9      5.81      3.79
    4    5    9      6.76     35.08
    4    7    9     -4.16     15.75
    5    6    9     -4.39     -8.53
    5    8    9     -4.04    -22.45
    6    7    9     -1.75     -8.46
    7    8    9     -9.10     -9.74
    0    9    9     34.89     -2.20
    2    9    9    -13.82     -8.25
    4    9    9     33.80    -12.50
    6    9    9     16.49     12.12
    8    9    9      1.93     14.65
    0    0   10     35.39    -11.28
    0    2   10    -31.80     -7.54
    0    6   10      6.38      3.83
    0    8   10     15.28     -5.36
    1    3   10     -4.73     27.38
    1    5   10      2.67      0.82
    1    7   10      0.14      3.70
    1    9   10      6.94     -5.68
    2    2   10    -44.62    -26.42
    2    4   10     27.14     16.53
    2    6   10     15.68     40.48
    2    8   10     16.14     17.85
    3    3   10      6.64    -31.27
    3    5   10     -8.22      3.61
    3    7   10    -30.04      6.70
    3    9   10     -1.40      8.44
    0    4   10      5.06     -1.38
    4    4   10      3.59     11.44
    4    6   10     -4.57    -13.77
    4    8   10      1.41      6.28
    5    5   10      5.71    -25.22
    5    7   10     10.84     -9.52
    5    9   10      1.14      0.43
    6    6   10     11.18     -2.76
    6    8   10     22.72      3.49
    7    7   10      0.20     16.92
    7    9   10     -4.51     -6.05
    8    8   10     10.33     24.73
    9    9   10      3.42      7.69
    0   10   10    -13.35     -5.36
    2   10   10     -4.42    -19.83
    4   10   10     -8.01      5.32
    6   10   10     -7.23    -32.36
    8   10   10      1.65      9.81
   10   10   10     22.95      1.14
    0    1   11    -45.56      0.27
    0    3   11     -0.18    -16.08
    0    5   11     10.83     -0.79
    0    7   11     -1.23      3.84
    0    9   11     19.45     -0.73
    1    2   11     -4.45    -42.70
    1    4   11     -6.20     12.10
    1    6   11    -29.22     28.48
    1    8   11     -4.54     -2.91
    1   10   11     -9.46    -12.54
    2    3   11    -27.04      2.56
    2    5   11    -48.06     19.32
    2    7   11    -35.66      6.50
    2    9   11     -1.95     -0.74
    3    4   11      7.92      3.98
    3    6   11     15.74    -17.46
    3    8   11     11.24     18.85
    3   10   11    -10.43     10.83
    4    5   11    -28.23    -23.10
    4    7   11     -2.96     10.72
    4    9   11     18.58    -18.99
    5    6   11    -11.29    -43.57
    5    8   11     -9.87     -4.19
    5   10   11     -7.70     14.54
    6    7   11      1.56     -4.13
    6    9   11     -1.81      0.51
    7    8   11     16.81    -18.06
    7   10   11      7.54     -8.14
    8    9   11     11.23     -3.88
    9   10   11      3.61     -1.76
    0   11   11     10.68     -1.90
    2   11   11      0.04     34.09
    4   11   11      8.73      1.30
    6   11   11    -18.89     -1.50
    8   11   11     -6.00     -9.98
   10   11   11    -11.25    -20.61
    0    2   12    -40.26      1.35
    0    4   12     28.12      3.96
    0    6   12    -13.16      8.78
    0    8   12    -13.83     -4.34
    0   10   12    -21.83     -3.68
    1    3   12      2.60     21.98
    1    5   12     32.30     -4.10
    1    7   12    -18.18      0.08
    1    9   12    -11.57     -3.42
    1   11   12     59.40    -10.03
    2    2   12    -18.91     -9.79
    2    4   12     13.76     -0.80
    2    6   12     -3.60     15.07
    2    8   12      9.03     -0.92
    2   10   12    -18.65     -2.22
    3    3   12     -9.22    -24.20
    3    5   12    -13.38     11.80
    3    7   12     -0.54     -2.62
    3    9   12      5.99     15.95
    3   11   12     -1.64     -4.98
    4    4   12    -13.03      1.42
    4    6   12      3.97     -6.41
    4    8   12      1.04     -1.79
    4   10   12     -6.64     -0.31
    5    5   12    -19.34      4.36
    5    7   12     10.68     -5.58
    5    9   12      7.03      5.71
    5   11   12     -0.83      1.87
    6    6   12      7.24      8.57
    6    8   12    -14.79      3.96
    6   10   12      5.55     -8.79
    7    7   12     -2.71      4.11
    7    9   12      5.88     -1.25
    7   11   12     10.23      4.95
    8    8   12    -21.39     -7.08
    8   10   12    -11.42     -5.77
    9    9   12     12.83     -4.08
    9   11   12      3.55     -7.13
   10   10   12    -16.71     -2.75
   11   11   12    -14.19    -22.36
    2   12   12     66.05     49.54
    4   12   12     -1.41      5.35
    6   12   12     11.53     -0.08
    8   12   12     -2.84      6.59
   10   12   12    -22.61     11.85
   12   12   12    -15.97     14.21
    0    1   13     55.10    -21.49
    0    3   13     38.00    -52.95
    0    5   13     31.32     -9.45
    0    7   13      0.84      3.01
    0    9   13     24.75      0.07
    0   11   13     -2.67     -0.41
    1    2   13      3.02    -36.51
    1    4   13    -33.43     -9.58
    1    6   13    -17.73      8.67
    1    8   13     -0.80      5.69
    1   10   13      6.43      7.61
    1   12   13      2.80     -3.27
    2    3   13    -39.24     29.89
    2    5   13     -6.85     13.11
    2    7   13      6.47    -30.78
    2    9   13     16.83      5.14
    2   11   13    -19.49     22.52
    3    4   13    -21.44     -0.44
    3    6   13      9.32    -17.08
    3    8   13     -0.83      3.49
    3   10   13     -4.84     -3.61
    3   12   13    -11.64     -0.96
    4    5   13     -2.93      3.50
    4    7   13     10.26     -0.39
    4    9   13     13.67      0.30
    4   11   13     15.72      4.97
    5    6   13     -0.04      2.46
    5    8   13      1.70      5.20
    5   10   13      5.81     -4.10
    5   12   13     12.84      1.34
    6    7   13    -15.37     -7.32
    6    9   13    -11.42    -14.88
    6   11   13     13.89      9.29
    7    8   13      2.41     -7.85
    7   10   13     -6.44      3.84
    7   12   13     18.16      7.16
    8    9   13     -7.04     -2.82
    8   11   13      8.33     10.09
    9   10   13     -3.29      3.81
    9   12   13      8.63      4.28
   10   11   13     -5.77      6.00
   11   12   13    -36.24     15.80
    0   13   13     40.72     -4.79
    2   13   13     -0.05     -6.57
    4   13   13     11.60      0.62
    6   13   13      8.36      2.65
    8   13   13     -3.12    -24.47
   10   13   13      6.80    -26.82
   12   13   13    -41.75      4.52
    0    0   14     35.74    -10.86
    0    2   14    -17.70     -1.83
    0    4   14     -7.18      7.46
    0    8   14      4.55      3.63
    0   10   14     22.55     -1.94
    0   12   14     89.51      1.31
    1    1   14    -22.89     36.23
    1    3   14     11.85      5.71
    1    5   14     -7.47    -13.94
    1    7   14     -7.55     -3.74
    1    9   14    -14.79     13.67
    1   11   14     34.07     26.92
    1   13   14    -20.49      3.81
    2    2   14      4.82     44.58
    2    4   14     16.38     -4.37
    2    6   14     -5.06      1.21
    2    8   14      2.53     -4.93
    2   10   14    -10.76     22.85
    2   12   14     30.88     42.93
    3    3   14      6.12    -18.72
    3    5   14     -8.51     10.56
    3    7   14      7.36     -0.57
    3    9   14      0.84     15.37
    3   11   14     -1.22     14.70
    3   13   14     -6.01      1.20
    4    4   14      9.37    -20.35
    4    6   14      0.19      2.46
    4    8   14      3.91    -13.37
    4   10   14     -1.87      2.74
    4   12   14     -2.79      4.91
    5    5   14      3.38     14.11
    5    7   14      0.26     -0.96
    5    9   14    -10.55     -9.12
    5   11   14    -12.75     -6.83
    5   13   14     -3.71      4.76
    0    6   14    -38.39     15.80
    6    6   14     -2.74      1.29
    6    8   14     -4.21     -3.53
    6   10   14     11.40      7.76
    6   12   14      5.20      0.25
    7    7   14     -9.44     -5.02
    7    9   14      5.84    -11.64
    7   11   14      4.28    -16.26
    7   13   14      9.44     -6.58
    8    8   14     -0.03    -11.02
    8   10   14     -4.06      3.82
    8   12   14      7.57      0.58
    9    9   14      5.02     -2.66
    9   11   14     -2.40      6.81
    9   13   14     -2.14      8.65
   10   10   14     -3.76     10.99
   10   12   14      5.53      1.23
   11   11   14     -0.58     20.61
   11   13   14    -26.25     25.71
   12   12   14      2.59    -11.30
   13   13   14    -18.29     30.68
    0   14   14      8.97     -0.94
    2   14   14    -19.53    -16.87
    4   14   14    -27.81    -11.25
    6   14   14    -20.92     28.09
    8   14   14     -4.99     -4.92
   10   14   14      5.24      2.32
   12   14   14    -14.08      2.63
   14   14   14    -37.22     -1.26
    0    1   15    -32.70      0.48
    0    3   15    -29.17    -14.53
    0    5   15    -15.38     -1.75
    0    7   15     -2.14      0.46
    0    9   15     22.77     -0.74
    0   11   15      4.79      0.56
    0   13   15     -4.43      0.67
    1    2   15      6.38    -23.52
    1    4   15     21.16    -12.50
    1    6   15      2.15     -8.33
    1    8   15     -4.49     -2.47
    1   10   15     10.26      0.09
    1   12   15     -9.72     -5.62
    1   14   15     -3.65     -4.63
    2    3   15     -6.74     12.80
    2    5   15     -2.21    -14.07
    2    7   15      0.96    -12.01
    2    9   15      2.94     19.39
    2   11   15     -4.97      2.03
    2   13   15     -9.23    -18.90
    3    4   15     21.47      0.49
    3    6   15     -1.50    -18.31
    3    8   15    -10.66     -2.91
    3   10   15      3.55      4.84
    3   12   15     -7.99     12.38
    3   14   15     -2.77     -9.32
    4    5   15     13.65     15.23
    4    7   15    -12.73     -7.13
    4    9   15    -25.81     -1.72
    4   11   15     -2.59     -7.31
    4   13   15     -7.93     -1.63
    5    6   15      4.76     31.22
    5    8   15      3.63     -3.25
    5   10   15      6.29     -6.43
    5   12   15     -9.71      5.46
    5   14   15      5.36     -7.30
    6    7   15      1.46      8.03
    6    9   15      8.48     -8.60
    6   11   15     -0.38      8.12
    6   13   15    -20.12      2.63
    7    8   15     -4.61     -8.94
    7   10   15      2.48      8.29
    7   12   15      0.60     -0.78
    7   14   15     12.27    -19.23
    8    9   15     -3.20     12.07
    8   11   15     -2.60      9.00
    8   13   15    -11.46     -3.82
    9   10   15      5.98     19.33
    9   12   15     -1.25      7.44
    9   14   15     -9.89    -16.04
   10   11   15     -5.87      9.82
   10   13   15      6.29     -4.05
   11   12   15    -11.24     11.49
   11   14   15    -14.02    -29.76
   12   13   15     -2.34      3.47
   13   14   15     -1.60    -10.76
    0   15   15      3.41      2.05
    2   15   15     -0.30      1.58
    4   15   15      8.13     11.27
    6   15   15      6.44      2.76
    8   15   15     13.86     10.19
   10   15   15     -3.47     13.88
   12   15   15     10.24      7.51
   14   15   15     -3.96     -1.44
    0    0   16     50.34    -10.50
    0    2   16    -14.06     -1.16
    0    4   16    -10.98      0.86
    0    6   16    -21.30      7.63
    0    8   16      2.71     -0.17
    0   10   16      9.35      3.34
    0   14   16      8.28     13.42
    1    1   16      4.74     -4.05
    1    3   16     -4.63    -19.34
    1    5   16     -8.75     -8.97
    1    7   16     24.49     -6.72
    1    9   16      7.45     -3.56
    1   11   16      3.40      3.28
    1   13   16     -2.17     -2.74
    2    2   16    -19.07      5.16
    2    4   16      4.90    -11.16
    2    6   16     -6.11      7.61
    2    8   16     -6.80      8.80
    2   10   16      4.26      4.50
    2   12   16     12.54     22.99
    2   14   16      1.08      2.83
    3    3   16      4.17    -30.90
    3    5   16    -10.30     -0.50
    3    7   16    -14.08      7.29
    3    9   16     -2.71     -8.43
    3   11   16     -2.93      5.56
    3   13   16      9.50     -1.52
    3   15   16    -14.98    -14.91
    4    4   16     12.46     -7.45
    4    6   16    -15.58      3.37
    4    8   16      1.03     -6.64
    4   10   16      4.47    -20.03
    4   12   16     20.00     -6.51
    4   14   16      6.59     -4.78
    5    5   16      1.74     -6.82
    5    7   16     -4.57      6.56
    5    9   16      8.46      0.01
    5   11   16      4.63      9.76
    5   13   16     -0.51     13.24
    5   15   16      8.82      8.28
    6    6   16     -5.36    -27.02
    6    8   16      6.64      1.95
    6   10   16    -13.01     -2.73
    6   12   16     -1.45     -8.47
    6   14   16     -0.92      8.04
    7    7   16     14.16      4.49
    7    9   16      3.13      6.78
    7   11   16     -6.42     -0.44
    7   13   16     -1.89     11.07
    7   15   16      5.89      6.38
    8    8   16     19.89     -9.48
    8   10   16     -5.40     -9.83
    8   12   16      0.43      6.45
    8   14   16     -1.33     -5.45
    9    9   16    -11.60      8.58
    9   11   16     -1.58      2.12
    9   13   16      4.06      6.69
    9   15   16      1.23      4.83
   10   10   16      2.45      1.52
   10   12   16     -2.36      5.44
   10   14   16     -2.86      3.03
   11   11   16     16.78    -11.64
   11   13   16      3.70     -6.19
   11   15   16      0.47     -0.02
    0   12   16     11.94     19.99
   12   12   16      1.95     -4.81
   12   14   16     -0.50     14.33
   13   13   16      2.18     -7.39
   13   15   16     -2.86     -6.75
   14   14   16      0.50      1.30
    1   15   16    -23.50     -2.88
   15   15   16      1.51    -16.07
    2   16   16     41.18     14.89
    4   16   16     -0.16      9.59
    6   16   16    -24.74     -0.82
    8   16   16     11.01    -10.70
   10   16   16     -7.84    -17.69
   12   16   16     -9.37      1.88
   14   16   16      4.01    -11.71
   16   16   16     14.18     -8.44
    0    1   17    -22.59      2.80
    0    3   17      1.47      1.53
    0    5   17     -4.50      1.36
    0    7   17      6.10      0.76
    0    9   17      4.00      2.64
    0   11   17      2.49      1.44
    0   13   17      1.48     -2.20
    0   15   17     43.12     -0.29
    1    2   17    -17.18      1.14
    1    4   17    -26.00     12.00
    1    6   17      5.17     13.87
    1    8   17     -6.73      6.59
    1   10   17     23.74     -5.10
    1   12   17     -2.03      4.67
    1   14   17      2.13     11.38
    1   16   17    -10.41      2.92
    2    3   17     21.06     16.71
    2    5   17      6.54     15.86
    2    7   17     11.62      7.70
    2    9   17      4.28      8.66
    2   11   17      5.46      6.20
    2   13   17      8.03     -5.44
    2   15   17     17.15      4.46
    3    4   17     -1.38     10.71
    3    6   17    -12.24     -8.38
    3    8   17     -6.20     -1.56
    3   10   17      6.35     -1.60
    3   12   17     -7.53      2.46
    3   14   17     10.28      0.46
    3   16   17      3.48      6.76
    4    5   17      1.25     11.92
    4    7   17      5.01     -8.41
    4    9   17    -14.24     10.03
    4   11   17      6.19     11.04
    4   13   17      9.19     -4.06
    4   15   17     -7.76     -5.92
    5    6   17    -14.68      9.10
    5    8   17     -7.00     -8.30
    5   10   17      0.86     -3.72
    5   12   17      2.10      5.22
    5   14   17     18.56     -0.46
    5   16   17      9.26     15.48
    6    7   17      8.71      1.35
    6    9   17     14.82    -17.60
    6   11   17      3.67      1.54
    6   13   17     -4.37     20.38
    6   15   17      3.06     18.14
    7    8   17     -4.00      0.89
    7   10   17      2.22      4.05
    7   12   17     -1.28     -0.92
    7   14   17      8.07     -0.29
    7   16   17      8.33    -19.15
    8    9   17      8.33      4.70
    8   11   17      3.21     -7.05
    8   13   17     -3.99      9.68
    8   15   17      9.19    -10.20
    9   10   17     -4.44     -7.03
    9   12   17      4.92     -3.37
    9   14   17      5.31     10.70
    9   16   17     -7.76     -9.26
   10   11   17    -17.36    -13.63
   10   13   17     -4.74      1.20
   10   15   17     -3.62     -2.92
   11   12   17     -0.77      7.62
   11   14   17     10.77     -2.49
   11   16   17      6.09     -3.76
   12   13   17     -1.12     11.52
   12   15   17      4.96     -6.78
   13   14   17      7.34     -1.07
   13   16   17     14.22      1.48
   14   15   17     -4.90     -3.00
   15   16   17      9.61     -6.46
    0   17   17     24.24      2.80
    2   17   17    -18.14     -0.70
    4   17   17    -49.02     -6.05
    6   17   17     28.58     33.20
    8   17   17     38.06    -27.65
   10   17   17      5.40     18.53
   12   17   17     -0.23      9.40
   14   17   17      5.33    -13.77
   16   17   17     -9.76      3.62
    0    0   18    -42.00      4.01
    0    2   18     -7.25     -1.04
    0    4   18      1.61      0.58
    0    6   18     -1.07     -0.43
    0    8   18     12.11     -0.47
    0   10   18     -2.96     -1.25
    0   12   18      9.97      6.13
    0   14   18      0.67      4.43
    1    1   18     -3.49     -7.95
    1    3   18    -20.19     -1.36
    1    5   18      8.17      2.88
    1    7   18      2.36     -9.65
    1    9   18    -15.41     -5.65
    1   11   18      3.94     -3.00
    1   13   18     15.33      3.47
    1   15   18      2.70      6.47
    1   17   18     -4.93     -2.14
    2    2   18      2.61     -2.65
    2    4   18      3.13      8.87
    2    8   18    -10.43     -7.24
    2   10   18     -4.45     -0.10
    2   12   18      1.07     -9.46
    2   14   18    -13.02    -10.86
    2   16   18    -11.98     -3.04
    3    3   18     -9.06     -5.79
    3    5   18      4.89     -5.66
    3    7   18     -7.48      9.48
    3    9   18      5.52    -11.03
    3   11   18      1.68      7.24
    3   13   18      2.28     10.75
    3   15   18     20.25      5.14
    3   17   18     20.48      6.66
    4    4   18     19.87     24.29
    4    6   18     -4.76      2.31
    4    8   18     -3.98      2.70
    4   10   18      7.84      7.66
    4   12   18      6.88      5.35
    4   14   18     -1.97     -0.26
    4   16   18    -29.86      1.51
    5    5   18    -22.55    -14.62
    5    7   18    -21.09     12.33
    5    9   18     -0.83     -1.79
    5   11   18     -3.02     -2.16
    5   13   18     -3.24     -0.89
    5   15   18     18.00     -1.72
    5   17   18     25.21      2.65
    2    6   18    -10.47     -1.58
    6    6   18     28.17    -21.44
    6    8   18     13.20     18.25
    6   10   18     -5.86      7.50
    6   12   18    -10.48     10.60
    6   14   18     -4.51     11.97
    6   16   18    -36.12     -5.64
    7    7   18     31.41     14.42
    7    9   18     -2.10     10.38
    7   11   18    -10.82      2.67
    7   13   18     -1.15      3.72
    7   15   18    -21.14    -10.98
    7   17   18     11.84    -36.00
    8    8   18     -9.49     16.15
    8   10   18    -11.84     -8.97
    8   12   18     -0.43     -1.62
    8   14   18     10.28      5.71
    8   16   18     42.68      0.99
    9    9   18    -13.81      9.09
    9   11   18     -5.89      1.51
    9   13   18      3.80      8.45
    9   15   18     -9.32      2.37
    9   17   18     -2.01    -19.39
   10   10   18      6.11      0.67
   10   12   18     -4.65     -1.06
   10   14   18     -3.93     -1.49
   10   16   18     10.63     -7.57
   11   11   18      2.27     -9.16
   11   13   18      3.31      1.52
   11   15   18     -7.34     13.54
   11   17   18     -4.28     -3.14
   12   12   18     -6.13      2.12
   12   14   18     -6.23      3.33
   12   16   18     -2.82     -4.04
   13   13   18     -5.65      5.51
   13   15   18     -6.99      1.45
   13   17   18      7.71     -4.21
   14   14   18    -10.05    -10.65
   14   16   18     -9.91     -0.52
   15   15   18     -0.07     -8.87
   15   17   18     16.36      0.46
    0   16   18    -11.57     -1.66
   16   16   18     -2.28     18.36
   17   17   18     17.65      5.44
    2   18   18     -3.36      1.04
    4   18   18    -21.20     12.82
    6   18   18    -13.27     -9.51
    8   18   18     45.50      9.63
   10   18   18     -6.39      3.48
   12   18   18      7.58     -7.73
   14   18   18     -0.54     14.83
   16   18   18      0.36     13.00
   18   18   18     -6.07     21.32
    0    1   19     -0.32      0.85
    0    3   19      2.47      3.89
    0    5   19     -0.08     -1.49
    0    9   19      0.89      2.08
    0   11   19      4.47      1.03
    0   13   19     -8.24      0.63
    0   15   19      6.44      3.52
    0   17   19      9.00      1.30
    1    2   19     16.03    -16.02
    1    4   19      6.15     -7.33
    1    8   19    -10.61      2.05
    1   10   19      7.35     -5.79
    1   12   19     -1.30      8.03
    1   14   19     -8.78      9.91
    1   16   19     -1.58      4.08
    1   18   19    -10.75     -5.04
    2    3   19     15.61     -1.71
    2    5   19     -8.13     19.49
    2    7   19      4.90      1.80
    2    9   19      7.73    -12.51
    2   11   19      3.54      0.64
    2   13   19     -4.59      6.37
    2   15   19     -5.77     -7.82
    2   17   19    -13.14     -1.34
    3    4   19    -12.18      8.27
    3    6   19      6.26     -0.15
    3    8   19     15.03      0.78
    3   10   19     -3.25     -6.82
    3   12   19     -4.78     -5.74
    3   14   19     16.16      3.59
    3   16   19      0.15     11.72
    3   18   19    -30.49    -13.98
    4    5   19     -7.51      7.71
    4    7   19     10.32      7.17
    4    9   19     -0.12      1.43
    4   11   19      7.60     -5.60
    4   13   19      2.08     -7.01
    4   15   19    -23.74    -15.38
    4   17   19    -31.44     -8.19
    5    6   19     25.01     -4.42
    5    8   19     22.13      8.85
    5   10   19      4.47      1.17
    5   12   19     18.81      6.23
    5   14   19     -4.18      5.41
    5   16   19    -43.10      9.58
    5   18   19    -32.48     -7.17
    1    6   19      7.41      5.62
    6    7   19      6.09     20.45
    6    9   19    -12.47      2.47
    6   11   19    -17.94      2.50
    6   13   19    -12.35      8.22
    6   15   19      3.53    -13.08
    6   17   19     53.44    -27.83
    0    7   19     11.12      0.54
    7    8   19     -3.56     16.15
    7   10   19     -5.45     -9.88
    7   12   19     -1.09     -8.48
    7   14   19    -16.44    -11.81
    7   16   19    -28.75    -17.36
    7   18   19     14.72     -1.13
    8    9   19      6.86      1.30
    8   11   19      2.28     -0.20
    8   13   19     -3.99      7.60
    8   15   19      9.72     -0.73
    8   17   19     37.82    -44.10
    9   10   19      5.89     -6.29
    9   12   19     11.52     11.85
    9   14   19      9.59      3.81
    9   16   19    -21.45     -2.61
    9   18   19     19.22     -2.88
   10   11   19     10.02     -2.49
   10   13   19      6.67     -5.90
   10   15   19      9.15      5.34
   10   17   19     -3.61      1.18
   11   12   19    -11.15     14.40
   11   14   19     -1.87     -5.25
   11   16   19     -6.10     -5.87
   11   18   19      7.29      0.16
   12   13   19     -4.00      6.13
   12   15   19      2.88    -11.72
   12   17   19      0.23     -1.87
   13   14   19     -6.93     -6.68
   13   16   19      9.88     -1.58
   13   18   19      8.48     -2.81
   14   15   19     -6.27     -3.77
   14   17   19      5.39     -4.24
   15   16   19     19.08     -4.70
   15   18   19      3.74      9.76
   16   17   19    -14.56     23.52
   17   18   19     -2.17     25.84
    2   19   19      2.33     18.67
    4   19   19     -7.69     20.03
    6   19   19     60.52      6.51
    8   19   19     18.54    -30.25
   10   19   19    -17.71     -6.59
   12   19   19     12.20      3.90
   14   19   19      2.56     -2.31
   16   19   19    -26.92     -1.14
   18   19   19     17.40      3.88
    0    0   20      4.89     -4.92
    0    2   20     11.42     -9.19
    0    4   20      3.67      0.17
    0    8   20      0.09     -0.20
    0   10   20      3.45     -0.82
    0   12   20      5.50     -0.23
    0   14   20      4.56      0.22
    0   16   20     -6.20      1.15
    1    1   20     14.18     -3.26
    1    3   20      9.89      3.89
    1    5   20      3.00     -2.66
    1    7   20     -5.06    -14.26
    1    9   20     -6.52      7.85
    1   11   20      3.32     -5.89
    1   13   20     14.04    -12.52
    1   15   20     -8.38     -2.13
    1   17   20     -2.53     -9.68
    2    2   20     -5.09     -0.60
    2    4   20      7.16    -13.28
    2    6   20      8.28      5.99
    2    8   20      7.45     -9.54
    2   10   20     -3.85      2.37
    2   12   20     -1.88     -7.03
    2   14   20     -4.04      1.70
    2   16   20     -0.34     11.29
    2   18   20      2.50     10.24
    3    3   20     -0.86     13.91
    3    5   20     17.72     -1.81
    3    7   20      4.52     -7.68
    3    9   20      1.14      5.60
    3   11   20     -3.52     -2.44
    3   13   20    -15.59      7.70
    3   15   20     -5.01      4.62
    3   17   20      4.79    -17.13
    3   19   20     -6.07      4.52
    4    4   20     33.60    -17.75
    4    6   20      8.00     14.98
    4    8   20     -1.65     10.42
    4   10   20     -4.46     -0.42
    4   12   20      1.20     -4.55
    4   14   20      4.33     -4.07
    4   16   20      3.39    -24.53
    4   18   20     21.66    -11.48
    5    5   20      9.38     -2.56
    5    7   20     -2.48     -8.02
    5    9   20     -7.00     10.59
    5   11   20      4.28     -4.54
    5   13   20     -4.01     -4.17
    5   15   20    -13.96    -36.73
    5   17   20      8.95    -32.11
    5   19   20     -0.77      5.87
    0    6   20    -11.22     -0.51
    6    6   20      4.47     24.66
    6    8   20      7.67     18.95
    6   10   20     -6.20     -7.03
    6   12   20     -7.98      1.05
    6   14   20     -7.11     -0.12
    6   16   20    -20.40    -24.51
    6   18   20     28.27    -12.14
    7    7   20     17.19    -27.00
    7    9   20    -16.67     -6.06
    7   11   20     -5.87      4.73
    7   13   20     -3.83     -3.45
    7   15   20     -7.15    -25.76
    7   17   20     27.73    -14.55
    7   19   20     24.45     -5.15
    8    8   20     11.17      5.92
    8   10   20     10.82    -11.23
    8   12   20     -1.14     -1.54
    8   14   20      7.40     19.08
    8   16   20     23.60     -1.10
    8   18   20     18.14    -12.87
    9    9   20      3.33    -12.44
    9   11   20      8.22      1.27
    9   13   20      2.62      3.19
    9   15   20      7.26     -3.75
    9   17   20      8.73     12.72
    9   19   20     -3.44     -5.88
   10   10   20     23.75      8.95
   10   12   20     -5.23     -2.92
   10   14   20     -4.94     -3.05
   10   16   20      5.08      2.01
   10   18   20     -6.20     -5.95
   11   11   20      6.84     15.71
   11   13   20     -2.41      1.00
   11   15   20      0.17    -14.45
   11   17   20      4.17     -0.68
   11   19   20      1.03      3.13
   12   12   20    -11.22      1.29
   12   14   20     -2.19     -0.76
   12   16   20     -2.47      0.70
   12   18   20      8.61     -1.58
   13   13   20     -4.15      0.14
   13   15   20     15.17    -11.30
   13   17   20     -0.49     -5.14
   13   19   20     -7.82      0.01
   14   14   20     19.04    -14.36
   14   16   20      7.03     -0.30
   14   18   20     -1.82      2.73
   15   15   20      1.51      8.10
   15   17   20     -9.35      3.03
   15   19   20    -25.31     -6.33
   16   16   20      2.80      8.37
   16   18   20      3.25    -23.98
   17   17   20      7.36    -21.23
   17   19   20      7.35     -4.74
   18   18   20     18.51    -26.12
    1   19   20      3.06      0.97
    0   20   20     -1.96      0.24
    2   20   20     -1.17     -5.65
    4   20   20     17.91    -20.06
    6   20   20     36.21     12.75
    8   20   20      3.20     -4.10
   10   20   20     -0.50      0.88
   12   20   20      5.71     -4.99
   14   20   20    -28.76    -28.89
   16   20   20    -20.38    -31.18
    0    1   21      3.44     -2.38
    0    3   21     -7.30      2.66
    0    5   21      5.44      0.04
    0    7   21      7.05     -0.12
    0    9   21    -19.71     -1.46
    0   11   21      1.57     -2.91
    0   13   21     -6.03      1.71
    0   15   21     -2.72      7.95
    0   17   21     -1.23      0.13
    0   19   21     -0.01     -0.89
    1    2   21      6.12     -6.25
    1    4   21      1.12      5.27
    1    8   21     -4.72      4.21
    1   10   21      2.98      5.83
    1   12   21      5.27      8.30
    1   14   21     -4.93    -14.27
    1   16   21     -2.47     -6.82
    1   18   21      9.89      4.00
    1   20   21      0.24      6.25
    2    3   21     11.52    -17.35
    2    5   21      0.97     -9.87
    2    7   21     -6.20     -9.20
    2    9   21    -13.26     -2.39
    2   11   21      5.14      4.15
    2   13   21      9.46     -7.23
    2   15   21     14.11     -9.87
    2   17   21      8.86      5.10
    2   19   21      0.00     -4.86
    3    4   21     -3.15      1.72
    3    6   21      8.13      4.58
    3    8   21     13.53     -1.76
    3   10   21     -9.08    -12.16
    3   12   21    -15.94     -7.92
    3   14   21     -3.25    -11.26
    3   16   21      7.83      7.36
    3   18   21     -0.31     -4.35
    3   20   21     -1.90      5.12
    4    5   21     -6.17     -5.76
    4    7   21      2.82      1.52
    4    9   21     12.76     -5.95
    4   11   21     12.96     -1.46
    4   13   21      2.04     -2.90
    4   15   21     -6.81      3.02
    4   17   21    -13.98      6.71
    4   19   21    -11.32     -3.49
    5    6   21     11.25    -10.56
    5    8   21     -8.50     17.23
    5   10   21     -2.72     -9.82
    5   12   21     12.10    -11.37
    5   14   21      3.06      0.19
    5   16   21      7.51     13.55
    5   18   21      3.99     -0.94
    5   20   21      4.36      6.45
    1    6   21     -6.94      7.58
    6    7   21     -8.27      0.04
    6    9   21     10.82      1.12
    6   11   21     -3.44      2.14
    6   13   21    -13.83     -1.65
    6   15   21    -11.62     -1.03
    6   17   21     -7.93    -20.80
    6   19   21     -5.87      5.35
    7    8   21    -10.61      8.23
    7   10   21     14.45     -8.54
    7   12   21      9.34     -2.52
    7   14   21      0.88     17.64
    7   16   21     -6.78     25.44
    7   18   21      0.42     26.76
    7   20   21      0.63     -4.48
    8    9   21     17.69     -4.05
    8   11   21      2.84      6.96
    8   13   21      1.22     -5.80
    8   15   21      7.35      8.02
    8   17   21    -10.84     -7.36
    8   19   21    -10.65      3.74
    9   10   21      8.82      6.22
    9   12   21    -11.36      8.77
    9   14   21      5.11     16.32
    9   16   21     -4.67     17.43
    9   18   21     -0.33      8.64
    9   20   21     -1.46     -3.70
   10   11   21     -5.28     12.71
   10   13   21    -13.73    -10.91
   10   15   21     18.78      1.69
   10   17   21     -4.58     -4.36
   10   19   21      2.65      4.47
   11   12   21    -14.08     -7.97
   11   14   21     12.39     -7.87
   11   16   21     19.21    -12.40
   11   18   21     -4.05      2.74
   11   20   21      0.47     10.65
   12   13   21     17.36     -7.61
   12   15   21     20.70     -1.03
   12   17   21      3.41      1.56
   12   19   21      7.91     13.49
   13   14   21     -7.52     16.69
   13   16   21     -1.44      2.05
   13   18   21     -3.23      8.24
   13   20   21     -3.57    -11.71
   14   15   21     -4.14     14.98
   14   17   21     -1.07      1.48
   14   19   21    -27.06      6.84
   15   16   21      9.67    -21.55
   15   18   21      7.59      0.94
   15   20   21     -4.26    -30.66
   16   17   21      8.31    -10.86
   16   19   21    -27.15    -22.45
   17   18   21     24.25     -4.33
    0   21   21     -1.19      0.16
    2   21   21      8.65     -1.28
    4   21   21     -6.31     10.05
    6   21   21    -18.69      6.22
    8   21   21     -4.46      7.50
   10   21   21      4.37     -1.66
   12   21   21      9.35     -3.17
   14   21   21    -22.85      7.73
    0    0   22     -9.88     -0.18
    0    2   22      4.87     -3.46
    0    4   22      2.47     -2.76
    0    6   22     -2.55     -1.74
    0    8   22      6.70      0.59
    0   10   22     16.41      0.61
    0   12   22     -2.14      0.75
    0   14   22      2.48      0.75
    0   16   22      9.81      1.12
    0   18   22      1.12      0.84
    0   20   22      0.63     -0.27
    1    1   22    -50.93      8.27
    1    3   22      7.25      4.14
    1    5   22     -3.28     -4.66
    1    7   22      0.11     -0.73
    1    9   22     -1.78      9.94
    1   11   22     -5.24      4.63
    1   13   22      5.84    -26.38
    1   15   22     -8.80     -4.12
    1   17   22      4.47      9.94
    1   19   22      0.04      5.74
    1   21   22     -7.77     -2.99
    2    2   22     -7.28     16.83
    2    4   22    -10.20     -5.63
    2    6   22     -0.96      8.78
    2    8   22      0.11      2.14
    2   10   22     -5.54      8.34
    2   12   22      9.88      4.03
    2   14   22      4.74     13.49
    2   16   22     -1.36      5.28
    2   18   22    -11.02     -1.08
    2   20   22     -1.29     -1.49
    3    3   22     -2.53     13.01
    3    5   22      2.83      2.15
    3    7   22     -3.65      7.19
    3    9   22     -6.48      0.79
    3   11   22     -0.83      6.12
    3   13   22      7.66      3.19
    3   15   22      4.89     14.94
    3   17   22      3.99     -5.71
    3   19   22      3.55      3.27
    3   21   22     -0.72    -14.92
    4    4   22     -3.16    -10.86
    4    6   22      9.29      8.68
    4    8   22      4.60     -4.35
    4   10   22    -13.31    -14.75
    4   12   22      4.95     -8.27
    4   14   22     -1.36     13.21
    4   16   22     -9.84     -6.65
    4   18   22     -4.71      2.71
    4   20   22     -6.45      7.56
    5    5   22     -1.40      5.95
    5    7   22      2.49     -1.54
    5    9   22     11.59      1.05
    5   11   22      3.38     16.06
    5   13   22     -0.49     22.20
    5   15   22    -18.49     -9.26
    5   17   22     -3.30    -18.17
    5   19   22      1.99     11.55
    5   21   22      0.81     -2.95
    6    6   22      4.07     23.66
    6    8   22      2.65      5.14
    6   10   22    -10.38      3.07
    6   12   22      7.75     -3.36
    6   14   22      5.55     -9.22
    6   16   22     -6.34    -11.09
    6   18   22     11.43      9.67
    6   20   22      6.11     10.77
    7    7   22     -7.45    -23.46
    7    9   22      0.39     -9.77
    7   11   22     -5.17      6.88
    7   13   22     -5.74     -3.11
    7   15   22      3.81     -1.33
    7   17   22     -6.04      8.75
    7   19   22     -1.22     -2.97
    7   21   22      6.24     -5.99
    8    8   22      1.59    -11.96
    8   10   22      6.46      0.04
    8   12   22      4.12      7.95
    8   14   22     -1.95      5.72
    8   16   22      4.33     14.95
    8   18   22     -1.41     -4.56
    8   20   22     -1.11     -5.75
    9    9   22     12.52      4.49
    9   11   22    -13.42      1.55
    9   13   22     -2.41     -3.24
    9   15   22     16.85      1.51
    9   17   22      4.72     -1.96
    9   19   22     -5.53     -9.16
    9   21   22      3.60      2.35
   10   10   22      3.36      6.56
   10   12   22      9.48    -10.61
   10   14   22    -13.70     -7.52
   10   16   22      9.03     20.03
   10   18   22     17.14     -2.03
   10   20   22     -6.16      0.08
   11   11   22     -9.58     -9.15
   11   13   22     -3.75     -3.29
   11   15   22      1.92    -13.18
   11   17   22      3.51     -7.68
   11   19   22     -1.76      4.45
   11   21   22      1.38     -0.03
   12   12   22     18.35     -1.79
   12   14   22    -23.89     10.24
   12   16   22    -22.18     14.98
   12   18   22     -3.39      8.92
   12   20   22     -6.17     -0.01
   13   13   22    -10.61     24.63
   13   15   22     12.77     -2.08
   13   17   22      1.01     -2.36
   13   19   22      5.55      3.50
   13   21   22     12.72    -21.22
   14   14   22     -2.15    -29.51
   14   16   22      3.64     -5.23
   14   18   22     -9.50     13.59
   14   20   22    -13.29     -0.10
   15   15   22     -2.81     -0.24
   15   17   22     -8.20     -3.60
   15   19   22    -10.68      6.62
   16   16   22     -8.08     -4.62
   16   18   22    -10.28    -14.94
   17   17   22     -0.18    -36.85
    0   22   22      4.52     -0.22
    2   22   22      2.61      4.05
    4   22   22     -1.59     -2.97
    6   22   22     -6.43    -10.21
    8   22   22      7.79     -6.68
   10   22   22     -9.41      0.01
    0    1   23     61.45     -1.44
    0    3   23      6.43      0.16
    0    7   23      0.03      0.86
    0    9   23      9.75     -1.53
    0   11   23     -9.12     -5.08
    0   13   23     -3.99      7.09
    0   15   23      4.75     23.39
    0   17   23      4.13      1.62
    0   19   23      0.38     -0.33
    0   21   23     -1.27      1.13
    1    2   23    -26.11     -5.80
    1    4   23      1.16     -7.93
    1    6   23      6.93     -1.16
    1    8   23     -0.57      0.21
    1   10   23     -7.90      4.66
    1   12   23     11.85      1.56
    1   14   23     11.41    -12.77
    1   16   23     -7.53     -8.28
    1   18   23     -3.10      2.86
    1   20   23      0.92     -6.21
    1   22   23      9.47     -4.70
    2    3   23     -2.97     -3.80
    2    5   23      6.90      9.24
    2    7   23     -3.68      0.43
    2    9   23      3.74     17.11
    2   11   23      1.48     -7.26
    2   13   23      1.60     -7.49
    2   15   23     -6.16      6.81
    2   17   23     -3.59     -1.44
    2   19   23     -8.24      0.69
    2   21   23      3.60      1.77
    3    4   23     -0.18     -7.89
    3    6   23    -10.21      9.02
    3    8   23      3.15     -5.64
    3   10   23     -5.41     -3.82
    3   12   23      7.01      7.65
    3   14   23      1.39      2.51
    3   16   23      1.28     -6.51
    3   18   23      9.33     -2.02
    3   20   23      3.39      2.38
    3   22   23     -0.21     12.65
    4    5   23     -3.45      7.21
    4    7   23    -15.43    -10.47
    4    9   23     -2.96     -1.54
    4   11   23     -2.55      5.08
    4   13   23      0.35      0.74
    4   15   23      0.45     -2.32
    4   17   23      6.34     -8.80
    4   19   23      1.28     -7.03
    4   21   23     -3.72     -0.54
    0    5   23      1.23      0.19
    5    6   23      2.35      6.99
    5    8   23     11.44     10.72
    5   10   23      1.19     -4.03
    5   12   23     -0.05     -0.75
    5   14   23      1.18      1.66
    5   16   23      2.22     -2.32
    5   18   23     -6.37    -12.38
    5   20   23     -2.68     -6.88
    5   22   23    -10.82      7.40
    6    7   23    -16.20     -8.41
    6    9   23      0.34     -0.46
    6   11   23      1.03     -0.57
    6   13   23     -1.67     -7.19
    6   15   23      1.28      7.80
    6   17   23      0.89     -5.58
    6   19   23     -1.38     -4.52
    6   21   23     -7.27     -4.19
    7    8   23      3.88     19.48
    7   10   23      9.57      6.13
    7   12   23    -10.59    -12.02
    7   14   23      2.88     -1.04
    7   16   23    -13.56      6.19
    7   18   23     -1.90      3.06
    7   20   23      1.77     -9.83
    7   22   23     -0.26      1.02
    8    9   23     -2.19     11.26
    8   11   23     -3.84      1.95
    8   13   23     -5.24     -7.17
    8   15   23      6.53      3.74
    8   17   23      7.52      9.51
    8   19   23      2.82     -0.07
    8   21   23      1.14     -1.94
    9   10   23     -3.03     -9.67
    9   12   23    -27.62    -34.07
    9   14   23      1.43    -14.93
    9   16   23     -4.81     -5.27
    9   18   23      2.75      0.10
    9   20   23     -1.02      4.37
    9   22   23     -7.95      7.11
   10   11   23     -0.78     -2.46
   10   13   23    -13.34     21.77
   10   15   23     19.04     10.39
   10   17   23     11.74     -1.46
   10   19   23     -0.14      2.33
   10   21   23     -6.12     -3.38
   11   12   23      5.61    -26.08
   11   14   23     12.96    -27.60
   11   16   23      7.89    -12.58
   11   18   23     -3.46     -5.22
   11   20   23     -5.48      3.21
   12   13   23     27.02     15.88
   12   15   23      4.03     17.31
   12   17   23     -4.64      2.84
   12   19   23     -6.94     11.03
   13   14   23    -16.61     27.49
   13   16   23     -5.72     19.50
   13   18   23      3.85      7.91
   13   20   23     -7.15    -15.49
   14   15   23    -22.34     12.56
   14   17   23    -12.95    -15.82
   14   19   23     -3.60      9.50
   15   16   23     -1.65     -7.03
   15   18   23      9.82     10.05
   16   17   23      0.65    -24.19
    0   23   23    -11.32     -1.54
    2   23   23      1.42     -4.08
    4   23   23     -7.99     -7.13
    6   23   23     -2.37      3.66
    0    0   24     -5.00     -0.60
    0    2   24     13.81      2.44
    0    4   24      5.35      0.58
    0    6   24      4.57      2.11
    0    8   24      4.51      8.54
    0   10   24     -6.09      8.36
    0   12   24    -41.11     -0.38
    0   14   24    -40.28     -4.05
    0   16   24      7.56      0.79
    0   18   24      0.32      0.43
    0   20   24     -6.87     -1.76
    0   22   24      1.92     -0.16
    1    1   24    -30.92     22.03
    1    3   24     -4.19     10.54
    1    5   24     -7.99      3.08
    1    7   24      5.34     -0.19
    1    9   24      0.11      1.75
    1   11   24      4.68     13.59
    1   13   24     -1.95    -33.47
    1   15   24     23.41    -16.94
    1   17   24      5.04      6.02
    1   19   24      1.84     -0.68
    1   21   24      1.95      5.76
    1   23   24     26.01      4.76
    2    2   24     18.31     19.96
    2    4   24     -2.55     11.69
    2    6   24    -11.44      1.20
    2    8   24     -5.61      8.31
    2   10   24      6.86     -0.86
    2   12   24     21.69      2.32
    2   14   24      3.02     13.00
    2   16   24      7.45     11.17
    2   18   24     -0.03     -1.06
    2   20   24      4.40     -7.78
    2   22   24     -3.84      3.65
    3    3   24     -9.32      2.47
    3    5   24     -1.26     -3.44
    3    7   24      0.14      0.14
    3    9   24    -11.71     -4.48
    3   11   24      8.36      6.66
    3   13   24      8.54    -30.50
    3   15   24      5.73      3.42
    3   17   24    -15.57      1.13
    3   19   24    -14.58    -12.35
    3   21   24     -3.63     -8.67
    4    4   24    -21.19     -7.14
    4    6   24     -2.29    -13.32
    4    8   24      7.32     -2.40
    4   10   24      1.50     -7.61
    4   12   24     15.55     -5.20
    4   14   24      3.05      7.40
    4   16   24    -12.33      0.59
    4   18   24      8.13     -4.32
    4   20   24      7.02      9.55
    4   22   24      4.37      1.67
    5    5   24      1.94     -0.07
    5    7   24     14.50      5.11
    5    9   24    -10.13      4.53
    5   11   24    -11.59      8.26
    5   13   24      9.31     -3.83
    5   15   24      6.91      3.09
    5   17   24      3.06      2.68
    5   19   24     -7.92     -2.43
    5   21   24      7.07     -0.63
    6    6   24      6.97     10.73
    6    8   24     -3.28     15.57
    6   10   24    -13.87      6.86
    6   12   24     -7.33     -4.73
    6   14   24      6.20      4.95
    6   16   24    -10.43     -3.96
    6   18   24      2.21     -1.13
    6   20   24      4.05     -4.29
    6   22   24     -5.25    -10.96
    7    7   24      3.88      0.94
    7    9   24     -9.04      4.47
    7   11   24    -11.87     -1.38
    7   13   24     10.10     -7.86
    7   15   24     -1.27      1.01
    7   17   24    -12.44     13.73
    7   19   24     -5.38    -10.69
    7   21   24      8.32      1.57
    8    8   24    -15.64     -7.59
    8   10   24      1.36    -17.50
    8   12   24     -9.45    -10.11
    8   14   24     -1.61    -13.82
    8   16   24      3.86     -7.19
    8   18   24     -2.95     -4.50
    8   20   24      1.69     11.38
    9    9   24     -6.66      6.05
    9   11   24     -7.78    -16.88
    9   13   24     10.88      1.13
    9   15   24    -12.97      7.98
    9   17   24      0.86      1.79
    9   19   24      8.78     -4.01
    9   21   24     -5.89     -4.59
   10   10   24      7.69    -23.16
   10   12   24     16.24    -13.14
   10   14   24    -24.14     27.98
   10   16   24     -1.01      6.90
   10   18   24     10.48     -2.82
   10   20   24     -7.46      4.16
   11   11   24     27.63    -40.40
   11   13   24     12.51      6.63
   11   15   24    -16.20      0.87
   11   17   24     -5.39     -0.54
   11   19   24     -1.66      0.32
   12   12   24     40.41     14.35
   12   14   24    -33.42     49.01
   12   16   24    -14.50     -8.29
   12   18   24      2.19     -7.01
   13   13   24    -32.62      9.84
   13   15   24    -19.67    -21.97
   13   17   24     -5.91     -8.01
   13   19   24      7.89     -0.43
   14   14   24    -47.85    -18.15
   14   16   24     -2.82    -12.90
   14   18   24      7.12      7.88
   15   15   24     -3.08    -10.14
   15   17   24     -3.56     -0.26
   16   16   24    -11.88     -3.90
    0    1   25     61.62    -11.95
    0    3   25     -2.39     -3.97
    0    5   25     -6.97     -0.11
    0    7   25      3.40     -0.12
    0    9   25      3.98     -6.02
    0   11   25    -28.11     -9.65
    0   13   25     52.32      3.76
    0   15   25     21.94     20.56
    0   17   25     -3.08      1.58
    0   19   25     -0.35     -0.89
    0   21   25      9.66      0.86
    1    2   25    -13.63     19.35
    1    4   25     -8.57     16.86
    1    6   25      2.80      8.10
    1    8   25      3.16      0.29
    1   10   25     11.44     -7.83
    1   12   25     16.74    -19.75
    1   14   25      9.68     10.18
    1   16   25     -2.03      6.21
    1   18   25      1.74      0.76
    1   20   25     -4.50     -2.14
    2    3   25     -1.25     12.53
    2    5   25     -0.41     -0.64
    2    7   25      0.24      0.16
    2    9   25      3.38     -1.05
    2   11   25     -5.50    -30.04
    2   13   25     33.70     16.35
    2   15   25     -2.15     11.54
    2   17   25     -4.13    -10.95
    2   19   25     -2.80    -10.58
    2   21   25      2.84      2.79
    3    4   25      5.01     -3.99
    3    6   25     -5.83     -3.56
    3    8   25     -9.21      5.16
    3   10   25      4.41     17.90
    3   12   25     11.37     -5.69
    3   14   25     -7.11     27.17
    3   16   25      3.80      3.84
    3   18   25     14.26     -8.58
    3   20   25     -5.89      1.13
    4    5   25      7.11     -1.43
    4    7   25      0.66      3.28
    4    9   25      7.88      6.56
    4   11   25      3.36     -1.79
    4   13   25     22.36      8.83
    4   15   25     -1.29    -20.89
    4   17   25      0.89     -7.85
    4   19   25      1.14      8.24
    4   21   25     -2.36      0.56
    5    6   25     10.05      8.08
    5    8   25     -1.74      2.29
    5   10   25     -7.20      8.48
    5   12   25     -1.56     -0.73
    5   14   25     -7.67     -3.29
    5   16   25     14.74      4.47
    5   18   25      3.06     -4.14
    5   20   25     -2.42      0.33
    6    7   25     -9.80      3.52
    6    9   25     -8.84     -3.83
    6   11   25     -4.09     -7.10
    6   13   25     11.45      2.44
    6   15   25     12.29      6.13
    6   17   25      9.84     -3.08
    6   19   25      9.94      4.53
    6   21   25     -5.98     -6.03
    7    8   25    -13.97     -4.04
    7   10   25     12.57     -9.47
    7   12   25     13.37      2.09
    7   14   25     -8.43    -16.99
    7   16   25    -13.82     -7.09
    7   18   25     -3.60      2.57
    7   20   25      1.58     -3.13
    8    9   25     -9.08      2.72
    8   11   25     -4.05    -19.19
    8   13   25     -7.62     -7.10
    8   15   25     -6.69      7.94
    8   17   25      0.34      1.77
    8   19   25      3.46     12.47
    9   10   25     15.26    -14.26
    9   12   25      0.91     29.36
    9   14   25    -12.24      8.41
    9   16   25     -6.95    -15.29
    9   18   25      4.25      4.73
    9   20   25      4.15     -6.70
   10   11   25    -22.05    -11.06
   10   13   25    -28.37      8.89
   10   15   25     -4.33     13.06
   10   17   25      2.61     -1.89
   10   19   25     -8.13      0.22
   11   12   25    -35.80     41.08
   11   14   25    -24.52    -19.40
   11   16   25     -1.75    -14.51
   11   18   25     -0.33     -4.24
   12   13   25    -44.02    -16.69
   12   15   25    -29.18     -6.69
   12   17   25      2.44     -3.17
   13   14   25    -30.94    -44.99
   13   16   25      5.11    -10.65
   14   15   25     -9.89    -11.76
   15   16   25     -5.34      8.72
    0    0   26     17.33     -2.13
    0    2   26     -7.75      2.46
    0    4   26     -6.86      2.28
    0    6   26     -3.94     -0.20
    0    8   26     -5.98     -0.43
    0   10   26     -7.24      1.65
    0   12   26     20.17      0.71
    0   14   26     21.04     -3.82
    0   16   26      8.15      0.03
    0   18   26      3.19      1.53
    0   20   26      0.72     -0.89
    1    1   26     70.79     -7.22
    1    3   26     13.71    -10.97
    1    5   26     -1.58     -1.34
    1    7   26      4.22     -7.14
    1    9   26      0.35     -3.84
    1   11   26     -3.90     30.25
    1   13   26     10.32     15.24
    1   15   26     15.39      2.75
    1   17   26     -8.42     -2.23
    1   19   26     -4.24      0.47
    2    2   26     -9.59    -21.24
    2    4   26      6.67      2.15
    2    6   26      0.63      4.73
    2    8   26     -0.99     -0.30
    2   10   26     -2.82    -15.70
    2   12   26     17.12      2.72
    2   14   26     10.72     -0.38
    2   16   26      0.80     -0.96
    2   18   26      0.22      4.90
    2   20   26      4.41      4.46
    3    3   26    -10.69     -6.29
    3    5   26     -7.71      5.19
    3    7   26     -7.30      8.94
    3    9   26     -2.67     -3.15
    3   11   26      7.51      4.76
    3   13   26     13.72     -5.99
    3   15   26      9.14     -2.16
    3   17   26      2.98    -13.50
    3   19   26      1.37      0.12
    4    4   26     -6.07    -11.27
    4    6   26     -1.88     -3.96
    4    8   26     -1.84      0.32
    4   10   26     -1.54      1.58
    4   12   26      0.34      0.18
    4   14   26      3.13    -12.82
    4   16   26     -2.68     -9.91
    4   18   26      0.86     -8.16
    4   20   26     -2.25      2.19
    5    5   26     -0.80    -18.77
    5    7   26      0.79     -2.34
    5    9   26    -11.06      4.23
    5   11   26     -3.55     -0.66
    5   13   26      3.21     -0.35
    5   15   26     24.63     10.22
    5   17   26     13.99      1.81
    5   19   26      0.59      2.94
    6    6   26      7.89      1.75
    6    8   26     -6.15     -0.61
    6   10   26      3.90      7.67
    6   12   26      2.51      4.43
    6   14   26     13.09     -0.39
    6   16   26     -0.01    -12.03
    6   18   26    -10.06     -2.68
    7    7   26      3.09      4.92
    7    9   26     -5.19     13.58
    7   11   26     -1.29      9.40
    7   13   26     -5.62     -2.55
    7   15   26    -16.23     -4.57
    7   17   26    -14.60     14.64
    7   19   26     -3.98      7.50
    8    8   26     -9.36     -5.56
    8   10   26     11.40     19.39
    8   12   26     -8.91     18.22
    8   14   26     -4.89     -6.98
    8   16   26      7.01     -2.10
    8   18   26      0.32     -3.31
    9    9   26     15.19      1.92
    9   11   26     21.75    -19.55
    9   13   26    -14.89    -13.63
    9   15   26    -26.40    -17.15
    9   17   26     -7.60      3.32
   10   10   26      6.14      9.87
   10   12   26    -13.68    -27.27
   10   14   26    -16.01     19.65
   10   16   26     -5.73      5.70
   10   18   26     -2.58     -6.99
   11   11   26     27.63    -46.54
   11   13   26     -9.59     14.61
   11   15   26      2.75    -11.82
   11   17   26      8.11      4.56
   12   12   26      5.99    -54.28
   12   14   26      9.97     19.80
   12   16   26      5.12    -12.77
   13   13   26    -10.54     37.67
   13   15   26     -1.83    -14.78
   14   14   26      4.16      7.83
    0    1   27     47.36    -20.84
    0    3   27    -10.86     -6.76
    0    5   27    -12.48      4.52
    0    7   27     18.08      6.94
    0    9   27     -4.71     -6.22
    0   11   27    -17.18     -3.98
    0   13   27     17.15     -1.65
    0   15   27      6.82      2.46
    0   17   27      6.97     -1.72
    0   19   27      0.09     -0.66
    1    2   27     13.31      0.89
    1    4   27    -24.39      9.03
    1    6   27    -28.62      8.42
    1    8   27     -0.27     -1.24
    1   10   27      5.32      1.40
    1   12   27     12.37     -2.67
    1   14   27     -2.60     11.86
    1   16   27    -14.57     -1.19
    1   18   27      0.78     -0.22
    2    3   27     -9.71    -24.90
    2    5   27     -9.03    -12.97
    2    7   27     16.67      1.14
    2    9   27     -2.74     -5.00
    2   11   27     -3.09    -17.57
    2   13   27      1.79      2.85
    2   15   27      2.07      1.66
    2   17   27      5.53     -3.00
    2   19   27     -5.30     -7.09
    3    4   27    -11.12    -21.62
    3    6   27     -2.46    -21.86
    3    8   27      6.63     -7.99
    3   10   27     -6.12     16.22
    3   12   27     -1.23     -6.87
    3   14   27     -1.82     -1.72
    3   16   27      3.71     -8.93
    3   18   27      2.57      1.88
    4    5   27     -7.20     -7.40
    4    7   27     10.60      1.98
    4    9   27      1.97      8.65
    4   11   27     -2.67     14.58
    4   13   27      1.31     -0.36
    4   15   27     -3.63     -6.88
    4   17   27     -3.15      9.03
    4   19   27     -3.36     -0.40
    5    6   27      4.35      9.09
    5    8   27     10.87     -9.09
    5   10   27    -13.82      3.70
    5   12   27     -0.58     -1.94
    5   14   27     -7.58    -17.26
    5   16   27      8.73      7.10
    5   18   27      2.22      9.11
    6    7   27     -4.78      5.20
    6    9   27     -8.43     -1.44
    6   11   27     -5.43     22.00
    6   13   27     -5.21     20.69
    6   15   27     -7.96     16.86
    6   17   27      0.51      5.75
    7    8   27    -16.37     -8.11
    7   10   27    -11.09      8.95
    7   12   27    -10.17     15.69
    7   14   27    -26.42    -12.03
    7   16   27    -22.54     -7.95
    7   18   27     -1.69     -4.25
    8    9   27      6.69     16.70
    8   11   27     19.04     -6.93
    8   13   27      1.95    -22.41
    8   15   27    -10.06    -27.14
    8   17   27      3.21    -19.32
    9   10   27     23.24      7.32
    9   12   27     31.17     21.60
    9   14   27     15.67      7.06
    9   16   27    -20.19     -8.43
   10   11   27     -0.07    -19.15
   10   13   27     -3.67    -37.35
   10   15   27     -5.51    -24.64
   11   12   27      9.12     30.17
   11   14   27     15.89      0.61
   11   16   27     -7.06      7.48
   12   13   27    -20.04    -36.56
   12   15   27      4.45    -19.44
   13   14   27     -1.72    -27.56
    0    0   28      9.96      1.99
    0    2   28     22.97      2.61
    0    4   28     20.15      2.93
    0    6   28    -14.57      0.72
    0    8   28      9.49      0.29
    0   10   28      9.06      3.88
    0   12   28     18.53     -1.46
    0   14   28      4.09     -4.26
    0   16   28     -5.23      0.90
    1    1   28      1.04    -18.14
    1    3   28    -26.27     -5.96
    1    5   28     21.55     14.68
    1    7   28     20.72      2.56
    1    9   28     11.35    -11.70
    1   11   28     -4.81     11.70
    1   13   28     15.96      6.47
    1   15   28      0.07    -11.70
    1   17   28      1.47      2.14
    2    2   28     39.62    -18.89
    2    4   28     30.34     -5.62
    2    6   28     -7.16      8.06
    2    8   28     18.32      9.75
    2   10   28     11.09      0.48
    2   12   28     -3.63     15.17
    2   14   28     -2.36     -4.78
    2   16   28     -4.00     -2.71
    3    3   28    -33.27    -19.41
    3    5   28      1.85     15.24
    3    7   28     -7.83     17.87
    3    9   28     -3.54    -16.33
    3   11   28    -19.01      5.96
    3   13   28     -3.04     18.50
    3   15   28     -3.19    -14.08
    3   17   28     10.45     -1.57
    4    4   28    -25.88    -34.78
    4    6   28    -36.07     -1.36
    4    8   28     -5.78     11.10
    4   10   28     19.86      5.25
    4   12   28    -11.49      4.68
    4   14   28      5.45    -10.40
    4   16   28     10.89      0.16
    5    5   28     19.80      5.77
    5    7   28      2.79      5.65
    5    9   28      3.77    -16.14
    5   11   28    -11.51     -6.43
    5   13   28    -10.95     17.42
    5   15   28     17.00     -8.79
    5   17   28     -5.06    -10.92
    6    6   28     -8.68     -9.19
    6    8   28     -9.06    -18.73
    6   10   28     10.49      2.88
    6   12   28    -11.89     25.18
    6   14   28      1.13     10.95
    6   16   28      1.50      7.16
    7    7   28     24.00     -8.76
    7    9   28     -5.04     -6.80
    7   11   28    -26.72      8.36
    7   13   28      5.75     10.18
    7   15   28     13.48     -5.90
    8    8   28    -32.37    -25.53
    8   10   28    -12.22     16.58
    8   12   28     -9.17     16.69
    8   14   28    -17.92    -22.75
    8   16   28    -12.05     -0.01
    9    9   28    -10.82     12.01
    9   11   28     -4.60     -0.64
    9   13   28      5.67    -13.31
    9   15   28     27.81      9.78
   10   10   28     24.69     -0.31
   10   12   28     12.82    -40.34
   10   14   28      1.79    -31.39
   11   11   28    -12.82    -50.29
   11   13   28    -10.61    -23.85
   12   12   28      6.29    -28.27
    0    1   29    -10.31      0.07
    0    3   29     -2.12      2.97
    0    5   29     -5.02      6.78
    0    7   29     10.37      6.32
    0    9   29     14.10     -1.37
    0   11   29      9.38      2.53
    0   13   29     -0.92      1.16
    0   15   29      1.87      1.22
    1    2   29     10.31    -15.58
    1    4   29     17.81    -15.77
    1    6   29      9.36     -0.48
    1    8   29      2.75     -9.80
    1   10   29      1.62     -5.06
    1   12   29      3.23     -3.49
    1   14   29      3.00     -4.43
    1   16   29      1.17     -2.34
    2    3   29    -14.37    -12.75
    2    5   29    -12.33      0.33
    2    7   29      6.73     13.61
    2    9   29      2.10     11.63
    2   11   29      0.91    -11.76
    2   13   29    -15.07     -9.41
    2   15   29     14.79      2.56
    3    4   29    -12.39      4.42
    3    6   29      5.80     -0.25
    3    8   29     23.76    -13.40
    3   10   29     -1.43     -6.32
    3   12   29      0.45    -11.47
    3   14   29     10.71    -24.35
    3   16   29      1.60      6.35
    4    5   29    -22.74      4.01
    4    7   29     14.44     14.18
    4    9   29     14.53      9.81
    4   11   29     14.19     -4.79
    4   13   29      7.03    -26.68
    4   15   29     15.01     -5.00
    5    6   29     -5.59     33.48
    5    8   29     33.10     15.48
    5   10   29     -7.82      8.67
    5   12   29     10.03      7.40
    5   14   29      9.80    -12.58
    6    7   29      6.64     38.63
    6    9   29     -1.54    -11.36
    6   11   29      1.11    -10.59
    6   13   29    -10.52     -3.38
    6   15   29     -8.05      9.49
    7    8   29      0.13     18.78
    7   10   29    -27.60     19.74
    7   12   29    -13.63      7.78
    7   14   29      2.21    -13.91
    8    9   29    -16.95    -21.67
    8   11   29      7.24    -19.26
    8   13   29      5.80     -7.42
    9   10   29    -25.24    -11.60
    9   12   29     16.48    -13.67
   10   11   29     15.11    -10.59
   11   12   29     37.25     -5.32
    0    0   30     10.51      5.47
    0    2   30     -1.56     -2.20
    0    4   30      2.71     -7.01
    0    6   30    -11.60     -5.30
    0    8   30     -2.81     -3.79
    0   10   30    -12.36     -2.89
    0   12   30     -6.54    -14.72
    0   14   30     12.29    -12.07
    1    1   30     -1.08      2.41
    1    3   30      6.62     13.53
    1    5   30     10.19     12.02
    1    7   30    -15.64     -3.04
    1    9   30     -1.76     -4.60
    1   11   30      4.57      5.66
    1   13   30     12.37     -8.92
    2    2   30     -6.14      3.64
    2    4   30     -7.61      2.80
    2    6   30     -6.85     25.13
    2    8   30      9.82     12.49
    2   10   30     -9.96      2.87
    2   12   30    -15.40      3.25
    2   14   30     14.51     -6.11
    3    3   30     22.49    -22.52
    3    5   30     18.39     -5.33
    3    7   30    -25.75      2.92
    3    9   30      4.93    -11.90
    3   11   30     20.24     -9.33
    3   13   30     15.34    -13.63
    4    4   30    -36.80    -19.37
    4    6   30    -12.74     38.50
    4    8   30     10.08     31.15
    4   10   30      7.24     12.01
    4   12   30    -13.89      4.56
    5    5   30     15.77     29.32
    5    7   30    -38.13     46.30
    5    9   30      7.03      7.47
    5   11   30     19.31    -16.96
    5   13   30     -8.91     -4.73
    6    6   30     38.66     47.57
    6    8   30     46.25     -2.74
    6   10   30     14.77     -6.34
    6   12   30     -8.76      6.32
    7    7   30    -30.59     50.78
    7    9   30    -14.90      2.74
    7   11   30    -16.73     -7.65
    8    8   30     18.10    -36.15
    8   10   30    -26.99     -4.69
    9    9   30     -0.78    -17.82
    9   11   30     14.14     -5.78
   10   10   30    -10.72     10.39
    0    1   31    -11.95     17.00
    0    3   31      4.93      3.99
    0    5   31      8.60      0.42
    0    7   31    -12.38     -0.19
    0    9   31     -7.65     -1.09
    0   11   31     18.72     -1.37
    1    2   31      6.64     10.79
    1    4   31      3.96      7.78
    1    6   31     -0.10      8.67
    1    8   31     -4.83      2.39
    1   10   31      2.09     -0.54
    1   12   31     -4.74      5.02
    2    3   31     -5.37      3.99
    2    5   31      7.06     -9.90
    2    7   31    -15.49     -0.04
    2    9   31    -15.77     -0.31
    2   11   31      8.28     -5.99
    3    4   31    -17.12     20.04
    3    6   31     -8.09     11.31
    3    8   31     12.11     13.94
    3   10   31     -3.35      5.42
    4    5   31    -40.56    -21.34
    4    7   31    -42.81     -7.65
    4    9   31    -28.30      2.77
    4   11   31      3.06     12.78
    5    6   31    -48.89      9.73
    5    8   31     -7.57     27.22
    5   10   31    -12.77     -1.72
    6    7   31    -44.42     41.10
    6    9   31     -6.68     24.36
    7    8   31    -17.45     26.88
    8    9   31     -4.96     -3.92
    0    0   32     -8.44     22.30
    0    2   32    -17.23      6.50
    0    4   32     11.24     -2.75
    0    6   32     -4.79     -3.26
    0    8   32    -15.69     -6.08
    1    1   32     19.49      7.22
    1    3   32      0.68      9.30
    1    5   32     -9.45     -7.57
    1    7   32      2.00    -15.09
    1    9   32      6.64      0.94
    2    2   32    -12.52     -4.27
    2    4   32      3.60     -3.04
    2    6   32     -3.18     12.81
    2    8   32    -16.12     -1.36
    3    3   32     -7.76    -11.13
    3    5   32    -19.41     -9.88
    3    7   32    -12.66    -12.82
    4    4   32     21.01    -14.94
    4    6   32     10.59     23.88
    4    8   32    -19.15      8.46
    5    5   32    -36.69     29.01
    5    7   32    -35.38     23.28
    6    6   32    -11.04     52.33
    0    1   33     13.92     11.85
    0    3   33     18.30      4.75
    1    2   33     -1.57     15.13
    1    4   33     -4.81      4.06
    2    3   33      7.78     17.31
    0    1    1    115.00      2.62
    0    0    2    799.58     -3.24
    1    1    2    164.31   -186.91
    0    2    2   -134.28     10.06
    2    2    2   -136.05   -184.06
    2    3    3    -31.09   -187.10
    2    2    4     94.28     31.90
    3    3    4    -61.24     77.34
    2    4    4    122.66     64.12
    4    4    4    -36.48    -99.18
    0    3    5    100.57      2.91
    2    3    5    -49.48     36.10
    4    5    5    -17.51    -11.10
    0    0    6     27.21      0.03
    1    1    6     -3.38     45.91
    0    2    6     43.82     -1.14
    2    2    6     -3.65     12.77
    3    3    6    -45.66     38.95
    5    5    6    -37.34    -10.12
    6    6    6    -29.28    -51.77
    1    4    7     15.72    -19.10
    8    8    8     16.36      5.16
    1    1   10     34.35     42.13
    0    0   12    -25.69     -0.75
    1    1   12    -57.67     43.91
    0   12   12    131.65     -1.01
    0   16   16     66.99      4.95
    0   18   18    -23.05     -1.73
    0   19   19     23.03     -2.24
    0   18   20     -9.25      0.93
   19   19   20     29.79     16.60
   18   20   20     19.05    -21.69
   20   20   20     27.21     -4.68
   18   19   21     20.52    -20.56
   17   20   21     11.72    -18.12
   19   20   21     19.39     -4.34
   16   21   21     -5.82     -7.22
   18   21   21      7.16     -0.41
   20   21   21      4.68      1.40
   18   18   22     13.86     -3.45
   17   19   22     16.38    -12.35
   19   19   22     11.67      2.94
   16   20   22     -8.34      1.73
   18   20   22     13.00      8.05
   20   20   22      8.59     -2.23
   15   21   22     -0.30     -4.50
   17   21   22     -3.90      5.65
   19   21   22     -5.37     -2.80
   12   22   22     12.70    -12.13
   14   22   22     12.91     -9.45
   16   22   22     -6.24      3.46
   18   22   22     -2.93     11.66
   17   18   23      0.65     -2.88
   16   19   23     -0.84     -4.84
   18   19   23      3.36     -8.28
   15   20   23     10.03     -8.46
   17   20   23     -1.12      6.39
   19   20   23      4.58     -2.13
   12   21   23      3.15    -11.00
   14   21   23      7.40     -5.49
   16   21   23     11.07      0.75
   18   21   23     -4.89     -0.77
   11   22   23      1.80    -11.49
   13   22   23      4.87    -15.58
   15   22   23      3.90      7.30
   17   22   23     -0.21     14.22
    8   23   23      1.36     10.02
   10   23   23     -0.19      1.02
   12   23   23     -4.14    -10.62
   14   23   23      2.01    -16.55
   16   23   23      5.13     -2.97
   17   17   24    -15.70     -8.72
   16   18   24     -6.64     -2.30
   18   18   24     -2.41     -0.62
   15   19   24     -6.20      2.48
   17   19   24      5.54      1.45
   19   19   24      0.09      2.88
   12   20   24     -0.01     -7.62
   14   20   24      6.93      3.92
   16   20   24      7.52      3.88
   18   20   24      2.80      3.55
   11   21   24     -7.64    -15.80
   13   21   24      9.43    -10.21
   15   21   24      7.67      1.89
   17   21   24      4.22     14.85
    8   22   24     -2.08     -1.45
   10   22   24     -6.38     -4.49
   12   22   24      9.55     -0.52
   14   22   24      4.18      2.71
   16   22   24     -1.84      3.08
    3   23   24     -0.01      2.59
    5   23   24     -7.08     -3.16
    7   23   24     -4.67      2.63
    9   23   24     -3.94     -9.75
   11   23   24      3.52    -16.79
   13   23   24     -2.52     -3.21
    0   24   24     19.53      1.08
    2   24   24     -1.91     13.61
    4   24   24     -6.29     12.37
    6   24   24     -7.26      7.53
    8   24   24     -0.18    -11.58
   10   24   24      4.91    -16.02
   12   24   24      9.30     -2.21
   14   17   25     13.09     -2.13
   16   17   25     -3.60     -3.58
   13   18   25      6.13     -6.23
   15   18   25      3.69     -3.25
   17   18   25     -4.57     -2.05
   12   19   25      1.77     -8.55
   14   19   25     10.55      6.24
   16   19   25     -4.85      2.17
   18   19   25     -1.72      7.78
   11   20   25     -1.24     -0.47
   13   20   25     -2.87     -4.87
   15   20   25      9.56     -5.89
   17   20   25     -4.11      6.77
    8   21   25     -9.76     -9.07
   10   21   25    -14.71     -5.13
   12   21   25      3.29     -5.24
   14   21   25      3.79      1.56
    1   22   25     11.97     -4.83
    3   22   25     -4.55      5.65
    5   22   25    -12.63     -0.38
    7   22   25     -2.33    -10.15
    9   22   25     -1.61      2.62
   11   22   25      8.05      6.01
   13   22   25      6.85      5.45
    0   23   25      5.75     -0.24
    2   23   25     -2.15     11.36
    4   23   25     -5.04      1.12
    6   23   25     -3.55     -2.07
    8   23   25      2.78      0.37
   10   23   25      2.81     -1.66
   12   23   25     -1.30      1.21
    1   24   25      6.27     -0.56
    3   24   25     -3.36      1.41
    5   24   25     -6.48     -5.61
    7   24   25     -0.44     -4.76
    9   24   25      0.35      2.90
    0   25   25     25.66      0.60
    2   25   25      1.94      5.47
    4   25   25      7.30     -9.14
    6   25   25      2.00     -0.17
    8   25   25     11.60     17.17
   15   15   26     -2.24      2.22
   14   16   26      2.50     11.81
   16   16   26    -14.83      6.98
   13   17   26      0.51      1.23
   15   17   26     -8.17     12.80
   17   17   26    -11.04      8.72
   12   18   26     -8.31    -15.75
   14   18   26     -3.70     -7.71
   16   18   26     -5.78     -3.89
    9   19   26     -1.52      1.98
   11   19   26      0.44      1.32
   13   19   26     -4.05     -2.71
   15   19   26     -8.43     -1.70
    6   20   26     -4.71     -7.57
    8   20   26     -2.01     -0.60
   10   20   26     -7.84      0.54
   12   20   26     -6.38     -0.86
   14   20   26     -1.25     -5.30
    1   21   26     -2.55      0.01
    3   21   26     -5.08      0.44
    5   21   26     -0.63     -4.78
    7   21   26      0.90      8.01
    9   21   26    -15.08      4.23
   11   21   26      2.83     -4.00
   13   21   26      1.96     -3.43
    0   22   26      2.64     -3.34
    2   22   26     -6.31      8.34
    4   22   26      1.42      5.99
    6   22   26      2.46      3.03
    8   22   26    -11.00      0.60
   10   22   26     -3.34     -0.57
   12   22   26     -0.72      5.56
    1   23   26     14.57      7.87
    3   23   26      1.60      5.81
    5   23   26     -1.95     -7.05
    7   23   26     -0.39     -0.66
    9   23   26     -4.04     -3.54
    0   24   26     16.38     -1.27
    2   24   26      0.81      2.31
    4   24   26     -4.59      0.79
    6   24   26      0.63      3.07
    8   24   26     -8.00     -6.78
    1   25   26      2.32     -0.79
    3   25   26     -2.42     -0.74
   14   15   27      0.00      4.30
   13   16   27      3.94     -1.36
   15   16   27     -9.79     11.82
   10   17   27      7.45     -0.49
   12   17   27      6.87     10.16
   14   17   27     -8.27      8.04
   16   17   27     -3.79     -3.73
    9   18   27    -10.44      9.38
   11   18   27     -8.48      1.25
   13   18   27     -4.81     -3.17
   15   18   27     -8.34     -4.75
    6   19   27      4.26     -1.25
    8   19   27     -0.07      1.29
   10   19   27     -1.37     -3.42
   12   19   27      2.69      1.22
   14   19   27     -2.72      0.43
    1   20   27      9.49      0.90
    3   20   27     -6.87     -3.35
    5   20   27     -5.34     -3.23
    7   20   27      0.68      1.81
    9   20   27      5.27      2.72
   11   20   27      3.36     -5.72
   13   20   27      0.54     -3.10
    0   21   27      9.78     -1.20
    2   21   27      1.05     10.23
    4   21   27      0.41      6.88
    6   21   27     -0.13     10.53
    8   21   27     -2.09     -5.90
   10   21   27      9.13     -7.23
   12   21   27     10.56      4.53
    1   22   27      4.76      3.67
    3   22   27     -4.11      6.93
    5   22   27     -3.10     -2.55
    7   22   27     -5.47     -8.82
    9   22   27      3.18      1.31
    0   23   27     13.17      0.76
    2   23   27      4.94      3.91
    4   23   27     -0.49      0.41
    6   23   27      0.41      0.00
    1   24   27      1.11      3.25
    3   24   27      4.31      8.22
   13   13   28     19.25      0.61
   12   14   28     13.79      9.44
   14   14   28     15.86      2.96
   11   15   28     21.77      2.14
   13   15   28      2.42      4.51
   15   15   28    -15.67      9.91
   10   16   28     -1.17     -2.99
   12   16   28     -0.80     -0.44
   14   16   28      2.19      2.21
   16   16   28     -2.71     -3.12
    7   17   28     -7.14     -7.06
    9   17   28      2.37     10.51
   11   17   28     -0.08      0.09
   13   17   28      1.18     -3.60
   15   17   28     -6.76     -6.04
    0   18   28     14.80      1.17
    2   18   28      0.23      2.66
    4   18   28     -1.84      3.81
    6   18   28     -2.09      5.19
    8   18   28     -3.84      3.83
   10   18   28      3.93      6.14
   12   18   28     -5.57      1.92
   14   18   28     -3.67     -0.90
    1   19   28     -0.20     10.91
    3   19   28      7.45      2.35
    5   19   28     -6.63     -3.65
    7   19   28     -3.54     -0.76
    9   19   28      0.43      0.10
   11   19   28     -3.65     -0.86
   13   19   28     -2.42      2.59
    0   20   28      5.35      1.99
    2   20   28     -5.51      5.24
    4   20   28    -14.76      6.10
    6   20   28     -3.84     -6.53
    8   20   28     -1.12     -4.68
   10   20   28     -1.42      0.25
    1   21   28     -4.31      3.03
    3   21   28     -0.53     -0.05
    5   21   28     -3.10      0.61
    7   21   28      2.31      0.14
    9   21   28     -4.26      1.04
    0   22   28      6.44      0.52
    2   22   28     -1.66      0.48
    4   22   28     -4.71     -0.07
    6   22   28      1.22     -1.45
    1   23   28      5.64      7.16
   10   13   29     27.86     -3.72
   12   13   29      0.91     -5.87
    9   14   29     28.01     -8.48
   11   14   29     19.59     -3.75
   13   14   29     -1.07      7.35
    8   15   29      4.77      1.44
   10   15   29     -6.75     10.28
   12   15   29     -4.00     -7.94
   14   15   29     -1.93      2.01
    5   16   29     13.88     14.65
    7   16   29     11.28     -8.88
    9   16   29     -4.08    -12.45
   11   16   29     -6.68      2.28
   13   16   29     -3.55      7.10
    0   17   29      8.13      0.42
    2   17   29     15.90      9.93
    4   17   29     -1.76      4.87
    6   17   29     -6.26      0.00
    8   17   29      4.21      2.96
   10   17   29     -2.07     16.71
   12   17   29     -3.94      2.86
    1   18   29     13.22     -1.62
    3   18   29     -8.61      6.89
    5   18   29     11.55      8.12
    7   18   29     12.80      1.36
    9   18   29     -7.78     -4.11
   11   18   29     -2.88     -2.73
    0   19   29    -11.08     -1.24
    2   19   29     -1.13      1.91
    4   19   29      0.47     -6.02
    6   19   29      4.53     -9.95
    8   19   29      4.47     -1.36
   10   19   29     -5.33     -3.55
    1   20   29     13.63     -3.52
    3   20   29     -0.56     -8.46
    5   20   29      8.30     -3.62
    7   20   29      7.58     16.59
    0   21   29     -1.63     -1.45
    2   21   29      6.78      0.15
    4   21   29      5.55      1.80
    6   21   29     -0.69      7.16
   11   11   30      8.54     -2.67
    8   12   30    -11.13      4.99
   10   12   30     -4.73      6.01
   12   12   30     -6.73     25.80
    7   13   30     -4.33      3.65
    9   13   30     12.86      1.11
   11   13   30     -5.90     -6.05
   13   13   30      8.48    -15.69
    4   14   30      2.55      4.73
    6   14   30      0.07      1.05
    8   14   30      8.83     -6.47
   10   14   30      6.85     -8.44
   12   14   30      7.00      8.83
   14   14   30      5.46     -7.51
    1   15   30     10.90      2.01
    3   15   30      0.22      1.95
    5   15   30     -8.34      7.71
    7   15   30     -9.15     10.38
    9   15   30     12.95     11.75
   11   15   30      0.60     -8.39
   13   15   30     -7.35    -11.87
    0   16   30     12.91     -1.72
    2   16   30     14.31     -2.61
    4   16   30      5.19     -8.13
    6   16   30     -9.81     -0.01
    8   16   30     -1.68      1.55
   10   16   30     -3.92      1.98
   12   16   30     -0.71      1.42
    1   17   30      9.51      9.60
    3   17   30      0.84      6.97
    5   17   30     -9.76      1.71
    7   17   30     -5.20     -1.00
    9   17   30      0.61     12.70
   11   17   30     -2.09     -1.09
    0   18   30      3.43     -0.91
    2   18   30      4.94     -1.59
    4   18   30     11.82     -2.46
    6   18   30      9.38     -2.90
    8   18   30      3.36     -4.66
    1   19   30     -0.33      1.62
    3   19   30     -1.76     -7.95
    5   19   30     -0.26     -3.36
    7   19   30     -0.15     -3.63
    0   20   30     -3.22      1.40
    2   20   30     -1.95     -0.33
    4   20   30     -2.94      2.74
    7   10   31     -5.87    -12.08
    9   10   31    -15.67     -6.81
    6   11   31     10.31      1.50
    8   11   31     -2.06    -12.06
   10   11   31     -3.02      3.39
    3   12   31     -7.56     13.31
    5   12   31     -2.53     -1.20
    7   12   31     -2.68    -14.54
    9   12   31     -4.43      5.40
   11   12   31      3.09      1.62
    0   13   31     20.48      0.26
    2   13   31     -1.69     -4.59
    4   13   31      2.52      2.51
    6   13   31     -2.75      3.04
    8   13   31     -2.94    -10.22
   10   13   31     13.58     -7.60
   12   13   31      0.77     -5.29
    1   14   31      7.15      6.41
    3   14   31      4.94      1.27
    5   14   31     -0.94     -6.20
    7   14   31      3.79     -6.99
    9   14   31      2.46      4.81
   11   14   31     -9.44     -0.22
    0   15   31      4.20     -0.05
    2   15   31      0.00    -12.31
    4   15   31      9.03      1.60
    6   15   31      2.06      6.43
    8   15   31      3.08     -1.28
   10   15   31     -4.13      3.18
    1   16   31     10.50      3.69
    3   16   31      2.67      7.91
    5   16   31     -6.87     -4.21
    7   16   31      2.18      1.74
    9   16   31     -0.47      9.31
    0   17   31     -1.50      1.36
    2   17   31     -3.33     -0.60
    4   17   31     -0.69      6.29
    6   17   31      2.86      5.78
    8   17   31     -7.59      3.85
    1   18   31      0.21      2.65
    3   18   31     -7.08      3.33
    5   18   31     -5.02     -9.04
    7    7   32    -11.86     33.13
    6    8   32    -21.82     15.72
    8    8   32      3.27      9.74
    3    9   32     -2.47      5.09
    5    9   32     -4.51     12.00
    7    9   32     -0.20      7.43
    9    9   32     -1.49    -13.38
    0   10   32     -7.93      0.25
    2   10   32     -4.05     -1.97
    4   10   32      1.12     -8.36
    6   10   32     -8.81      1.13
    8   10   32      1.34      7.79
   10   10   32      4.68     10.08
    1   11   32    -13.83      8.81
    3   11   32     -7.53     11.71
    5   11   32      2.62      1.33
    7   11   32     -0.24     -0.61
    9   11   32      2.21      0.43
   11   11   32      0.94     19.11
    0   12   32     -1.16     -2.79
    2   12   32      4.44     -0.89
    4   12   32      5.74     -8.06
    6   12   32     -6.42      1.09
    8   12   32      3.63     -0.17
   10   12   32     -1.02      7.29
   12   12   32      0.89      4.16
    1   13   32     -0.36     -6.06
    3   13   32      2.99     -6.10
    5   13   32     -1.97     -9.28
    7   13   32      0.89    -13.03
    9   13   32     -0.93      1.71
   11   13   32     -5.45      9.09
    0   14   32      1.23     -2.33
    2   14   32      9.93      0.08
    4   14   32      0.60      3.48
    6   14   32     -6.13     -6.86
    8   14   32      1.66     -1.10
   10   14   32     -4.42      3.30
    1   15   32      7.51     -0.11
    3   15   32      4.72     -4.61
    5   15   32      0.74     -3.01
    7   15   32      4.49      0.32
    0   16   32      2.70      0.84
    2   16   32      0.54      3.59
    4   16   32     -7.88     -3.99
    6   16   32     -9.47      3.92
    1   17   32     -1.19      3.84
    3    4   33      4.75     12.81
    0    5   33     -3.11      2.41
    2    5   33     10.70     11.83
    4    5   33     -7.41     -3.63
    1    6   33      9.71      5.84
    3    6   33     11.43      5.45
    5    6   33     -9.99     -9.10
    0    7   33    -14.09     -2.29
    2    7   33     -5.56      3.33
    4    7   33    -16.98     -7.40
    6    7   33    -12.71      4.61
    1    8   33    -12.22      0.60
    3    8   33     -1.06     -7.77
    5    8   33     -8.31     -0.90
    7    8   33      2.66     13.33
    0    9   33     -0.22     -0.01
    2    9   33      5.62      3.89
    4    9   33     -9.81      1.70
    6    9   33      3.49      3.67
    8    9   33     12.04      0.46
    1   10   33      1.03     -6.84
    3   10   33    -10.55    -10.42
    5   10   33    -13.23      1.64
    7   10   33      6.37      2.66
    9   10   33      5.22      0.57
    0   11   33    -11.18      0.36
    2   11   33     -0.52     -1.92
    4   11   33     -4.94      7.51
    6   11   33      1.73     -5.96
    8   11   33      1.35      2.56
   10   11   33      1.44      7.04
    1   12   33     -7.97     -3.19
    3   12   33     -5.27     -0.79
    5   12   33     -5.39      2.79
    7   12   33     -1.08     -6.18
    9   12   33     -2.65      6.29
    0   13   33     -7.98      1.65
    2   13   33     -3.07      6.82
    4   13   33     -3.28      2.82
    6   13   33     -2.68     -3.60
    1   14   33     -4.45      1.20
    3   14   33     -4.04     -2.49
    5   14   33      1.63      4.33
    0   15   33      0.04      1.74
    2   15   33      1.24      3.00
    0    0    0      0.00      0.00
# SQUEEZE RESULTS (Version = 120716)
# Note: Data are Listed for all Voids in the P1 Unit Cell
# i.e. Centre of Gravity, Solvent Accessible Volume,
# Recovered number of Electrons in the Void and
# Details about the Squeezed Material
loop_
  _platon_squeeze_void_nr
  _platon_squeeze_void_average_x
  _platon_squeeze_void_average_y
  _platon_squeeze_void_average_z
  _platon_squeeze_void_volume
  _platon_squeeze_void_count_electrons
  _platon_squeeze_void_content
   1 -0.012 -0.036 -0.017     14070      3080 ' '
# Missing Reflections Below sin(th)/lambda = 0.25
loop_
  _platon_missing_refln_index_h
  _platon_missing_refln_index_k
  _platon_missing_refln_index_l
  _platon_missing_refln_theta
    0    1    1     1.036
    0    0    2     1.465
    1    1    2     1.795
    0    2    2     2.072
    2    2    2     2.538
    2    3    3     3.438
    2    2    4     3.591
    3    3    4     4.275
    2    4    4     4.399
    4    4    4     5.082
    0    3    5     4.275
    2    3    5     4.520
    4    5    5     5.962
    0    0    6     4.399
    1    1    6     4.520
    0    2    6     4.638
    2    2    6     4.865
    3    3    6     5.391
    5    5    6     6.809
    6    6    6     7.635
    1    4    7     5.962
    8    8    8    10.204
    1    1   10     7.419
    0    0   12     8.825
    1    1   12     8.887
_platon_squeeze_void_probe_radius                  1.20
_platon_squeeze_details
)
TITL 2_a.res in I-43m
CELL   27.7960   27.7960   27.7960     90.00     90.00     90.00
SPGR I-43m
# Solvent Accessible Volume =     14070
# Electrons Found in S.A.V. =      2936
# Note: Atoms in Void as Cxxx and Qxxx all others
Q101 0.376 0.626 0.375 !       5.10 eA-3
C102 0.382 0.593 0.384 !       3.13 eA-3
C103 0.604 0.422 0.422 !       2.97 eA-3
C104 0.474 0.544 0.480 !       2.82 eA-3
Q105 0.354 0.580 0.352 !       2.77 eA-3
Q106 0.686 0.931 0.313 !       2.76 eA-3
Q107 0.103 0.150 0.104 !       2.76 eA-3
Q108 0.078 0.854 0.854 !       2.76 eA-3
Q109 0.354 0.352 0.581 !       2.75 eA-3
C110 0.046 0.078 0.078 !       2.57 eA-3
Q111 0.655 0.455 0.342 !       2.56 eA-3
C112 0.894 1.000 0.000 !       2.56 eA-3
Q113 0.852 0.849 0.399 !       2.50 eA-3
Q114 0.394 0.236 0.062 !       2.41 eA-3
C115 0.396 0.475 0.475 !       2.40 eA-3
C116 0.636 0.447 0.384 !       2.40 eA-3
C117 0.915 0.913 0.141 !       2.25 eA-3
C118 0.054 0.031 0.053 !       2.22 eA-3
C119 0.154 0.877 0.919 !       2.22 eA-3
Q120 0.702 0.375 0.375 !       2.19 eA-3
C121 0.053 0.105 0.105 !       2.12 eA-3
C122 0.033 1.000 0.078 !       2.12 eA-3
C123 0.538 0.111 0.461 !       2.12 eA-3
C124 0.148 0.041 0.041 !       2.08 eA-3
Q125 0.102 0.188 0.103 !       2.05 eA-3
C126 0.147 0.488 0.196 !       2.04 eA-3
C127 0.862 0.037 0.037 !       2.01 eA-3
C128 0.485 0.516 0.483 !       1.97 eA-3
C129 0.476 0.142 0.084 !       1.92 eA-3
Q130 0.917 0.888 0.214 !       1.90 eA-3
C131 0.340 0.522 0.422 !       1.90 eA-3
C132 0.053 1.000 0.000 !       1.90 eA-3
C133 0.161 0.478 0.153 !       1.89 eA-3
C134 0.069 0.007 0.070 !       1.83 eA-3
C135 0.954 0.877 0.073 !       1.81 eA-3
Q136 0.957 0.874 0.212 !       1.80 eA-3
C137 0.556 0.859 0.142 !       1.78 eA-3
C138 0.360 0.358 0.001 !       1.77 eA-3
C139 0.853 0.475 0.406 !       1.73 eA-3
C140 0.762 1.000 0.000 !       1.73 eA-3
C141 0.062 0.061 0.195 !       1.71 eA-3
C142 0.757 0.446-0.003 !       1.70 eA-3
Q143 0.079 0.080 0.345 !       1.70 eA-3
Q144 0.890 0.342 0.420 !       1.70 eA-3
C145 0.523 0.894 0.336 !       1.69 eA-3
Q146 0.078 0.367 0.056 !       1.68 eA-3
C147 0.986 0.987 0.307 !       1.66 eA-3
C148 0.671 0.576 0.587 !       1.65 eA-3
C149 0.171 0.076 0.087 !       1.65 eA-3
Q150 0.555 0.445 0.164 !       1.64 eA-3
Q151 0.907 0.908 0.376 !       1.64 eA-3
C152 0.298 0.984 0.382 !       1.63 eA-3
C153 0.088 0.140 0.399 !       1.63 eA-3
C154 0.015 0.141 0.381 !       1.58 eA-3
C155 0.874 0.767 0.483 !       1.58 eA-3
C156 0.038 0.936 0.040 !       1.57 eA-3
C157 1.000 0.344 0.000 !       1.55 eA-3
C158 0.600 0.322 0.010 !       1.53 eA-3
C159 0.491 0.834 0.166 !       1.51 eA-3
C160 0.601 0.787 0.022 !       1.51 eA-3
C161 0.554 0.423 0.109 !       1.51 eA-3
C162 0.485 0.604 0.866 !       1.48 eA-3
C163 0.985 0.104 0.366 !       1.48 eA-3
C164 0.370 0.102 0.983 !       1.48 eA-3
Q165 0.084 0.187 0.144 !       1.46 eA-3
C166 0.041 0.994 0.035 !       1.46 eA-3
Q167 0.406 0.111 0.177 !       1.45 eA-3
C168 0.007 0.130 0.393 !       1.45 eA-3
C169 0.547 0.454 0.406 !       1.43 eA-3
C170 0.945 0.618 0.122 !       1.42 eA-3
C171 0.195 0.059 0.026 !       1.40 eA-3
Q172 0.240 0.243 0.436 !       1.39 eA-3
C173 0.168 0.100 0.454 !       1.38 eA-3
C174 0.056 0.903 0.367 !       1.38 eA-3
Q175 0.453 0.197 0.374 !       1.38 eA-3
C176 0.882 0.477 0.407 !       1.38 eA-3
C177 0.633 0.056 0.429 !       1.38 eA-3
C178 0.938 0.913 0.204 !       1.36 eA-3
Q179 0.731 0.351 0.351 !       1.36 eA-3
C180 0.975 0.446 0.337 !       1.36 eA-3
C181 0.232 0.852 0.491 !       1.36 eA-3
C182 0.092 0.593 0.406 !       1.35 eA-3
Q183 0.198 0.202 0.398 !       1.34 eA-3
Q184 0.511 0.339 0.339 !       1.34 eA-3
C185 0.088 0.634 0.438 !       1.34 eA-3
C186 0.460 0.483 0.483 !       1.33 eA-3
C187 0.436 0.329 0.592 !       1.33 eA-3
C188 0.069 0.073 0.225 !       1.32 eA-3
C189 0.700 0.307 0.061 !       1.32 eA-3
C190 0.162 0.224 0.475 !       1.31 eA-3
C191 0.987 0.378 0.122 !       1.30 eA-3
C192 0.487 0.878 0.622 !       1.30 eA-3
C193 0.828 0.023 0.438 !       1.30 eA-3
C194 1.000 0.076 0.428 !       1.30 eA-3
C195 0.475 0.709 0.477 !       1.29 eA-3
C196 0.140 0.031 0.139 !       1.29 eA-3
C197 0.869 0.475 0.476 !       1.28 eA-3
C198 0.434 0.158 0.078 !       1.27 eA-3
C199 0.500 0.352 0.086 !       1.27 eA-3
)
;
_shelx_fab_checksum              34352
loop_
_space_group_symop_operation_xyz
'x, y, z'
'-x, -y, z'
'-x, y, -z'
'x, -y, -z'
'z, x, y'
'z, -x, -y'
'-z, -x, y'
'-z, x, -y'
'y, z, x'
'-y, z, -x'
'y, -z, -x'
'-y, -z, x'
'y, x, z'
'-y, -x, z'
'y, -x, -z'
'-y, x, -z'
'x, z, y'
'-x, z, -y'
'-x, -z, y'
'x, -z, -y'
'z, y, x'
'z, -y, -x'
'-z, y, -x'
'-z, -y, x'
'x+1/2, y+1/2, z+1/2'
'-x+1/2, -y+1/2, z+1/2'
'-x+1/2, y+1/2, -z+1/2'
'x+1/2, -y+1/2, -z+1/2'
'z+1/2, x+1/2, y+1/2'
'z+1/2, -x+1/2, -y+1/2'
'-z+1/2, -x+1/2, y+1/2'
'-z+1/2, x+1/2, -y+1/2'
'y+1/2, z+1/2, x+1/2'
'-y+1/2, z+1/2, -x+1/2'
'y+1/2, -z+1/2, -x+1/2'
'-y+1/2, -z+1/2, x+1/2'
'y+1/2, x+1/2, z+1/2'
'-y+1/2, -x+1/2, z+1/2'
'y+1/2, -x+1/2, -z+1/2'
'-y+1/2, x+1/2, -z+1/2'
'x+1/2, z+1/2, y+1/2'
'-x+1/2, z+1/2, -y+1/2'
'-x+1/2, -z+1/2, y+1/2'
'x+1/2, -z+1/2, -y+1/2'
'z+1/2, y+1/2, x+1/2'
'z+1/2, -y+1/2, -x+1/2'
'-z+1/2, y+1/2, -x+1/2'
'-z+1/2, -y+1/2, x+1/2'
loop_
_atom_site_label
_atom_site_type_symbol
_atom_site_fract_x
_atom_site_fract_y
_atom_site_fract_z
_atom_site_U_iso_or_equiv
_atom_site_adp_type
_atom_site_occupancy
_atom_site_site_symmetry_order
_atom_site_calc_flag
_atom_site_refinement_flags_posn
_atom_site_refinement_flags_adp
_atom_site_refinement_flags_occupancy
_atom_site_disorder_assembly
_atom_site_disorder_group
V1 V 0.27138(2) 0.64988(2) 0.18682(2) 0.11222(3) Uani 1 1 d . U . . .
O1 O 0.27631(2) 0.58352(2) 0.22050(2) 0.10917(8) Uani 1 1 d . U . . .
O2 O 0.34329(2) 0.65671(2) 0.19380(2) 0.11462(11) Uani 1 2 d DS TU P . .
O3 O 0.26544(2) 0.62838(2) 0.13470(2) 0.14188(16) Uani 1 1 d . U . . .
O4 O 0.28145(2) 0.71855(2) 0.17408(2) 0.11835(12) Uani 1 2 d S TU P . .
O5 O 0.20208(2) 0.65318(2) 0.20208(2) 0.11785(11) Uani 1 2 d S TU P . .
O6 O 0.26324(2) 0.67462(2) 0.26324(2) 0.10866(10) Uani 1 2 d S TU P . .
O7 O 0.33222(2) 0.66778(2) 0.33222(2) 0.1421(3) Uani 1 6 d S TU P . .
N007 N 0.31436(2) 0.37342(2) 0.37342(2) 0.06766(14) Uani 1 2 d S T P . .
C1 C 0.33497(2) 0.39313(3) 0.33497(2) 0.09183(13) Uani 1 2 d S TU P . .
C2 C 0.31387(2) 0.43766(2) 0.31387(2) 0.09678(12) Uani 1 2 d DS TU P . .
C3 C 0.27361(2) 0.45820(2) 0.33473(2) 0.09888(10) Uani 1 1 d D U . . .
H3 H 0.26428(7) 0.44881(8) 0.35204(14) 0.119 Uiso 1 1 calc R U . . .
C4 C 0.25475(2) 0.50021(2) 0.31595(2) 0.09983(10) Uani 1 1 d D U . . .
H4 H 0.227858 0.514614 0.329690 0.120 Uiso 1 1 calc R U . . .
C5 C 0.27667(2) 0.52000(2) 0.27667(2) 0.09890(11) Uani 1 2 d DS TU P . .
C6 C 0.26053(2) 0.56531(2) 0.26053(2) 0.10809(10) Uani 1 2 d DS TU P . .
C7 C 0.16392(3) 0.64559(4) 0.16392(3) 0.1627(3) Uani 1 2 d S TU P . .
H7A H 0.174251 0.620935 0.142052 0.244 Uiso 0.5 1 calc R U P A -1
H7B H 0.158976 0.675038 0.146566 0.244 Uiso 0.5 1 calc R U P A -1
H7C H 0.134350 0.635987 0.178959 0.244 Uiso 0.5 1 calc R U P A -1
C8 C 0.24906(2) 0.75094(2) 0.14557(3) 0.1412(3) Uani 1 2 d S TU P . .
H8A H 0.262074 0.755229 0.113868 0.212 Uiso 0.5 1 calc R U P B -1
H8B H 0.246704 0.781602 0.161292 0.212 Uiso 0.5 1 calc R U P B -1
H8C H 0.217665 0.736726 0.143301 0.212 Uiso 0.5 1 calc R U P B -1
C9 C 0.37888(2) 0.62112(2) 0.20073(4) 0.1343(3) Uani 1 2 d DS TU P . .
H9A H 0.402439 0.623347 0.175572 0.202 Uiso 0.5 1 calc R U P C -1
H9B H 0.364199 0.589867 0.200018 0.202 Uiso 0.5 1 calc R U P C -1
H9C H 0.394195 0.625953 0.231304 0.202 Uiso 0.5 1 calc R U P C -1
V3 V 0.29802(2) 0.70198(2) 0.29802(2) 0.15267(14) Uani 0.6667 6 d S TU P . 2
V2 V 0.27058(2) 0.72942(2) 0.27058(2) 0.1653(2) Uani 0.3334 6 d S TU P . 1
loop_
_atom_site_aniso_label
_atom_site_aniso_U_11
_atom_site_aniso_U_22
_atom_site_aniso_U_33
_atom_site_aniso_U_23
_atom_site_aniso_U_13
_atom_site_aniso_U_12
V1 0.12252(6) 0.12240(6) 0.09173(4) 0.02486(4) -0.04566(4) 0.02750(5)
O1 0.10920(14) 0.11853(15) 0.09977(14) 0.02539(13) -0.03850(13) 0.03163(13)
O2 0.12012(14) 0.12012(14) 0.1036(2) 0.03301(12) -0.03301(12) 0.03667(19)
O3 0.1455(3) 0.1575(3) 0.1226(2) 0.0312(2) -0.0245(2) 0.0290(3)
O4 0.12181(14) 0.12181(14) 0.1114(2) 0.03385(12) -0.03385(12) 0.04560(19)
O5 0.11598(13) 0.12159(19) 0.11598(13) 0.03106(12) -0.04388(17) 0.03106(12)
O6 0.10500(12) 0.11598(18) 0.10500(12) 0.03061(11) -0.03778(16) 0.03061(11)
O7 0.1421(3) 0.1421(3) 0.1421(3) 0.0160(3) -0.0160(3) 0.0160(3)
N007 0.0819(3) 0.06057(15) 0.06057(15) -0.0105(2) -0.00919(16) -0.00919(16)
C1 0.08717(15) 0.1011(2) 0.08717(15) 0.01023(15) -0.0310(2) 0.01023(15)
C2 0.09539(14) 0.0996(2) 0.09539(14) 0.01846(14) -0.0285(2) 0.01846(14)
C3 0.09445(18) 0.10917(18) 0.09303(18) 0.02283(17) -0.02551(17) 0.01462(17)
C4 0.09860(17) 0.10684(17) 0.09404(16) 0.02288(16) -0.02829(16) 0.02162(16)
C5 0.09618(13) 0.10433(19) 0.09618(13) 0.02640(12) -0.03123(18) 0.02640(12)
C6 0.10585(13) 0.11256(18) 0.10585(13) 0.02442(12) -0.02908(18) 0.02442(12)
C7 0.1603(4) 0.1675(6) 0.1603(4) 0.0005(4) -0.0569(5) 0.0005(4)
C8 0.1446(3) 0.1446(3) 0.1344(5) 0.0349(3) -0.0349(3) 0.0519(4)
C9 0.1363(4) 0.1363(4) 0.1303(5) 0.0143(3) -0.0143(3) 0.0089(5)
V3 0.15267(14) 0.15267(14) 0.15267(14) 0.01036(11) -0.01036(11) 0.01036(11)
V2 0.1653(2) 0.1653(2) 0.1653(2) 0.00546(13) -0.00546(13) 0.00546(13)
loop_
_atom_type_symbol
_atom_type_description
_atom_type_scat_dispersion_real
_atom_type_scat_dispersion_imag
_atom_type_scat_source
C C 0.0033 0.0016 'International Tables Vol C Tables 4.2.6.8 and 6.1.1.4'
H H 0.0000 0.0000 'International Tables Vol C Tables 4.2.6.8 and 6.1.1.4'
N N 0.0061 0.0033 'International Tables Vol C Tables 4.2.6.8 and 6.1.1.4'
O O 0.0106 0.0060 'International Tables Vol C Tables 4.2.6.8 and 6.1.1.4'
V V 0.3005 0.5294 'International Tables Vol C Tables 4.2.6.8 and 6.1.1.4'
loop_
_geom_angle_atom_site_label_1
_geom_angle_atom_site_label_2
_geom_angle_atom_site_label_3
_geom_angle
_geom_angle_site_symmetry_1
_geom_angle_site_symmetry_3
O3 V1 O4 102.59(2) . .
O3 V1 O5 96.48(2) . .
O4 V1 O5 97.63(2) . .
O3 V1 O2 103.18(2) . .
O4 V1 O2 77.547(15) . .
O5 V1 O2 160.329(19) . .
O3 V1 O1 94.85(2) . .
O4 V1 O1 159.718(17) . .
O5 V1 O1 90.505(18) . .
O2 V1 O1 88.556(15) . .
O3 V1 O6 167.38(2) . .
O4 V1 O6 83.52(2) . .
O5 V1 O6 71.583(15) . .
O2 V1 O6 88.855(17) . .
O1 V1 O6 81.483(16) . .
O3 V1 V1 110.015(18) . 14_665
O4 V1 V1 37.904(11) . 14_665
O5 V1 V1 131.068(15) . 14_665
O2 V1 V1 39.895(10) . 14_665
O1 V1 V1 125.622(10) . 14_665
O6 V1 V1 81.640(10) . 14_665
C6 O1 V1 135.34(3) . .
C9 O2 V1 129.890(10) . .
C9 O2 V1 129.890(10) . 14_665
V1 O2 V1 100.211(19) . 14_665
C8 O4 V1 126.438(15) . .
C8 O4 V1 126.436(15) . 14_665
V1 O4 V1 104.19(2) . 14_665
C7 O5 V1 121.750(13) . 21
C7 O5 V1 121.749(14) . .
V1 O5 V1 114.64(2) 21 .
V2 O6 V1 114.35(3) . 21
V2 O6 V1 114.35(3) . .
V3 O6 V1 132.188(9) . .
V1 O6 V1 95.563(18) 21 .
C1 N007 C1 118.43(7) 5 .
N007 C1 N007 121.47(7) 9 .
N007 C1 C2 119.26(3) 9 .
N007 C1 C2 119.26(3) . .
C3 C2 C3 120.51(6) 21 .
C3 C2 C1 119.75(3) 21 .
C3 C2 C1 119.75(3) . .
C4 C3 C2 119.80(4) . .
C5 C4 C3 118.22(4) . .
C4 C5 C4 123.43(5) 21 .
C4 C5 C6 118.16(3) 21 .
C4 C5 C6 118.17(3) . .
O1 C6 O1 115.26(6) 21 .
O1 C6 C5 120.88(3) 21 .
O1 C6 C5 120.88(3) . .
O6 V3 O6 102.64(3) . 12_665
O6 V3 O6 102.64(3) . 6_566
O6 V3 O6 102.64(3) 12_665 6_566
O6 V3 O7 115.65(3) . .
O6 V3 O7 115.65(3) 12_665 .
O6 V3 O7 115.65(3) 6_566 .
O6 V2 O6 103.97(5) 12_665 6_566
O6 V2 O6 103.96(5) 12_665 .
O6 V2 O6 103.96(5) 6_566 .
loop_
_geom_bond_atom_site_label_1
_geom_bond_atom_site_label_2
_geom_bond_distance
_geom_bond_site_symmetry_2
V1 O3 1.5758(5) .
V1 O4 1.9614(4) .
V1 O5 1.9746(4) .
V1 O2 2.0172(4) .
V1 O1 2.0730(4) .
V1 O6 2.2442(4) .
V1 V1 3.0953(5) 14_665
O1 C6 1.2988(5) .
O2 C9 1.4122(8) .
O4 C8 1.4998(10) .
O5 C7 1.5148(11) .
O6 V2 1.5503(7) .
O6 V3 1.5645(6) .
O7 V3 1.6465(13) .
N007 C1 1.3306(5) 5
N007 C1 1.3306(5) .
C1 C2 1.4900(10) .
C2 C3 1.3836(5) 21
C2 C3 1.3837(5) .
C3 C4 1.3823(6) .
C4 C5 1.3660(5) .
C5 C6 1.4102(9) .
