#------------------------------------------------------------------------------
#$Date: 2019-11-17 10:50:15 +0200 (Sun, 17 Nov 2019) $
#$Revision: 229434 $
#$URL: file:///home/coder/svn-repositories/cod/cif/7/04/76/7047680.cif $
#------------------------------------------------------------------------------
#
# This file is available in the Crystallography Open Database (COD),
# http://www.crystallography.net/
#
# All data on this site have been placed in the public domain by the
# contributors.
#
data_7047680
loop_
_publ_author_name
'Liu, Yi'
'Zhao, Yue'
'Liu, Xiao-Hui'
'Kang, Yan-Shang'
'Wang, Peng'
'Sun, Wei-Yin'
_publ_section_title
;
 Novel metal-organic frameworks with high stability for selectively
 sensing nitroaromatics.
;
_journal_issue                   43
_journal_name_full
'Dalton transactions (Cambridge, England : 2003)'
_journal_page_first              15399
_journal_page_last               15404
_journal_paper_doi               10.1039/c8dt03551b
_journal_volume                  47
_journal_year                    2018
_chemical_formula_moiety
'C35 H24 N2 O11 Co2, 2[C3H7NO],2[CH4O], 1[H2O]'
_chemical_formula_sum            'C43 H48 Co2 N4 O16'
_chemical_formula_weight         994.71
_space_group_crystal_system      monoclinic
_space_group_IT_number           14
_space_group_name_Hall           '-P 2ybc'
_space_group_name_H-M_alt        'P 1 21/c 1'
_symmetry_space_group_name_Hall  '-P 2ybc'
_symmetry_space_group_name_H-M   'P 1 21/c 1'
_atom_sites_solution_hydrogens   geom
_audit_creation_method           SHELXL-2016/6
_audit_update_record
;
2018-09-21 deposited with the CCDC.
2018-10-01 downloaded from the CCDC.
;
_cell_angle_alpha                90
_cell_angle_beta                 100.1780(10)
_cell_angle_gamma                90
_cell_formula_units_Z            4
_cell_length_a                   20.2688(10)
_cell_length_b                   16.1961(7)
_cell_length_c                   14.5060(6)
_cell_measurement_reflns_used    9926
_cell_measurement_temperature    123(2)
_cell_measurement_theta_max      26.52
_cell_measurement_theta_min      2.40
_cell_volume                     4687.0(4)
_computing_cell_refinement       'Bruker SMART'
_computing_data_collection       'Bruker SMART'
_computing_data_reduction        'Bruker SAINT'
_computing_molecular_graphics    'Bruker SHELXTL'
_computing_publication_material  'Bruker SHELXTL'
_computing_structure_refinement  'SHELXL-2016/6 (Sheldrick, 2016)'
_computing_structure_solution    'SHELXT 2014/4 (Sheldrick, 2014)'
_diffrn_ambient_temperature      123(2)
_diffrn_measured_fraction_theta_full 0.997
_diffrn_measured_fraction_theta_max 0.997
_diffrn_measurement_device_type  'CCD area detector'
_diffrn_measurement_method       'phi and omega scans'
_diffrn_radiation_type           MoK\a
_diffrn_radiation_wavelength     0.71073
_diffrn_reflns_av_R_equivalents  0.0240
_diffrn_reflns_av_unetI/netI     0.0261
_diffrn_reflns_Laue_measured_fraction_full 0.997
_diffrn_reflns_Laue_measured_fraction_max 0.997
_diffrn_reflns_limit_h_max       20
_diffrn_reflns_limit_h_min       -24
_diffrn_reflns_limit_k_max       17
_diffrn_reflns_limit_k_min       -19
_diffrn_reflns_limit_l_max       17
_diffrn_reflns_limit_l_min       -17
_diffrn_reflns_number            27080
_diffrn_reflns_point_group_measured_fraction_full 0.997
_diffrn_reflns_point_group_measured_fraction_max 0.997
_diffrn_reflns_theta_full        25.010
_diffrn_reflns_theta_max         25.010
_diffrn_reflns_theta_min         2.035
_diffrn_source                   'fine-focus sealed tube'
_exptl_absorpt_coefficient_mu    0.780
_exptl_absorpt_correction_T_max  0.876
_exptl_absorpt_correction_T_min  0.842
_exptl_absorpt_correction_type   multi-scan
_exptl_absorpt_process_details   SADABS
_exptl_crystal_colour            blue
_exptl_crystal_density_diffrn    1.410
_exptl_crystal_description       block
_exptl_crystal_F_000             2064
_exptl_crystal_size_max          0.220
_exptl_crystal_size_mid          0.190
_exptl_crystal_size_min          0.170
_refine_diff_density_max         0.611
_refine_diff_density_min         -0.403
_refine_diff_density_rms         0.060
_refine_ls_extinction_method     none
_refine_ls_goodness_of_fit_ref   1.081
_refine_ls_hydrogen_treatment    constr
_refine_ls_matrix_type           full
_refine_ls_number_parameters     451
_refine_ls_number_reflns         8235
_refine_ls_number_restraints     0
_refine_ls_restrained_S_all      1.081
_refine_ls_R_factor_all          0.0478
_refine_ls_R_factor_gt           0.0368
_refine_ls_shift/su_max          0.001
_refine_ls_shift/su_mean         0.000
_refine_ls_structure_factor_coef Fsqd
_refine_ls_weighting_details
'w=1/[\s^2^(Fo^2^)+(0.0600P)^2^+2.7694P] where P=(Fo^2^+2Fc^2^)/3'
_refine_ls_weighting_scheme      calc
_refine_ls_wR_factor_gt          0.1075
_refine_ls_wR_factor_ref         0.1155
_reflns_Friedel_coverage         0.000
_reflns_number_gt                6474
_reflns_number_total             8235
_reflns_threshold_expression     'I > 2\s(I)'
_cod_data_source_file            c8dt03551b2.cif
_cod_data_source_block           2
_cod_depositor_comments
'Adding full bibliography for 7047679--7047680.cif.'
_cod_database_code               7047680
_shelx_shelxl_version_number     2016/6
_shelx_space_group_comment
;
The symmetry employed for this shelxl refinement is uniquely defined
by the following loop, which should always be used as a source of
symmetry information in preference to the above space-group names.
They are only intended as comments.
;
_shelx_estimated_absorpt_t_min   0.847
_shelx_estimated_absorpt_t_max   0.879
_shelx_res_file
;
TITL 2 in P2(1)/c
    2.res
    created by SHELXL-2016/6 at 21:18:09 on 20-Sep-2018
CELL 0.71073  20.2688  16.1961  14.5060  90.000 100.178  90.000
ZERR   4.00   0.0010   0.0007   0.0006   0.000   0.001   0.000
LATT 1
SYMM -X, 0.5+Y, 0.5-Z
SFAC C  H  N  O  Co
UNIT 172 192 16 64 8
LIST 6 ! automatically inserted. Change 6 to 4 for CHECKCIF!!
omit 2 2 0
omit 2 2 2
omit 1 2 5
omit 4 3 0
omit -2 6 1
omit -2 0 2
OMIT  -3.00  50.02
L.S. 20
ACTA
BOND $h
FMAP 2
PLAN 20
abin
HTAB C18 O9
HTAB C17 O5
HTAB C12 O10
HTAB C11 O1_$8
HTAB C8 O6_$7
HTAB C18 O9
HTAB C17 O5
HTAB C12 O10
HTAB C11 O1_$8
EQIV $8 -x+1, y+1/2, -z+3/2
HTAB C8 O6_$7
EQIV $7 -x+1, -y+1, -z+2
size .22 .19 .17
htab
conf
HTAB C8 O6_$7
HTAB C11 O1_$8
HTAB C12 O10
HTAB C17 O5
HTAB C18 O9
TEMP -150
WGHT    0.060000    2.769400
FVAR       0.10945
MOLE 1
CO1   5    0.298829    0.499140    0.912055    11.00000    0.00820    0.01145 =
         0.01440   -0.00016    0.00244    0.00012
CO2   5    0.150755    0.501841    0.870739    11.00000    0.00832    0.01069 =
         0.01436    0.00043    0.00206   -0.00009
C1    1    0.626955    0.344714    0.641835    11.00000    0.03101    0.04235 =
         0.03426   -0.00472    0.00487    0.00299
C2    1    0.638465    0.407000    0.710078    11.00000    0.02532    0.04564 =
         0.03472   -0.00224    0.00755    0.00393
C3    1    0.701803    0.439630    0.739058    11.00000    0.02355    0.04303 =
         0.03854   -0.00802    0.00591    0.00055
AFIX  43
H3    2    0.708959    0.482380    0.784573    11.00000   -1.20000
AFIX   0
C4    1    0.754489    0.408895    0.700579    11.00000    0.02161    0.05785 =
         0.04069   -0.00535    0.00858    0.00160
C5    1    0.744000    0.348012    0.631739    11.00000    0.03376    0.06880 =
         0.05379   -0.01963    0.01654    0.00545
AFIX  43
H5    2    0.780287    0.328445    0.604350    11.00000   -1.20000
AFIX   0
C6    1    0.681109    0.316728    0.604000    11.00000    0.03510    0.05606 =
         0.04592   -0.01332    0.00750    0.00245
AFIX  43
H6    2    0.674238    0.274711    0.557595    11.00000   -1.20000
AFIX   0
C7    1    0.560481    0.308419    0.613347    11.00000    0.03931    0.04735 =
         0.04680   -0.00884    0.00398   -0.00179
AFIX  43
H7    2    0.525456    0.326538    0.644189    11.00000   -1.20000
AFIX   0
C8    1    0.591273    0.486343    0.823987    11.00000    0.02030    0.05293 =
         0.03791   -0.01579    0.00415   -0.00175
AFIX  23
H8A   2    0.604295    0.542289    0.806340    11.00000   -1.20000
H8B   2    0.626161    0.465273    0.875053    11.00000   -1.20000
AFIX   0
C9    1    0.524290    0.488452    0.854398    11.00000    0.01867    0.04036 =
         0.03123   -0.00536    0.00214    0.00104
C10   1    0.498621    0.560834    0.884313    11.00000    0.02436    0.03180 =
         0.04296   -0.00338    0.00888   -0.00372
AFIX  43
H10   2    0.524034    0.610395    0.888273    11.00000   -1.20000
AFIX   0
C11   1    0.435537    0.560318    0.908415    11.00000    0.02674    0.02404 =
         0.04037   -0.00337    0.00806   -0.00042
AFIX  43
H11   2    0.418364    0.610458    0.928612    11.00000   -1.20000
AFIX   0
C12   1    0.423812    0.421635    0.878592    11.00000    0.02526    0.02726 =
         0.05378   -0.00581    0.00701    0.00015
AFIX  43
H12   2    0.398096    0.372473    0.877274    11.00000   -1.20000
AFIX   0
C13   1    0.486270    0.417570    0.853871    11.00000    0.02433    0.03421 =
         0.06048   -0.01323    0.01033    0.00447
AFIX  43
H13   2    0.503163    0.366229    0.836516    11.00000   -1.20000
AFIX   0
C14   1    0.834581    0.493516    0.800099    11.00000    0.02429    0.05824 =
         0.04652   -0.00913    0.01020   -0.00107
AFIX  23
H14A  2    0.816854    0.474441    0.855803    11.00000   -1.20000
H14B  2    0.814611    0.547950    0.780686    11.00000   -1.20000
AFIX   0
C15   1   -0.090209    0.499358    0.821572    11.00000    0.02186    0.05063 =
         0.04002   -0.00173    0.00843   -0.00043
C16   1   -0.056414    0.558923    0.784736    11.00000    0.02934    0.08981 =
         0.13662    0.05649    0.00381    0.00730
AFIX  43
H16   2   -0.080111    0.600386    0.745965    11.00000   -1.20000
AFIX   0
C17   1    0.013522    0.559508    0.803729    11.00000    0.02745    0.07874 =
         0.13330    0.05997    0.01638    0.00211
AFIX  43
H17   2    0.036262    0.602253    0.777199    11.00000   -1.20000
AFIX   0
C18   1    0.015367    0.451209    0.897704    11.00000    0.02627    0.09711 =
         0.09267    0.06196    0.00146   -0.00412
AFIX  43
H18   2    0.039851    0.413389    0.940790    11.00000   -1.20000
AFIX   0
C19   1   -0.053299    0.446873    0.882893    11.00000    0.02682    0.11341 =
         0.11147    0.06489    0.00543   -0.01481
AFIX  43
H19   2   -0.074928    0.407196    0.915522    11.00000   -1.20000
AFIX   0
C20   1    0.224257    0.672215    0.688181    11.00000    0.02958    0.02959 =
         0.03084    0.00481    0.00601   -0.00010
C21   1    0.286153    0.703137    0.678739    11.00000    0.02364    0.03410 =
         0.03171    0.00622    0.00243    0.00147
AFIX  43
H21   2    0.325638    0.679798    0.714202    11.00000   -1.20000
AFIX   0
C22   1    0.291217    0.767731    0.618177    11.00000    0.02311    0.03371 =
         0.03386    0.00300    0.00675   -0.00364
AFIX  43
H22   2    0.334027    0.788681    0.612150    11.00000   -1.20000
AFIX   0
C23   1    0.233690    0.801965    0.566166    11.00000    0.03080    0.02633 =
         0.02656    0.00262    0.00685   -0.00113
C24   1    0.171466    0.769941    0.574288    11.00000    0.02578    0.03751 =
         0.03766    0.01115    0.00212    0.00189
AFIX  43
H24   2    0.131990    0.792470    0.537919    11.00000   -1.20000
AFIX   0
C25   1    0.166712    0.705265    0.635216    11.00000    0.02368    0.03666 =
         0.04159    0.01297    0.00357   -0.00320
AFIX  43
H25   2    0.124032    0.683568    0.640700    11.00000   -1.20000
AFIX   0
C26   1    0.219336    0.604641    0.757427    11.00000    0.02876    0.02793 =
         0.02608    0.00322    0.00450    0.00010
C27   1    0.238019    0.625568    1.003529    11.00000    0.03270    0.02565 =
         0.02831   -0.00017    0.00630    0.00016
C28   1    0.224184    0.328335    1.093616    11.00000    0.02665    0.02680 =
         0.02885    0.00348    0.00171   -0.00332
C29   1    0.163965    0.290957    1.101398    11.00000    0.02653    0.03959 =
         0.04502    0.01707   -0.00167   -0.00064
AFIX  43
H29   2    0.123488    0.310272    1.064477    11.00000   -1.20000
AFIX   0
C30   1    0.162268    0.274243    0.662467    11.00000    0.02310    0.04079 =
         0.04812   -0.01715    0.00269    0.00517
AFIX  43
H30   2    0.120678    0.299384    0.667346    11.00000   -1.20000
AFIX   0
C31   1    0.220787    0.302969    0.716405    11.00000    0.02684    0.02796 =
         0.03434   -0.00662    0.00280    0.00086
C32   1    0.280818    0.265445    0.709490    11.00000    0.02523    0.04550 =
         0.04995   -0.02275   -0.00397    0.00199
AFIX  43
H32   2    0.321151    0.284539    0.746974    11.00000   -1.20000
AFIX   0
C33   1    0.282781    0.299955    1.148237    11.00000    0.02547    0.04113 =
         0.05212    0.01713    0.00086   -0.00717
AFIX  43
H33   2    0.324375    0.325282    1.143773    11.00000   -1.20000
AFIX   0
C34   1    0.225777    0.397023    1.025363    11.00000    0.02925    0.02817 =
         0.02724    0.00213    0.00314   -0.00355
C35   1    0.218797    0.375341    0.780515    11.00000    0.02388    0.02915 =
         0.02852   -0.00315    0.00211   -0.00015
N1    3    0.397828    0.492596    0.904542    11.00000    0.01793    0.02840 =
         0.02768   -0.00206    0.00256   -0.00013
N2    3    0.049453    0.504258    0.856178    11.00000    0.02086    0.03066 =
         0.03476    0.00358    0.00506    0.00011
O1    4    0.547242    0.255773    0.551756    11.00000    0.05525    0.05007 =
         0.06184   -0.01473   -0.00073   -0.00407
O2    4    0.583398    0.432008    0.744795    11.00000    0.01958    0.07145 =
         0.05101   -0.02685    0.00902   -0.00346
O3    4    0.819324    0.434719    0.724940    11.00000    0.02201    0.07734 =
         0.05485   -0.02062    0.01086   -0.00122
O4    4    0.272613    0.572387    0.797406    11.00000    0.03249    0.04195 =
         0.03863    0.01582    0.00820    0.00829
O5    4    0.161383    0.585200    0.770974    11.00000    0.02962    0.04245 =
         0.04412    0.01585    0.00620   -0.00623
O6    4    0.295449    0.601825    0.992170    11.00000    0.03411    0.03278 =
         0.04223   -0.00985    0.00957    0.00366
O7    4    0.183340    0.592321    0.967160    11.00000    0.03686    0.03559 =
         0.04382   -0.01484    0.00711   -0.00558
O8    4    0.281690    0.429136    1.021487    11.00000    0.03222    0.04064 =
         0.03884    0.01356   -0.00041   -0.00994
O9    4    0.170865    0.418051    0.977092    11.00000    0.03236    0.03803 =
         0.03857    0.01552    0.00227   -0.00015
O10   4    0.273488    0.397693    0.829203    11.00000    0.02729    0.03679 =
         0.05101   -0.01736    0.00163   -0.00187
O11   4    0.162949    0.408338    0.781769    11.00000    0.02657    0.03855 =
         0.04573   -0.01579    0.00085    0.00687
HKLF 4




REM  2 in P2(1)/c
REM wR2 = 0.1155, GooF = S = 1.081, Restrained GooF = 1.081 for all data
REM R1 = 0.0368 for 6474 Fo > 4sig(Fo) and 0.0478 for all 8235 data
REM 451 parameters refined using 0 restraints

END

WGHT      0.0593      2.8380

REM Instructions for potential hydrogen bonds
HTAB C8 O6_$7
HTAB C11 O1_$8
HTAB C12 O10
HTAB C17 O5
HTAB C18 O9

REM Highest difference peak  0.611,  deepest hole -0.403,  1-sigma level  0.060
Q1    1   0.0165  0.5027  0.7619  11.00000  0.05    0.51
Q2    1  -0.0547  0.5026  0.7418  11.00000  0.05    0.50
Q3    1   0.5798  0.5721  0.7564  11.00000  0.05    0.28
Q4    1   0.8189  0.5610  0.7245  11.00000  0.05    0.27
Q5    1  -0.0502  0.4358  0.8111  11.00000  0.05    0.23
Q6    1   0.7029  0.5468  0.7368  11.00000  0.05    0.23
Q7    1   0.3384  0.2978  1.1108  11.00000  0.05    0.22
Q8    1   0.6085  0.6125  0.9183  11.00000  0.05    0.22
Q9    1   0.0137  0.5205  0.9136  11.00000  0.05    0.21
Q10   1   0.2741  0.4389  0.7785  11.00000  0.05    0.21
Q11   1   0.5269  0.6051  0.9374  11.00000  0.05    0.20
Q12   1   0.0210  0.4284  0.8223  11.00000  0.05    0.20
Q13   1   0.2809  0.3786  0.9785  11.00000  0.05    0.19
Q14   1   0.5716  0.6213  0.9780  11.00000  0.05    0.19
Q15   1   0.0904  0.4873  0.7832  11.00000  0.05    0.19
Q16   1   0.1964  0.3472  0.6452  11.00000  0.05    0.19
Q17   1   0.0201  0.5226  0.9802  11.00000  0.05    0.19
Q18   1   0.3337  0.8693  0.6512  11.00000  0.05    0.19
Q19   1   0.6616  0.3651  0.5459  11.00000  0.05    0.19
Q20   1   0.6432  0.3786  0.5763  11.00000  0.05    0.18
;
_shelx_res_checksum              72756
_shelx_fab_file
;
    0    0    2    132.16      0.00
    0    0    4     -3.75      0.00
    0    0    6     13.32      0.00
    0    0    8     13.75      0.00
    0    0   10     -1.87      0.00
    0    0   12      3.74      0.00
    0    0   14      4.12      0.00
    0    0   16     -0.79      0.00
    0    1    2     43.39      0.00
    0    1    3     10.77      0.00
    0    1    4    -11.94      0.00
    0    1    5     -2.29      0.00
    0    1    6      6.41      0.00
    0    1    7      4.85      0.00
    0    1    8     -4.99      0.00
    0    1    9      4.11      0.00
    0    1   10      2.13      0.00
    0    1   11     -0.33      0.00
    0    1   12     -4.42      0.00
    0    1   13      2.45      0.00
    0    1   14     -0.21      0.00
    0    1   15      0.71      0.00
    0    1   16     -1.75      0.00
    0    1   17     -0.31      0.00
    0    2    1     44.80      0.00
    0    2    2     64.80      0.00
    0    2    3     20.88      0.00
    0    2    4     -1.86      0.00
    0    2    5      3.17      0.00
    0    2    6     -4.76      0.00
    0    2    7      1.77      0.00
    0    2    8     -1.79      0.00
    0    2    9      2.07      0.00
    0    2   10      1.60      0.00
    0    2   11     -2.05      0.00
    0    2   12     -1.60      0.00
    0    2   13     -4.44      0.00
    0    2   14     -1.09      0.00
    0    2   15     -0.43      0.00
    0    2   16      0.29      0.00
    0    2   17     -0.23      0.00
    0    3    2     16.84      0.00
    0    3    4     16.08      0.00
    0    3    5     10.35      0.00
    0    3    6     -7.83      0.00
    0    3    7      6.32      0.00
    0    3    8      7.10      0.00
    0    3    9     -2.89      0.00
    0    3   10     -1.99      0.00
    0    3   11      0.67      0.00
    0    3   12     -0.91      0.00
    0    3   13     -2.31      0.00
    0    3   14     -1.99      0.00
    0    3   15     -0.44      0.00
    0    3   16      2.17      0.00
    0    3   17      0.35      0.00
    0    4    0     11.74      0.00
    0    4    1    -20.65      0.00
    0    4    2      0.16      0.00
    0    4    3      8.42      0.00
    0    4    4     38.87      0.00
    0    4    5     -6.94      0.00
    0    4    6     12.21      0.00
    0    4    7     -2.25      0.00
    0    4    8     -0.38      0.00
    0    4    9      2.72      0.00
    0    4   10     -0.74      0.00
    0    4   11     -0.12      0.00
    0    4   12      1.29      0.00
    0    4   13      1.04      0.00
    0    4   14     -1.58      0.00
    0    4   15      1.26      0.00
    0    4   16     -0.34      0.00
    0    4   17      1.04      0.00
    0    5    1    -16.48      0.00
    0    5    2    -23.87      0.00
    0    5    3    -11.58      0.00
    0    5    4     -1.73      0.00
    0    5    5     17.20      0.00
    0    5    6      0.81      0.00
    0    5    7    -12.80      0.00
    0    5    8     -2.58      0.00
    0    5    9      0.08      0.00
    0    5   10      3.10      0.00
    0    5   11      2.75      0.00
    0    5   12      1.27      0.00
    0    5   13      0.58      0.00
    0    5   14      0.70      0.00
    0    5   15     -2.10      0.00
    0    5   16      1.21      0.00
    0    5   17     -0.66      0.00
    0    6    0    -31.99      0.00
    0    6    1    -13.11      0.00
    0    6    2     -8.73      0.00
    0    6    3    -26.53      0.00
    0    6    4     -5.09      0.00
    0    6    5      9.60      0.00
    0    6    6     -6.32      0.00
    0    6    7     -3.12      0.00
    0    6    8    -12.31      0.00
    0    6    9     -4.20      0.00
    0    6   10      4.40      0.00
    0    6   11      1.93      0.00
    0    6   12      2.20      0.00
    0    6   13      0.44      0.00
    0    6   14      0.23      0.00
    0    6   15     -0.73      0.00
    0    6   16     -2.76      0.00
    0    6   17      2.13      0.00
    0    7    1     -8.84      0.00
    0    7    2    -16.22      0.00
    0    7    3      5.81      0.00
    0    7    4    -11.25      0.00
    0    7    5     -8.55      0.00
    0    7    6      3.36      0.00
    0    7    7     -0.10      0.00
    0    7    8     -3.91      0.00
    0    7    9     -8.24      0.00
    0    7   10     -3.59      0.00
    0    7   11      1.22      0.00
    0    7   12      1.54      0.00
    0    7   13      1.54      0.00
    0    7   14     -2.02      0.00
    0    7   15     -0.26      0.00
    0    7   16     -0.48      0.00
    0    8    0     -7.49      0.00
    0    8    1     -0.92      0.00
    0    8    2     -6.87      0.00
    0    8    3      2.96      0.00
    0    8    4     -5.90      0.00
    0    8    5    -10.68      0.00
    0    8    6     -1.19      0.00
    0    8    7      7.24      0.00
    0    8    8      0.06      0.00
    0    8    9      1.37      0.00
    0    8   10    -11.82      0.00
    0    8   11      0.39      0.00
    0    8   12     -0.46      0.00
    0    8   13     -0.69      0.00
    0    8   14      0.15      0.00
    0    8   15     -0.94      0.00
    0    8   16      0.90      0.00
    0    9    1    -10.07      0.00
    0    9    2     11.21      0.00
    0    9    3    -12.16      0.00
    0    9    4      2.63      0.00
    0    9    5     -3.94      0.00
    0    9    6     -5.42      0.00
    0    9    7      0.71      0.00
    0    9    8      7.81      0.00
    0    9    9     -2.70      0.00
    0    9   10      3.18      0.00
    0    9   11     -5.80      0.00
    0    9   12     -0.63      0.00
    0    9   13     -0.16      0.00
    0    9   14      2.33      0.00
    0    9   15     -0.63      0.00
    0    9   16     -0.33      0.00
    0   10    0     -4.41      0.00
    0   10    1      5.86      0.00
    0   10    2     -4.05      0.00
    0   10    3      3.87      0.00
    0   10    4     -2.08      0.00
    0   10    5      0.90      0.00
    0   10    6      2.05      0.00
    0   10    7     -8.72      0.00
    0   10    8      3.10      0.00
    0   10    9      3.33      0.00
    0   10   10      5.78      0.00
    0   10   11     -2.08      0.00
    0   10   12     -0.13      0.00
    0   10   13      1.80      0.00
    0   10   14     -1.07      0.00
    0   10   15      1.03      0.00
    0   11    1      0.49      0.00
    0   11    2     -0.18      0.00
    0   11    3      2.00      0.00
    0   11    4     -0.62      0.00
    0   11    5      2.18      0.00
    0   11    6     -3.69      0.00
    0   11    7      2.44      0.00
    0   11    8     -5.25      0.00
    0   11    9      6.23      0.00
    0   11   10     -1.27      0.00
    0   11   11      6.24      0.00
    0   11   12     -0.63      0.00
    0   11   13     -1.87      0.00
    0   11   14     -0.18      0.00
    0   11   15     -0.38      0.00
    0   12    0      0.07      0.00
    0   12    1     -1.24      0.00
    0   12    2     -0.27      0.00
    0   12    3     -3.21      0.00
    0   12    4     -0.89      0.00
    0   12    5     -3.37      0.00
    0   12    6     -3.21      0.00
    0   12    7      2.78      0.00
    0   12    8     -1.10      0.00
    0   12    9     -1.73      0.00
    0   12   10      2.41      0.00
    0   12   11      1.20      0.00
    0   12   12      0.60      0.00
    0   12   13      0.83      0.00
    0   12   14     -0.36      0.00
    0   13    1      0.45      0.00
    0   13    2     -2.84      0.00
    0   13    3     -1.29      0.00
    0   13    4     -4.93      0.00
    0   13    5     -3.27      0.00
    0   13    6      1.97      0.00
    0   13    7     -4.19      0.00
    0   13    8      1.45      0.00
    0   13    9     -0.85      0.00
    0   13   10      0.79      0.00
    0   13   11     -0.42      0.00
    0   13   12      2.15      0.00
    0   13   13      1.47      0.00
    0   14    0      2.50      0.00
    0   14    1     -2.31      0.00
    0   14    2      2.85      0.00
    0   14    3     -4.42      0.00
    0   14    4     -0.33      0.00
    0   14    5      1.48      0.00
    0   14    6      0.82      0.00
    0   14    7     -1.75      0.00
    0   14    8      1.77      0.00
    0   14    9     -0.45      0.00
    0   14   10      0.52      0.00
    0   14   11     -0.19      0.00
    0   14   12      0.95      0.00
    0   15    1      2.92      0.00
    0   15    2     -3.50      0.00
    0   15    3      1.30      0.00
    0   15    4      1.77      0.00
    0   15    5      0.68      0.00
    0   15    6      0.58      0.00
    0   15    7      4.53      0.00
    0   15    8     -2.18      0.00
    0   15    9      2.42      0.00
    0   15   10     -0.83      0.00
    0   15   11      1.99      0.00
    0   15   12      2.23      0.00
    0   16    0      3.80      0.00
    0   16    1     -1.98      0.00
    0   16    2     -1.06      0.00
    0   16    3      2.48      0.00
    0   16    4     -0.30      0.00
    0   16    5     -0.57      0.00
    0   16    6      0.58      0.00
    0   16    7     -0.20      0.00
    0   16    8      1.33      0.00
    0   16    9     -0.30      0.00
    0   16   10      2.72      0.00
    0   16   11      2.10      0.00
    0   17    1      1.41      0.00
    0   17    2      2.14      0.00
    0   17    3     -1.69      0.00
    0   17    4     -0.20      0.00
    0   17    5     -0.28      0.00
    0   17    6     -2.07      0.00
    0   17    7     -1.66      0.00
    0   17    8     -0.59      0.00
    0   17    9      0.71      0.00
    0   18    0      0.59      0.00
    0   18    1      2.62      0.00
    0   18    2      1.51      0.00
    0   18    3      1.19      0.00
    0   18    4     -0.65      0.00
    0   18    5     -0.07      0.00
    0   18    6     -0.22      0.00
    0   18    7     -0.46      0.00
    0   18    8     -0.44      0.00
    0   19    1      0.74      0.00
    0   19    2      2.23      0.00
    0   19    3      1.83      0.00
    0   19    4      1.28      0.00
    0   19    5      0.08      0.00
    0   19    6      1.68      0.00
    0   20    0     -3.04      0.00
    0   20    1     -0.77      0.00
    0   20    2      1.15      0.00
    0   20    3      0.75      0.00
   -1    0   18      0.99      0.00
   -1    0   16     -0.16      0.00
   -1    0   14     -1.91      0.00
   -1    0   12      6.57      0.00
   -1    0   10      8.90      0.00
   -1    0    8      8.37      0.00
   -1    0    6     20.93      0.00
   -1    0    4     -2.21      0.00
    1    0    4      3.50      0.00
    1    0    6     14.48      0.00
    1    0    8     -1.74      0.00
    1    0   10      3.45      0.00
    1    0   12      1.96      0.00
    1    0   14     -0.89      0.00
    1    0   16     -1.20      0.00
   -1    1   18      0.24      0.00
   -1    1   17      1.47      0.00
   -1    1   16     -1.38      0.00
   -1    1   15     -1.20      0.00
   -1    1   14     -0.74      0.00
   -1    1   13     -0.21      0.00
   -1    1   12      4.16      0.00
   -1    1   11      4.82      0.00
   -1    1   10     -4.27      0.00
   -1    1    9      3.89      0.00
   -1    1    8      8.60      0.00
   -1    1    7      3.21      0.00
   -1    1    6     -7.03      0.00
   -1    1    5      0.29      0.00
   -1    1    4     29.83      0.00
   -1    1    3     25.22      0.00
   -1    1    2    -22.93      0.00
   -1    1    1     -3.24      0.00
    1    1    1      2.15      0.00
    1    1    2   -109.33      0.00
    1    1    3     30.47      0.00
    1    1    4      9.21      0.00
    1    1    5      0.09      0.00
    1    1    6      0.16      0.00
    1    1    7     -4.57      0.00
    1    1    8      9.81      0.00
    1    1    9     -2.37      0.00
    1    1   10     -2.34      0.00
    1    1   11      3.57      0.00
    1    1   12      1.43      0.00
    1    1   13     -0.76      0.00
    1    1   14     -1.79      0.00
    1    1   15     -1.57      0.00
    1    1   16     -0.85      0.00
    1    1   17      0.28      0.00
   -1    2   17      0.04      0.00
   -1    2   16      1.05      0.00
   -1    2   15     -1.34      0.00
   -1    2   14     -1.15      0.00
   -1    2   13      1.27      0.00
   -1    2   12     -2.17      0.00
   -1    2   11      0.86      0.00
   -1    2   10     -0.58      0.00
   -1    2    9      1.31      0.00
   -1    2    8     -2.54      0.00
   -1    2    7      6.24      0.00
   -1    2    6    -10.23      0.00
   -1    2    5     20.74      0.00
   -1    2    4     33.75      0.00
   -1    2    3     11.78      0.00
   -1    2    1      7.11      0.00
    1    2    0    -39.26      0.00
    1    2    1   -158.92      0.00
    1    2    3    -46.09      0.00
    1    2    4     20.73      0.00
    1    2    5      9.46      0.00
    1    2    6    -16.93      0.00
    1    2    7     10.68      0.00
    1    2    8     -5.53      0.00
    1    2    9     -1.82      0.00
    1    2   10      0.29      0.00
    1    2   11     -0.53      0.00
    1    2   12      0.65      0.00
    1    2   13     -1.55      0.00
    1    2   14     -1.92      0.00
    1    2   15     -2.03      0.00
    1    2   16      0.70      0.00
    1    2   17      0.55      0.00
   -1    3   17     -0.06      0.00
   -1    3   16     -0.43      0.00
   -1    3   15     -0.85      0.00
   -1    3   14      1.91      0.00
   -1    3   13     -0.26      0.00
   -1    3   12     -1.05      0.00
   -1    3   11     -3.88      0.00
   -1    3   10      2.82      0.00
   -1    3    9     -0.68      0.00
   -1    3    8     -1.72      0.00
   -1    3    7      5.56      0.00
   -1    3    6     29.45      0.00
   -1    3    5     39.12      0.00
   -1    3    4      6.77      0.00
   -1    3    2     13.30      0.00
   -1    3    1     35.24      0.00
    1    3    0    -51.92      0.00
    1    3    1    -28.80      0.00
    1    3    2    -71.06      0.00
    1    3    4    -23.79      0.00
    1    3    5     10.55      0.00
    1    3    6     15.28      0.00
    1    3    7      3.39      0.00
    1    3    8     -3.95      0.00
    1    3    9      3.12      0.00
    1    3   10     -2.91      0.00
    1    3   11     -1.84      0.00
    1    3   12     -2.16      0.00
    1    3   13      0.50      0.00
    1    3   14      0.22      0.00
    1    3   15     -0.48      0.00
    1    3   16      0.09      0.00
    1    3   17      0.58      0.00
   -1    4   17     -0.51      0.00
   -1    4   16     -0.92      0.00
   -1    4   15      1.82      0.00
   -1    4   14     -0.42      0.00
   -1    4   13      2.48      0.00
   -1    4   12     -0.82      0.00
   -1    4   11     -0.83      0.00
   -1    4   10     -3.74      0.00
   -1    4    9     -0.31      0.00
   -1    4    8      5.82      0.00
   -1    4    7     18.33      0.00
   -1    4    6     40.45      0.00
   -1    4    5     18.20      0.00
   -1    4    4      8.10      0.00
   -1    4    3      1.66      0.00
   -1    4    2     21.22      0.00
   -1    4    1     55.23      0.00
    1    4    0     37.05      0.00
    1    4    1     -2.71      0.00
    1    4    2     -7.09      0.00
    1    4    3    -43.10      0.00
    1    4    4    -38.80      0.00
    1    4    5    -10.05      0.00
    1    4    6     22.22      0.00
    1    4    7      2.03      0.00
    1    4    8      9.92      0.00
    1    4    9     -2.88      0.00
    1    4   10     -0.71      0.00
    1    4   11     -2.78      0.00
    1    4   12     -1.16      0.00
    1    4   13     -0.12      0.00
    1    4   14      1.07      0.00
    1    4   15      1.38      0.00
    1    4   16     -1.22      0.00
    1    4   17      1.24      0.00
   -1    5   17     -1.08      0.00
   -1    5   16      0.95      0.00
   -1    5   15      1.46      0.00
   -1    5   14      1.49      0.00
   -1    5   13     -0.08      0.00
   -1    5   12      2.02      0.00
   -1    5   11     -0.86      0.00
   -1    5   10     -2.63      0.00
   -1    5    9     -0.52      0.00
   -1    5    8     16.18      0.00
   -1    5    7     17.88      0.00
   -1    5    6      9.37      0.00
   -1    5    5     -7.97      0.00
   -1    5    4     13.87      0.00
   -1    5    3     -0.77      0.00
   -1    5    2     30.26      0.00
   -1    5    1      1.05      0.00
    1    5    0    -19.86      0.00
    1    5    1      8.70      0.00
    1    5    2     -2.95      0.00
    1    5    3    -20.84      0.00
    1    5    4    -22.11      0.00
    1    5    5    -26.01      0.00
    1    5    6    -15.17      0.00
    1    5    7     10.04      0.00
    1    5    8      5.60      0.00
    1    5    9     -0.32      0.00
    1    5   10     -1.79      0.00
    1    5   11     -0.21      0.00
    1    5   12     -1.37      0.00
    1    5   13      0.73      0.00
    1    5   14     -0.57      0.00
    1    5   15      0.63      0.00
    1    5   16      1.70      0.00
    1    5   17     -1.23      0.00
   -1    6   17      0.65      0.00
   -1    6   16      1.64      0.00
   -1    6   15     -0.57      0.00
   -1    6   14      2.41      0.00
   -1    6   13      0.43      0.00
   -1    6   12      0.93      0.00
   -1    6   11     -0.37      0.00
   -1    6   10      2.48      0.00
   -1    6    9      7.33      0.00
   -1    6    8      6.93      0.00
   -1    6    7      3.37      0.00
   -1    6    6    -17.25      0.00
   -1    6    5     -1.28      0.00
   -1    6    4     -2.87      0.00
   -1    6    3     29.19      0.00
   -1    6    2     -0.94      0.00
   -1    6    1     -5.94      0.00
    1    6    0     -8.44      0.00
    1    6    1    -23.42      0.00
    1    6    2      4.64      0.00
    1    6    3      0.89      0.00
    1    6    4      0.32      0.00
    1    6    5    -26.82      0.00
    1    6    6    -22.34      0.00
    1    6    7     -6.19      0.00
    1    6    8     -0.58      0.00
    1    6    9      2.89      0.00
    1    6   10      0.98      0.00
    1    6   11     -3.77      0.00
    1    6   12      1.83      0.00
    1    6   13     -1.61      0.00
    1    6   14      0.63      0.00
    1    6   15      1.55      0.00
    1    6   16      0.13      0.00
   -1    7   16     -1.02      0.00
   -1    7   15      1.71      0.00
   -1    7   14     -0.23      0.00
   -1    7   13      1.79      0.00
   -1    7   12     -1.51      0.00
   -1    7   11      2.43      0.00
   -1    7   10      3.83      0.00
   -1    7    9      5.15      0.00
   -1    7    8     -2.29      0.00
   -1    7    7    -12.75      0.00
   -1    7    6     -9.40      0.00
   -1    7    5      4.08      0.00
   -1    7    4      5.73      0.00
   -1    7    3      3.44      0.00
   -1    7    2      3.33      0.00
   -1    7    1     -0.98      0.00
    1    7    0     -3.38      0.00
    1    7    1      1.93      0.00
    1    7    2    -13.50      0.00
    1    7    3     19.81      0.00
    1    7    4     -9.16      0.00
    1    7    5      3.97      0.00
    1    7    6    -15.58      0.00
    1    7    7    -15.74      0.00
    1    7    8     -0.70      0.00
    1    7    9      2.14      0.00
    1    7   10     -1.78      0.00
    1    7   11      2.14      0.00
    1    7   12     -3.89      0.00
    1    7   13     -0.68      0.00
    1    7   14      1.15      0.00
    1    7   15     -0.59      0.00
    1    7   16      1.87      0.00
   -1    8   16      1.05      0.00
   -1    8   15      0.68      0.00
   -1    8   14      0.12      0.00
   -1    8   13      0.07      0.00
   -1    8   12     -0.30      0.00
   -1    8   11      0.67      0.00
   -1    8   10      0.74      0.00
   -1    8    9      0.56      0.00
   -1    8    8    -11.69      0.00
   -1    8    7     -5.61      0.00
   -1    8    6      4.46      0.00
   -1    8    5      1.63      0.00
   -1    8    4      2.37      0.00
   -1    8    3     -4.72      0.00
   -1    8    2     -8.08      0.00
   -1    8    1     20.34      0.00
    1    8    0     -8.27      0.00
    1    8    1      6.93      0.00
    1    8    2      1.73      0.00
    1    8    3     -8.37      0.00
    1    8    4      4.54      0.00
    1    8    5      1.31      0.00
    1    8    6     -0.16      0.00
    1    8    7     -3.04      0.00
    1    8    8    -10.31      0.00
    1    8    9      3.30      0.00
    1    8   10      1.01      0.00
    1    8   11      1.17      0.00
    1    8   12     -3.15      0.00
    1    8   13     -0.50      0.00
    1    8   14     -1.34      0.00
    1    8   15      0.11      0.00
    1    8   16     -0.27      0.00
   -1    9   16      1.41      0.00
   -1    9   15      1.12      0.00
   -1    9   14      0.72      0.00
   -1    9   13     -3.31      0.00
   -1    9   12      1.93      0.00
   -1    9   11     -1.57      0.00
   -1    9   10     -1.29      0.00
   -1    9    9     -9.10      0.00
   -1    9    8     -3.18      0.00
   -1    9    7      0.03      0.00
   -1    9    6      1.75      0.00
   -1    9    5     -0.49      0.00
   -1    9    4     -2.50      0.00
   -1    9    3     -6.18      0.00
   -1    9    2     10.80      0.00
   -1    9    1    -12.20      0.00
    1    9    0     -7.74      0.00
    1    9    1     -7.27      0.00
    1    9    2      6.79      0.00
    1    9    3     -7.33      0.00
    1    9    4      2.26      0.00
    1    9    5     -0.85      0.00
    1    9    6      5.64      0.00
    1    9    7     -2.30      0.00
    1    9    8     -0.52      0.00
    1    9    9     -6.47      0.00
    1    9   10      5.09      0.00
    1    9   11     -3.38      0.00
    1    9   12      4.11      0.00
    1    9   13     -2.88      0.00
    1    9   14     -2.38      0.00
    1    9   15      0.95      0.00
   -1   10   15      0.48      0.00
   -1   10   14     -0.06      0.00
   -1   10   13     -0.69      0.00
   -1   10   12     -1.96      0.00
   -1   10   11      0.23      0.00
   -1   10   10     -1.94      0.00
   -1   10    9     -8.23      0.00
   -1   10    8      1.87      0.00
   -1   10    7     -5.17      0.00
   -1   10    6      1.79      0.00
   -1   10    5     -6.98      0.00
   -1   10    4     -0.55      0.00
   -1   10    3      4.36      0.00
   -1   10    2      2.04      0.00
   -1   10    1     -3.76      0.00
    1   10    0     -0.28      0.00
    1   10    1     -7.74      0.00
    1   10    2     -1.56      0.00
    1   10    3      5.20      0.00
    1   10    4     -2.36      0.00
    1   10    5      2.32      0.00
    1   10    6      1.99      0.00
    1   10    7     -1.04      0.00
    1   10    8      1.84      0.00
    1   10    9     -5.46      0.00
    1   10   10     -2.18      0.00
    1   10   11      2.95      0.00
    1   10   12     -0.59      0.00
    1   10   13     -1.46      0.00
    1   10   14     -0.24      0.00
    1   10   15     -1.46      0.00
   -1   11   15      0.44      0.00
   -1   11   14     -2.11      0.00
   -1   11   13      1.93      0.00
   -1   11   12     -1.96      0.00
   -1   11   11      0.25      0.00
   -1   11   10     -4.03      0.00
   -1   11    9      3.81      0.00
   -1   11    8     -6.86      0.00
   -1   11    7      2.33      0.00
   -1   11    6     -5.71      0.00
   -1   11    5      0.53      0.00
   -1   11    4     -0.81      0.00
   -1   11    3      3.19      0.00
   -1   11    2     -5.06      0.00
   -1   11    1      8.31      0.00
    1   11    0      1.84      0.00
    1   11    1      3.03      0.00
    1   11    2     -3.92      0.00
    1   11    3     -0.98      0.00
    1   11    4      4.22      0.00
    1   11    5     -3.27      0.00
    1   11    6      1.32      0.00
    1   11    7      4.05      0.00
    1   11    8     -4.31      0.00
    1   11    9      2.72      0.00
    1   11   10     -3.85      0.00
    1   11   11      2.02      0.00
    1   11   12     -0.83      0.00
    1   11   13      0.99      0.00
    1   11   14     -2.10      0.00
   -1   12   14      1.16      0.00
   -1   12   13     -0.78      0.00
   -1   12   12      0.63      0.00
   -1   12   11     -3.01      0.00
   -1   12   10      0.28      0.00
   -1   12    9      0.43      0.00
   -1   12    8     -0.45      0.00
   -1   12    7      0.25      0.00
   -1   12    6     -4.01      0.00
   -1   12    5      3.95      0.00
   -1   12    4     -4.01      0.00
   -1   12    3     -3.02      0.00
   -1   12    2      1.08      0.00
   -1   12    1      1.04      0.00
    1   12    0      4.36      0.00
    1   12    1      4.88      0.00
    1   12    2     -1.31      0.00
    1   12    3      1.06      0.00
    1   12    4     -6.14      0.00
    1   12    5      5.57      0.00
    1   12    6     -2.75      0.00
    1   12    7      1.83      0.00
    1   12    8     -0.36      0.00
    1   12    9      2.73      0.00
    1   12   10      0.79      0.00
    1   12   11     -1.37      0.00
    1   12   12      0.01      0.00
    1   12   13      1.15      0.00
    1   12   14      1.73      0.00
   -1   13   13     -1.10      0.00
   -1   13   12     -0.42      0.00
   -1   13   11      0.18      0.00
   -1   13   10     -0.33      0.00
   -1   13    9     -1.51      0.00
   -1   13    8      2.95      0.00
   -1   13    7     -2.46      0.00
   -1   13    6      0.51      0.00
   -1   13    5     -5.40      0.00
   -1   13    4     -0.07      0.00
   -1   13    3     -3.32      0.00
   -1   13    2      1.44      0.00
   -1   13    1      0.72      0.00
    1   13    0      0.29      0.00
    1   13    1      1.97      0.00
    1   13    2      4.89      0.00
    1   13    3     -3.15      0.00
    1   13    4      3.14      0.00
    1   13    5     -0.09      0.00
    1   13    6      0.55      0.00
    1   13    7     -1.82      0.00
    1   13    8      4.82      0.00
    1   13    9     -0.92      0.00
    1   13   10      1.89      0.00
    1   13   11     -1.82      0.00
    1   13   12     -0.15      0.00
    1   13   13      0.67      0.00
   -1   14   13      0.29      0.00
   -1   14   12      0.09      0.00
   -1   14   11     -0.12      0.00
   -1   14   10      1.57      0.00
   -1   14    9     -1.57      0.00
   -1   14    8      0.35      0.00
   -1   14    7     -2.39      0.00
   -1   14    6      0.41      0.00
   -1   14    5     -4.54      0.00
   -1   14    4     -0.07      0.00
   -1   14    3      1.63      0.00
   -1   14    2     -0.45      0.00
   -1   14    1     -0.11      0.00
    1   14    0      2.53      0.00
    1   14    1      0.17      0.00
    1   14    2     -0.58      0.00
    1   14    3      3.38      0.00
    1   14    4      3.00      0.00
    1   14    5     -1.23      0.00
    1   14    6      3.07      0.00
    1   14    7      0.97      0.00
    1   14    8      0.99      0.00
    1   14    9      0.78      0.00
    1   14   10      0.80      0.00
    1   14   11     -0.61      0.00
    1   14   12      0.34      0.00
   -1   15   12     -0.12      0.00
   -1   15   11      1.42      0.00
   -1   15   10     -2.21      0.00
   -1   15    9      1.04      0.00
   -1   15    8     -2.70      0.00
   -1   15    7      0.07      0.00
   -1   15    6     -2.35      0.00
   -1   15    5      2.82      0.00
   -1   15    4      1.19      0.00
   -1   15    3      0.83      0.00
   -1   15    2      1.03      0.00
   -1   15    1     -0.70      0.00
    1   15    0      0.52      0.00
    1   15    1     -1.83      0.00
    1   15    2      0.90      0.00
    1   15    3      2.10      0.00
    1   15    4     -0.42      0.00
    1   15    5      2.91      0.00
    1   15    6      1.06      0.00
    1   15    7      0.73      0.00
    1   15    8      0.00      0.00
    1   15    9      0.38      0.00
    1   15   10     -0.60      0.00
    1   15   11      2.12      0.00
   -1   16   11     -0.52      0.00
   -1   16   10      0.10      0.00
   -1   16    9      0.95      0.00
   -1   16    8     -0.40      0.00
   -1   16    7      0.62      0.00
   -1   16    6     -0.41      0.00
   -1   16    5      3.07      0.00
   -1   16    4      2.12      0.00
   -1   16    3      1.12      0.00
   -1   16    2     -0.05      0.00
   -1   16    1      1.38      0.00
    1   16    0     -6.17      0.00
    1   16    1      2.26      0.00
    1   16    2      0.43      0.00
    1   16    3     -1.36      0.00
    1   16    4      2.75      0.00
    1   16    5      2.10      0.00
    1   16    6     -1.65      0.00
    1   16    7     -0.38      0.00
    1   16    8     -1.84      0.00
    1   16    9      1.18      0.00
    1   16   10     -1.50      0.00
   -1   17    9     -0.28      0.00
   -1   17    8      3.23      0.00
   -1   17    7     -0.05      0.00
   -1   17    6      2.12      0.00
   -1   17    5     -1.10      0.00
   -1   17    4      1.89      0.00
   -1   17    3      2.69      0.00
   -1   17    2     -0.25      0.00
   -1   17    1     -3.56      0.00
    1   17    0      0.43      0.00
    1   17    1     -2.54      0.00
    1   17    2     -0.19      0.00
    1   17    3      2.68      0.00
    1   17    4      2.06      0.00
    1   17    5      0.27      0.00
    1   17    6      1.16      0.00
    1   17    7     -1.06      0.00
    1   17    8      0.83      0.00
    1   17    9     -2.14      0.00
   -1   18    8     -0.54      0.00
   -1   18    7      0.33      0.00
   -1   18    6     -0.20      0.00
   -1   18    5      1.28      0.00
   -1   18    4     -0.37      0.00
   -1   18    3      0.33      0.00
   -1   18    2     -0.59      0.00
   -1   18    1     -3.77      0.00
    1   18    0     -0.29      0.00
    1   18    1     -2.02      0.00
    1   18    2      1.13      0.00
    1   18    3      2.08      0.00
    1   18    4      0.56      0.00
    1   18    5      2.29      0.00
    1   18    6      2.26      0.00
    1   18    7      1.37      0.00
    1   18    8     -0.52      0.00
   -1   19    6     -0.50      0.00
   -1   19    5      1.93      0.00
   -1   19    4      1.14      0.00
   -1   19    3     -3.17      0.00
   -1   19    2     -3.79      0.00
   -1   19    1      0.50      0.00
    1   19    0      0.19      0.00
    1   19    1      1.91      0.00
    1   19    2     -0.74      0.00
    1   19    3     -1.07      0.00
    1   19    4      1.29      0.00
    1   19    5      1.31      0.00
    1   19    6      1.05      0.00
   -1   20    3     -3.04      0.00
   -1   20    2     -1.46      0.00
   -1   20    1     -0.39      0.00
    1   20    0      2.00      0.00
    1   20    1      0.61      0.00
    1   20    2     -1.16      0.00
   -2    0   18      1.81      0.00
   -2    0   16     -2.66      0.00
   -2    0   14      0.48      0.00
   -2    0   12      1.95      0.00
   -2    0   10      0.84      0.00
   -2    0    8      4.39      0.00
   -2    0    6      9.96      0.00
   -2    0    4    -50.30      0.00
   -2    0    2    -97.50      0.00
    2    0    2     15.16      0.00
    2    0    4    -24.95      0.00
    2    0    6      3.00      0.00
    2    0    8     24.97      0.00
    2    0   10     -0.60      0.00
    2    0   12     -1.62      0.00
    2    0   14     -0.93      0.00
    2    0   16     -0.59      0.00
   -2    1   18      1.19      0.00
   -2    1   17      0.45      0.00
   -2    1   16     -1.12      0.00
   -2    1   15     -1.55      0.00
   -2    1   14      0.97      0.00
   -2    1   13      0.63      0.00
   -2    1   12     -1.94      0.00
   -2    1   11     -1.17      0.00
   -2    1   10      7.08      0.00
   -2    1    9      0.44      0.00
   -2    1    8     -2.99      0.00
   -2    1    7     -0.13      0.00
   -2    1    6      6.90      0.00
   -2    1    5    -26.25      0.00
   -2    1    4    -44.29      0.00
   -2    1    3    -84.18      0.00
   -2    1    2     -8.18      0.00
    2    1    0     37.39      0.00
    2    1    1     46.26      0.00
    2    1    2    -16.74      0.00
    2    1    3    -38.89      0.00
    2    1    4    -27.48      0.00
    2    1    5    -16.32      0.00
    2    1    6     -4.25      0.00
    2    1    7      4.45      0.00
    2    1    8      1.47      0.00
    2    1    9      5.40      0.00
    2    1   10      4.39      0.00
    2    1   11     -2.53      0.00
    2    1   12     -0.51      0.00
    2    1   13     -1.91      0.00
    2    1   14      0.10      0.00
    2    1   15     -1.41      0.00
    2    1   16     -0.89      0.00
    2    1   17     -0.40      0.00
   -2    2   18     -0.16      0.00
   -2    2   17      1.72      0.00
   -2    2   16      0.82      0.00
   -2    2   15      2.24      0.00
   -2    2   14     -1.69      0.00
   -2    2   13     -1.65      0.00
   -2    2   12     -1.27      0.00
   -2    2   11      0.58      0.00
   -2    2   10     -3.44      0.00
   -2    2    9      5.54      0.00
   -2    2    8     -3.02      0.00
   -2    2    7      3.46      0.00
   -2    2    6    -26.40      0.00
   -2    2    5     -9.54      0.00
   -2    2    4    -48.45      0.00
   -2    2    3     -0.90      0.00
   -2    2    2      7.00      0.00
   -2    2    1      2.59      0.00
    2    2    0    -60.82      0.00
    2    2    1     16.43      0.00
    2    2    2    -13.92      0.00
    2    2    3    -36.08      0.00
    2    2    4    -29.78      0.00
    2    2    5    -15.16      0.00
    2    2    6     -8.91      0.00
    2    2    7      0.64      0.00
    2    2    8    -11.80      0.00
    2    2    9      8.09      0.00
    2    2   10     -0.07      0.00
    2    2   11      0.53      0.00
    2    2   12     -3.40      0.00
    2    2   13     -0.41      0.00
    2    2   14     -2.86      0.00
    2    2   15      0.22      0.00
    2    2   16     -0.46      0.00
    2    2   17     -0.62      0.00
   -2    3   17     -0.14      0.00
   -2    3   16      3.90      0.00
   -2    3   15     -0.48      0.00
   -2    3   14      0.88      0.00
   -2    3   13     -2.02      0.00
   -2    3   12      1.23      0.00
   -2    3   11      1.23      0.00
   -2    3   10     -1.98      0.00
   -2    3    9     -5.01      0.00
   -2    3    8     10.99      0.00
   -2    3    7     -6.25      0.00
   -2    3    6     -9.60      0.00
   -2    3    5    -16.67      0.00
   -2    3    4     31.52      0.00
   -2    3    3     33.04      0.00
   -2    3    2     24.20      0.00
   -2    3    1    -16.79      0.00
    2    3    0    -19.11      0.00
    2    3    1    -10.38      0.00
    2    3    2      1.90      0.00
    2    3    3     16.25      0.00
    2    3    4    -15.71      0.00
    2    3    5     -5.56      0.00
    2    3    6     -9.67      0.00
    2    3    7     -6.06      0.00
    2    3    8      7.31      0.00
    2    3    9     -4.19      0.00
    2    3   10     -0.23      0.00
    2    3   11     -1.18      0.00
    2    3   12     -0.91      0.00
    2    3   13     -2.69      0.00
    2    3   14      1.10      0.00
    2    3   15     -0.78      0.00
    2    3   16      1.42      0.00
    2    3   17      1.69      0.00
   -2    4   17     -0.53      0.00
   -2    4   16     -1.71      0.00
   -2    4   15      0.60      0.00
   -2    4   14     -0.47      0.00
   -2    4   13      2.47      0.00
   -2    4   12     -0.19      0.00
   -2    4   11      0.36      0.00
   -2    4   10      2.08      0.00
   -2    4    9      2.59      0.00
   -2    4    8     -4.71      0.00
   -2    4    7      4.94      0.00
   -2    4    6      5.55      0.00
   -2    4    5     18.41      0.00
   -2    4    4     37.30      0.00
   -2    4    3     32.98      0.00
   -2    4    2     -2.18      0.00
   -2    4    1     12.78      0.00
    2    4    0     20.84      0.00
    2    4    1    -18.82      0.00
    2    4    2     12.44      0.00
    2    4    3     20.19      0.00
    2    4    4     14.81      0.00
    2    4    5    -10.38      0.00
    2    4    6     -7.02      0.00
    2    4    7     -4.16      0.00
    2    4    8      0.00      0.00
    2    4    9     -2.22      0.00
    2    4   10     -0.08      0.00
    2    4   11     -2.02      0.00
    2    4   12      1.37      0.00
    2    4   13      1.43      0.00
    2    4   14     -0.48      0.00
    2    4   15      1.59      0.00
    2    4   16      1.30      0.00
    2    4   17     -0.31      0.00
   -2    5   17      0.08      0.00
   -2    5   16     -2.91      0.00
   -2    5   15     -1.47      0.00
   -2    5   14     -0.02      0.00
   -2    5   13      1.00      0.00
   -2    5   12     -0.07      0.00
   -2    5   11      0.65      0.00
   -2    5   10      3.38      0.00
   -2    5    9      5.00      0.00
   -2    5    8      1.30      0.00
   -2    5    7     -3.73      0.00
   -2    5    6     28.10      0.00
   -2    5    4     28.45      0.00
   -2    5    3     -3.75      0.00
   -2    5    2     10.66      0.00
   -2    5    1      2.34      0.00
    2    5    0     -3.20      0.00
    2    5    1     -8.05      0.00
    2    5    2     -2.78      0.00
    2    5    3     -8.04      0.00
    2    5    4     21.45      0.00
    2    5    5      2.69      0.00
    2    5    6     -0.65      0.00
    2    5    7    -14.02      0.00
    2    5    8    -11.71      0.00
    2    5    9      1.37      0.00
    2    5   10     -2.46      0.00
    2    5   11      3.39      0.00
    2    5   12      1.38      0.00
    2    5   13      2.59      0.00
    2    5   14      0.18      0.00
    2    5   15      1.14      0.00
    2    5   16     -0.56      0.00
    2    5   17      0.45      0.00
   -2    6   17     -1.09      0.00
   -2    6   16     -0.37      0.00
   -2    6   15     -1.72      0.00
   -2    6   14     -0.31      0.00
   -2    6   13     -2.46      0.00
   -2    6   12      2.83      0.00
   -2    6   11      0.92      0.00
   -2    6   10      7.15      0.00
   -2    6    9      0.66      0.00
   -2    6    8      4.57      0.00
   -2    6    7     12.07      0.00
   -2    6    6     10.64      0.00
   -2    6    5     30.24      0.00
   -2    6    4      1.31      0.00
   -2    6    3     11.63      0.00
   -2    6    2      9.72      0.00
   -2    6    1     -2.76      0.00
    2    6    0    -16.39      0.00
    2    6    1      2.91      0.00
    2    6    2    -11.36      0.00
    2    6    3     -8.05      0.00
    2    6    4      3.27      0.00
    2    6    5     23.71      0.00
    2    6    6      3.52      0.00
    2    6    7     -8.21      0.00
    2    6    8     -9.91      0.00
    2    6    9     -9.52      0.00
    2    6   10      3.99      0.00
    2    6   11     -0.46      0.00
    2    6   12      3.07      0.00
    2    6   13     -0.26      0.00
    2    6   14      3.23      0.00
    2    6   15     -2.19      0.00
    2    6   16     -0.30      0.00
   -2    7   17     -0.88      0.00
   -2    7   16      0.48      0.00
   -2    7   15     -0.16      0.00
   -2    7   14     -2.87      0.00
   -2    7   13      1.29      0.00
   -2    7   12      0.47      0.00
   -2    7   11      8.04      0.00
   -2    7   10     -1.93      0.00
   -2    7    9      2.54      0.00
   -2    7    8      6.41      0.00
   -2    7    7     15.65      0.00
   -2    7    6      7.48      0.00
   -2    7    5      1.00      0.00
   -2    7    4      7.56      0.00
   -2    7    3     18.79      0.00
   -2    7    2     -2.23      0.00
   -2    7    1     -0.97      0.00
    2    7    0      2.58      0.00
    2    7    1     -3.09      0.00
    2    7    2     -6.67      0.00
    2    7    3      6.86      0.00
    2    7    4     -5.73      0.00
    2    7    5     13.61      0.00
    2    7    6     10.13      0.00
    2    7    7      9.42      0.00
    2    7    8     -5.29      0.00
    2    7    9     -4.84      0.00
    2    7   10     -3.74      0.00
    2    7   11      2.07      0.00
    2    7   12     -1.63      0.00
    2    7   13      3.48      0.00
    2    7   14     -1.41      0.00
    2    7   15     -0.43      0.00
    2    7   16     -2.07      0.00
   -2    8   16     -0.22      0.00
   -2    8   15     -0.74      0.00
   -2    8   14      1.38      0.00
   -2    8   13      2.24      0.00
   -2    8   12      3.54      0.00
   -2    8   11      1.85      0.00
   -2    8   10     -1.61      0.00
   -2    8    9      3.90      0.00
   -2    8    8      5.17      0.00
   -2    8    7      8.20      0.00
   -2    8    6      6.95      0.00
   -2    8    5     -4.63      0.00
   -2    8    4      7.56      0.00
   -2    8    3      2.54      0.00
   -2    8    2      1.76      0.00
   -2    8    1      1.25      0.00
    2    8    0     -1.93      0.00
    2    8    1     -4.77      0.00
    2    8    2     -1.10      0.00
    2    8    3      3.78      0.00
    2    8    4      2.34      0.00
    2    8    5     -8.42      0.00
    2    8    6     11.70      0.00
    2    8    7     10.38      0.00
    2    8    8      5.84      0.00
    2    8    9      1.44      0.00
    2    8   10     -6.12      0.00
    2    8   11     -0.12      0.00
    2    8   12      1.12      0.00
    2    8   13     -0.87      0.00
    2    8   14     -0.29      0.00
    2    8   15      0.45      0.00
    2    8   16     -2.31      0.00
   -2    9   16     -1.25      0.00
   -2    9   15      1.36      0.00
   -2    9   14      3.15      0.00
   -2    9   13      2.14      0.00
   -2    9   12      3.64      0.00
   -2    9   11     -3.52      0.00
   -2    9   10      4.80      0.00
   -2    9    9      0.73      0.00
   -2    9    8      4.88      0.00
   -2    9    7      1.80      0.00
   -2    9    6     -1.58      0.00
   -2    9    5      7.01      0.00
   -2    9    4      0.37      0.00
   -2    9    3     -5.06      0.00
   -2    9    2      6.82      0.00
   -2    9    1      2.14      0.00
    2    9    0     -1.87      0.00
    2    9    1     -5.64      0.00
    2    9    2      6.77      0.00
    2    9    3     -5.47      0.00
    2    9    4      3.84      0.00
    2    9    5     -0.76      0.00
    2    9    6     -4.06      0.00
    2    9    7      7.05      0.00
    2    9    8      8.05      0.00
    2    9    9      0.26      0.00
    2    9   10      2.55      0.00
    2    9   11     -3.77      0.00
    2    9   12      0.37      0.00
    2    9   13     -0.86      0.00
    2    9   14      2.23      0.00
    2    9   15     -1.10      0.00
   -2   10   15     -0.43      0.00
   -2   10   14      1.08      0.00
   -2   10   13      0.45      0.00
   -2   10   12     -1.68      0.00
   -2   10   11     -0.74      0.00
   -2   10   10      3.00      0.00
   -2   10    9      1.16      0.00
   -2   10    8      2.69      0.00
   -2   10    7     -8.65      0.00
   -2   10    6      4.60      0.00
   -2   10    5     -1.57      0.00
   -2   10    4      1.07      0.00
   -2   10    3      3.05      0.00
   -2   10    2      4.09      0.00
   -2   10    1      2.64      0.00
    2   10    0      5.86      0.00
    2   10    1      7.49      0.00
    2   10    2     -0.06      0.00
    2   10    3      0.95      0.00
    2   10    4      1.57      0.00
    2   10    5      1.77      0.00
    2   10    6      3.51      0.00
    2   10    7     -6.64      0.00
    2   10    8      4.56      0.00
    2   10    9      3.02      0.00
    2   10   10      3.91      0.00
    2   10   11     -0.29      0.00
    2   10   12     -0.45      0.00
    2   10   13      1.67      0.00
    2   10   14      0.77      0.00
    2   10   15      1.74      0.00
   -2   11   15      0.60      0.00
   -2   11   14     -2.20      0.00
   -2   11   13     -2.67      0.00
   -2   11   12     -3.51      0.00
   -2   11   11      3.54      0.00
   -2   11   10     -3.91      0.00
   -2   11    9      1.97      0.00
   -2   11    8     -7.45      0.00
   -2   11    7      1.24      0.00
   -2   11    6     -6.08      0.00
   -2   11    5     -1.44      0.00
   -2   11    4      1.06      0.00
   -2   11    3      4.22      0.00
   -2   11    2      0.90      0.00
   -2   11    1      4.82      0.00
    2   11    0      4.78      0.00
    2   11    1      8.63      0.00
    2   11    2      2.92      0.00
    2   11    3      5.12      0.00
    2   11    4     -0.87      0.00
    2   11    5      3.99      0.00
    2   11    6     -0.64      0.00
    2   11    7     -0.22      0.00
    2   11    8     -3.63      0.00
    2   11    9      5.23      0.00
    2   11   10      0.60      0.00
    2   11   11      4.56      0.00
    2   11   12      0.44      0.00
    2   11   13      1.15      0.00
    2   11   14      2.50      0.00
   -2   12   14     -1.63      0.00
   -2   12   13      0.86      0.00
   -2   12   12     -0.54      0.00
   -2   12   11     -1.28      0.00
   -2   12   10     -0.31      0.00
   -2   12    9     -4.76      0.00
   -2   12    8     -3.47      0.00
   -2   12    7     -1.16      0.00
   -2   12    6     -4.93      0.00
   -2   12    5      1.49      0.00
   -2   12    4     -2.97      0.00
   -2   12    3      0.11      0.00
   -2   12    2     -1.51      0.00
   -2   12    1     -1.96      0.00
    2   12    0      0.79      0.00
    2   12    1      3.90      0.00
    2   12    2      4.45      0.00
    2   12    3      3.19      0.00
    2   12    4      1.28      0.00
    2   12    5     -0.24      0.00
    2   12    6     -5.56      0.00
    2   12    7      4.69      0.00
    2   12    8     -3.13      0.00
    2   12    9     -0.74      0.00
    2   12   10      0.59      0.00
    2   12   11      2.24      0.00
    2   12   12      0.03      0.00
    2   12   13      1.97      0.00
    2   12   14      0.38      0.00
   -2   13   13      0.68      0.00
   -2   13   12      3.32      0.00
   -2   13   11     -2.15      0.00
   -2   13   10     -0.64      0.00
   -2   13    9     -2.56      0.00
   -2   13    8     -0.20      0.00
   -2   13    7     -3.93      0.00
   -2   13    6      4.01      0.00
   -2   13    5     -1.89      0.00
   -2   13    4     -1.06      0.00
   -2   13    3     -4.71      0.00
   -2   13    2     -2.28      0.00
   -2   13    1     -2.56      0.00
    2   13    0      1.10      0.00
    2   13    1     -1.24      0.00
    2   13    2      1.17      0.00
    2   13    3      1.06      0.00
    2   13    4      0.46      0.00
    2   13    5     -5.91      0.00
    2   13    6      3.46      0.00
    2   13    7     -4.18      0.00
    2   13    8      2.41      0.00
    2   13    9     -2.81      0.00
    2   13   10      0.71      0.00
    2   13   11     -2.21      0.00
    2   13   12      1.23      0.00
    2   13   13     -2.02      0.00
   -2   14   13      1.47      0.00
   -2   14   12      1.09      0.00
   -2   14   11      0.89      0.00
   -2   14   10     -1.89      0.00
   -2   14    9      0.93      0.00
   -2   14    8      0.60      0.00
   -2   14    7      0.39      0.00
   -2   14    6      1.25      0.00
   -2   14    5      1.58      0.00
   -2   14    4     -1.73      0.00
   -2   14    3     -3.27      0.00
   -2   14    2     -0.96      0.00
   -2   14    1     -1.95      0.00
    2   14    0      0.36      0.00
    2   14    1     -2.60      0.00
    2   14    2      1.61      0.00
    2   14    3     -3.03      0.00
    2   14    4     -3.86      0.00
    2   14    5      2.76      0.00
    2   14    6     -1.86      0.00
    2   14    7     -0.16      0.00
    2   14    8      1.32      0.00
    2   14    9     -0.52      0.00
    2   14   10      0.19      0.00
    2   14   11     -2.62      0.00
    2   14   12     -0.49      0.00
   -2   15   12     -0.88      0.00
   -2   15   11     -0.02      0.00
   -2   15   10      1.26      0.00
   -2   15    9     -1.12      0.00
   -2   15    8     -0.80      0.00
   -2   15    7      2.31      0.00
   -2   15    6     -0.24      0.00
   -2   15    5     -1.98      0.00
   -2   15    4      2.30      0.00
   -2   15    3     -0.70      0.00
   -2   15    2     -1.78      0.00
   -2   15    1      0.02      0.00
    2   15    0     -1.28      0.00
    2   15    1      2.19      0.00
    2   15    2     -3.84      0.00
    2   15    3     -2.58      0.00
    2   15    4      1.32      0.00
    2   15    5     -2.24      0.00
    2   15    6      0.71      0.00
    2   15    7      1.34      0.00
    2   15    8     -1.13      0.00
    2   15    9      1.81      0.00
    2   15   10     -4.25      0.00
    2   15   11      1.79      0.00
   -2   16   11     -1.42      0.00
   -2   16   10     -1.05      0.00
   -2   16    9      0.77      0.00
   -2   16    8     -2.09      0.00
   -2   16    7     -0.41      0.00
   -2   16    6     -1.76      0.00
   -2   16    5      0.31      0.00
   -2   16    4     -1.97      0.00
   -2   16    3      2.99      0.00
   -2   16    2     -2.63      0.00
   -2   16    1      0.47      0.00
    2   16    0      1.43      0.00
    2   16    1     -2.45      0.00
    2   16    2     -2.69      0.00
    2   16    3      1.20      0.00
    2   16    4     -1.34      0.00
    2   16    5     -0.81      0.00
    2   16    6     -0.06      0.00
    2   16    7      0.47      0.00
    2   16    8      0.13      0.00
    2   16    9     -2.18      0.00
    2   16   10      1.47      0.00
   -2   17    9     -0.71      0.00
   -2   17    8      2.09      0.00
   -2   17    7     -2.11      0.00
   -2   17    6      0.50      0.00
   -2   17    5     -0.29      0.00
   -2   17    4     -1.54      0.00
   -2   17    3     -2.50      0.00
   -2   17    2      3.91      0.00
   -2   17    1      1.51      0.00
    2   17    0      0.40      0.00
    2   17    1     -0.14      0.00
    2   17    2      0.54      0.00
    2   17    3     -1.45      0.00
    2   17    4     -1.07      0.00
    2   17    5     -0.06      0.00
    2   17    6     -1.07      0.00
    2   17    7     -0.71      0.00
    2   17    8     -0.40      0.00
    2   17    9      1.17      0.00
   -2   18    8      1.60      0.00
   -2   18    7      1.42      0.00
   -2   18    6      0.45      0.00
   -2   18    5     -1.17      0.00
   -2   18    4     -0.23      0.00
   -2   18    3      0.50      0.00
   -2   18    2      1.97      0.00
   -2   18    1      3.49      0.00
    2   18    0      1.18      0.00
    2   18    1      2.93      0.00
    2   18    2      0.53      0.00
    2   18    3     -1.44      0.00
    2   18    4     -0.42      0.00
    2   18    5     -1.25      0.00
    2   18    6     -1.54      0.00
    2   18    7     -0.45      0.00
   -2   19    6     -0.94      0.00
   -2   19    5     -0.07      0.00
   -2   19    4     -0.48      0.00
   -2   19    3      2.56      0.00
   -2   19    2      1.31      0.00
   -2   19    1      0.16      0.00
    2   19    0      0.26      0.00
    2   19    1     -0.32      0.00
    2   19    2      0.27      0.00
    2   19    3      1.56      0.00
    2   19    4     -1.61      0.00
    2   19    5     -0.82      0.00
   -2   20    3     -0.89      0.00
   -2   20    2      2.08      0.00
   -2   20    1     -3.16      0.00
    2   20    0     -1.79      0.00
    2   20    1      0.02      0.00
    2   20    2      0.18      0.00
   -3    0   18      0.72      0.00
   -3    0   16     -0.07      0.00
   -3    0   14     -4.89      0.00
   -3    0   12      3.08      0.00
   -3    0   10      2.17      0.00
   -3    0    8      2.08      0.00
   -3    0    6      2.08      0.00
   -3    0    4      3.25      0.00
   -3    0    2     13.44      0.00
    3    0    0     32.06      0.00
    3    0    2     75.64      0.00
    3    0    4     -8.63      0.00
    3    0    6      0.69      0.00
    3    0    8      0.85      0.00
    3    0   10      5.14      0.00
    3    0   12      0.21      0.00
    3    0   14      0.67      0.00
    3    0   16     -1.81      0.00
   -3    1   18      2.20      0.00
   -3    1   17     -0.28      0.00
   -3    1   16      0.29      0.00
   -3    1   15     -1.41      0.00
   -3    1   14     -3.42      0.00
   -3    1   13     -2.45      0.00
   -3    1   12      3.03      0.00
   -3    1   11      0.75      0.00
   -3    1   10     -4.72      0.00
   -3    1    9     -0.91      0.00
   -3    1    8      8.75      0.00
   -3    1    7     -8.68      0.00
   -3    1    6     -9.97      0.00
   -3    1    5    -25.81      0.00
   -3    1    4     10.55      0.00
   -3    1    3    -16.05      0.00
   -3    1    2    -83.95      0.00
   -3    1    1    -11.96      0.00
    3    1    0     -5.13      0.00
    3    1    1     -6.45      0.00
    3    1    2    -48.66      0.00
    3    1    3      2.41      0.00
    3    1    4     -7.57      0.00
    3    1    5     -4.22      0.00
    3    1    6      1.05      0.00
    3    1    7     -5.78      0.00
    3    1    8     -0.22      0.00
    3    1    9     -0.48      0.00
    3    1   10     -0.45      0.00
    3    1   11      1.59      0.00
    3    1   12      2.07      0.00
    3    1   13      0.38      0.00
    3    1   14      0.19      0.00
    3    1   15     -0.04      0.00
    3    1   16     -1.78      0.00
    3    1   17     -0.38      0.00
   -3    2   18     -1.66      0.00
   -3    2   17      2.44      0.00
   -3    2   16     -0.23      0.00
   -3    2   15     -1.66      0.00
   -3    2   14      0.12      0.00
   -3    2   13     -0.62      0.00
   -3    2   12     -4.52      0.00
   -3    2   11     -1.16      0.00
   -3    2   10     -1.06      0.00
   -3    2    9      1.72      0.00
   -3    2    8    -11.03      0.00
   -3    2    7      0.77      0.00
   -3    2    6    -34.18      0.00
   -3    2    5      2.69      0.00
   -3    2    4    -47.02      0.00
   -3    2    3    -39.79      0.00
   -3    2    2    -33.82      0.00
   -3    2    1    -75.90      0.00
    3    2    0    -48.21      0.00
    3    2    1    -52.71      0.00
    3    2    2    -81.04      0.00
    3    2    3    -29.28      0.00
    3    2    4     15.57      0.00
    3    2    5      2.98      0.00
    3    2    6     -7.22      0.00
    3    2    7      5.64      0.00
    3    2    8     -4.72      0.00
    3    2    9     -2.48      0.00
    3    2   10     -4.01      0.00
    3    2   11      1.92      0.00
    3    2   12     -0.28      0.00
    3    2   13      2.33      0.00
    3    2   14     -1.17      0.00
    3    2   15     -0.02      0.00
    3    2   16      1.90      0.00
    3    2   17     -0.35      0.00
   -3    3   17      0.03      0.00
   -3    3   16      1.09      0.00
   -3    3   15      1.02      0.00
   -3    3   14      0.73      0.00
   -3    3   13      0.22      0.00
   -3    3   12     -1.49      0.00
   -3    3   11     -2.37      0.00
   -3    3   10      0.98      0.00
   -3    3    9     -3.04      0.00
   -3    3    8     -9.98      0.00
   -3    3    7    -17.00      0.00
   -3    3    6      9.55      0.00
   -3    3    5     -9.10      0.00
   -3    3    4    -33.90      0.00
   -3    3    3    -33.07      0.00
   -3    3    2    -35.64      0.00
   -3    3    1      3.33      0.00
    3    3    0     16.07      0.00
    3    3    1    -32.36      0.00
    3    3    2    -35.12      0.00
    3    3    3    -10.33      0.00
    3    3    4     -9.02      0.00
    3    3    5     17.20      0.00
    3    3    6      7.18      0.00
    3    3    7      7.15      0.00
    3    3    8      2.45      0.00
    3    3    9     -1.29      0.00
    3    3   10      0.86      0.00
    3    3   11     -4.42      0.00
    3    3   12      3.20      0.00
    3    3   13     -2.73      0.00
    3    3   14      3.30      0.00
    3    3   15      0.40      0.00
    3    3   16      1.35      0.00
    3    3   17      0.58      0.00
   -3    4   17     -0.54      0.00
   -3    4   16      1.13      0.00
   -3    4   15      1.56      0.00
   -3    4   14      1.73      0.00
   -3    4   13      2.39      0.00
   -3    4   12      3.48      0.00
   -3    4   11      0.43      0.00
   -3    4   10     -3.83      0.00
   -3    4    9    -11.38      0.00
   -3    4    8     -5.18      0.00
   -3    4    7     -2.84      0.00
   -3    4    6      5.51      0.00
   -3    4    5    -12.59      0.00
   -3    4    4     -7.24      0.00
   -3    4    3    -36.37      0.00
   -3    4    2     -5.19      0.00
   -3    4    1     10.46      0.00
    3    4    0     23.01      0.00
    3    4    1      7.29      0.00
    3    4    2     26.50      0.00
    3    4    3    -17.75      0.00
    3    4    4    -10.50      0.00
    3    4    5     -1.54      0.00
    3    4    6     20.07      0.00
    3    4    7      5.95      0.00
    3    4    8      6.48      0.00
    3    4    9      4.82      0.00
    3    4   10     -1.65      0.00
    3    4   11      3.65      0.00
    3    4   12     -4.24      0.00
    3    4   13      2.65      0.00
    3    4   14      1.20      0.00
    3    4   15      1.95      0.00
    3    4   16     -0.64      0.00
    3    4   17     -0.64      0.00
   -3    5   17     -1.63      0.00
   -3    5   16     -0.22      0.00
   -3    5   15      2.20      0.00
   -3    5   14      2.27      0.00
   -3    5   13      2.70      0.00
   -3    5   12      2.70      0.00
   -3    5   11      1.73      0.00
   -3    5   10     -8.48      0.00
   -3    5    9     -6.32      0.00
   -3    5    8     -1.19      0.00
   -3    5    7      7.05      0.00
   -3    5    6    -12.04      0.00
   -3    5    5    -16.56      0.00
   -3    5    4     -4.72      0.00
   -3    5    3     -4.82      0.00
   -3    5    2     -1.03      0.00
   -3    5    1    -11.51      0.00
    3    5    0    -11.57      0.00
    3    5    1     24.26      0.00
    3    5    2      8.09      0.00
    3    5    3     -0.55      0.00
    3    5    4     -7.22      0.00
    3    5    5     -9.94      0.00
    3    5    6      3.04      0.00
    3    5    7      6.62      0.00
    3    5    8      9.27      0.00
    3    5    9     -0.40      0.00
    3    5   10      4.19      0.00
    3    5   11     -0.57      0.00
    3    5   12      1.48      0.00
    3    5   13      0.23      0.00
    3    5   14     -0.85      0.00
    3    5   15      1.18      0.00
    3    5   16     -1.37      0.00
   -3    6   17      1.52      0.00
   -3    6   16      0.41      0.00
   -3    6   15      0.20      0.00
   -3    6   14      2.11      0.00
   -3    6   13      1.01      0.00
   -3    6   12      0.41      0.00
   -3    6   11     -5.19      0.00
   -3    6   10      1.22      0.00
   -3    6    9      1.81      0.00
   -3    6    8      4.88      0.00
   -3    6    7     -4.96      0.00
   -3    6    6     -6.20      0.00
   -3    6    5     -8.50      0.00
   -3    6    4     -0.59      0.00
   -3    6    3     17.52      0.00
   -3    6    2      2.09      0.00
   -3    6    1     -9.94      0.00
    3    6    0     -6.31      0.00
    3    6    1     -6.17      0.00
    3    6    2      4.38      0.00
    3    6    3      6.25      0.00
    3    6    4      6.13      0.00
    3    6    5    -10.08      0.00
    3    6    6    -11.28      0.00
    3    6    7      6.62      0.00
    3    6    8      2.56      0.00
    3    6    9      5.26      0.00
    3    6   10      1.43      0.00
    3    6   11      0.00      0.00
    3    6   12      3.05      0.00
    3    6   13     -2.92      0.00
    3    6   14     -0.72      0.00
    3    6   15     -0.99      0.00
    3    6   16      1.31      0.00
   -3    7   17     -0.09      0.00
   -3    7   16      1.38      0.00
   -3    7   15      2.17      0.00
   -3    7   14     -0.33      0.00
   -3    7   13     -0.34      0.00
   -3    7   12     -2.80      0.00
   -3    7   11      0.29      0.00
   -3    7   10      1.88      0.00
   -3    7    9      7.57      0.00
   -3    7    8      2.64      0.00
   -3    7    7     -2.82      0.00
   -3    7    6     -4.19      0.00
   -3    7    5     20.06      0.00
   -3    7    4     -0.94      0.00
   -3    7    3     14.08      0.00
   -3    7    2     -0.90      0.00
   -3    7    1      7.50      0.00
    3    7    0     12.86      0.00
    3    7    1     -8.39      0.00
    3    7    2     -2.81      0.00
    3    7    3     16.01      0.00
    3    7    4     -3.56      0.00
    3    7    5      0.66      0.00
    3    7    6    -10.96      0.00
    3    7    7     -4.77      0.00
    3    7    8      6.68      0.00
    3    7    9      3.70      0.00
    3    7   10      1.82      0.00
    3    7   11      3.99      0.00
    3    7   12     -2.99      0.00
    3    7   13      1.14      0.00
    3    7   14     -2.54      0.00
    3    7   15     -0.55      0.00
    3    7   16      0.42      0.00
   -3    8   16      2.12      0.00
   -3    8   15      0.45      0.00
   -3    8   14      0.32      0.00
   -3    8   13      0.21      0.00
   -3    8   12     -1.07      0.00
   -3    8   11      3.68      0.00
   -3    8   10      2.12      0.00
   -3    8    9      5.28      0.00
   -3    8    8     -3.67      0.00
   -3    8    7      6.41      0.00
   -3    8    6     12.88      0.00
   -3    8    5      5.93      0.00
   -3    8    4     18.31      0.00
   -3    8    3    -10.56      0.00
   -3    8    2      2.02      0.00
   -3    8    1      3.44      0.00
    3    8    0     -7.23      0.00
    3    8    1     11.52      0.00
    3    8    2      0.76      0.00
    3    8    3     -1.31      0.00
    3    8    4      1.48      0.00
    3    8    5     -3.29      0.00
    3    8    6     -2.69      0.00
    3    8    7     -5.20      0.00
    3    8    8     -5.18      0.00
    3    8    9      7.30      0.00
    3    8   10      1.93      0.00
    3    8   11      2.00      0.00
    3    8   12      0.05      0.00
    3    8   13     -1.18      0.00
    3    8   14     -0.01      0.00
    3    8   15     -1.88      0.00
   -3    9   16     -0.47      0.00
   -3    9   15      1.84      0.00
   -3    9   14      1.04      0.00
   -3    9   13     -0.62      0.00
   -3    9   12      5.93      0.00
   -3    9   11      1.95      0.00
   -3    9   10      5.30      0.00
   -3    9    9     -4.58      0.00
   -3    9    8      6.08      0.00
   -3    9    7      7.05      0.00
   -3    9    6     11.66      0.00
   -3    9    5      4.20      0.00
   -3    9    4      2.84      0.00
   -3    9    3      3.11      0.00
   -3    9    2      1.82      0.00
   -3    9    1    -10.69      0.00
    3    9    0     -5.05      0.00
    3    9    1      1.74      0.00
    3    9    2      7.70      0.00
    3    9    3     -4.64      0.00
    3    9    4      1.68      0.00
    3    9    5      0.45      0.00
    3    9    6     -0.82      0.00
    3    9    7     -4.06      0.00
    3    9    8     -4.03      0.00
    3    9    9     -2.16      0.00
    3    9   10      3.83      0.00
    3    9   11     -0.85      0.00
    3    9   12      4.52      0.00
    3    9   13     -1.26      0.00
    3    9   14     -1.29      0.00
    3    9   15     -0.26      0.00
   -3   10   15      0.66      0.00
   -3   10   14      1.39      0.00
   -3   10   13      3.53      0.00
   -3   10   12      3.20      0.00
   -3   10   11      4.13      0.00
   -3   10   10      2.77      0.00
   -3   10    9      1.17      0.00
   -3   10    8      7.49      0.00
   -3   10    7      3.51      0.00
   -3   10    6      5.67      0.00
   -3   10    5      2.73      0.00
   -3   10    4     -0.50      0.00
   -3   10    3      6.97      0.00
   -3   10    2      2.91      0.00
   -3   10    1     -0.14      0.00
    3   10    0      4.25      0.00
    3   10    1     -5.35      0.00
    3   10    2      4.53      0.00
    3   10    3      3.06      0.00
    3   10    4      0.66      0.00
    3   10    5      1.58      0.00
    3   10    6      2.52      0.00
    3   10    7     -5.25      0.00
    3   10    8      3.54      0.00
    3   10    9     -9.24      0.00
    3   10   10      0.26      0.00
    3   10   11      1.01      0.00
    3   10   12      1.56      0.00
    3   10   13      1.94      0.00
    3   10   14     -0.26      0.00
    3   10   15     -1.72      0.00
   -3   11   15     -1.02      0.00
   -3   11   14      1.97      0.00
   -3   11   13      2.60      0.00
   -3   11   12     -0.09      0.00
   -3   11   11      2.53      0.00
   -3   11   10     -0.15      0.00
   -3   11    9      8.37      0.00
   -3   11    8     -1.13      0.00
   -3   11    7      5.05      0.00
   -3   11    6     -0.90      0.00
   -3   11    5      2.10      0.00
   -3   11    4      4.22      0.00
   -3   11    3      0.72      0.00
   -3   11    2      1.57      0.00
   -3   11    1     11.31      0.00
    3   11    0     -0.87      0.00
    3   11    1      4.05      0.00
    3   11    2     -4.26      0.00
    3   11    3      3.92      0.00
    3   11    4      1.69      0.00
    3   11    5     -3.30      0.00
    3   11    6     -1.16      0.00
    3   11    7      5.78      0.00
    3   11    8     -7.26      0.00
    3   11    9      1.35      0.00
    3   11   10     -7.54      0.00
    3   11   11      0.99      0.00
    3   11   12     -0.83      0.00
    3   11   13      2.02      0.00
    3   11   14     -0.98      0.00
   -3   12   14     -0.67      0.00
   -3   12   13      0.45      0.00
   -3   12   12     -0.31      0.00
   -3   12   11     -1.88      0.00
   -3   12   10      0.75      0.00
   -3   12    9      0.92      0.00
   -3   12    8      0.01      0.00
   -3   12    7      0.34      0.00
   -3   12    6     -3.89      0.00
   -3   12    5      5.15      0.00
   -3   12    4     -3.67      0.00
   -3   12    3      2.04      0.00
   -3   12    2      2.50      0.00
   -3   12    1      4.21      0.00
    3   12    0      3.58      0.00
    3   12    1     -0.72      0.00
    3   12    2     -1.59      0.00
    3   12    3     -0.31      0.00
    3   12    4     -5.12      0.00
    3   12    5     -0.22      0.00
    3   12    6     -0.79      0.00
    3   12    7     -2.15      0.00
    3   12    8      0.13      0.00
    3   12    9      0.23      0.00
    3   12   10     -1.91      0.00
    3   12   11     -3.27      0.00
    3   12   12     -2.87      0.00
    3   12   13     -0.38      0.00
   -3   13   13     -1.34      0.00
   -3   13   12     -0.38      0.00
   -3   13   11      0.46      0.00
   -3   13   10     -0.13      0.00
   -3   13    9     -3.92      0.00
   -3   13    8      1.42      0.00
   -3   13    7     -3.94      0.00
   -3   13    6      3.05      0.00
   -3   13    5     -6.33      0.00
   -3   13    4      1.75      0.00
   -3   13    3     -1.03      0.00
   -3   13    2      1.47      0.00
   -3   13    1     -0.70      0.00
    3   13    0     -2.75      0.00
    3   13    1     -0.66      0.00
    3   13    2      1.92      0.00
    3   13    3     -7.17      0.00
    3   13    4     -0.50      0.00
    3   13    5      1.04      0.00
    3   13    6     -4.34      0.00
    3   13    7     -0.38      0.00
    3   13    8      1.93      0.00
    3   13    9      0.56      0.00
    3   13   10      2.29      0.00
    3   13   11     -4.65      0.00
    3   13   12     -1.64      0.00
    3   13   13     -2.29      0.00
   -3   14   13     -0.22      0.00
   -3   14   12      0.13      0.00
   -3   14   11     -0.82      0.00
   -3   14   10      1.39      0.00
   -3   14    9     -1.68      0.00
   -3   14    8     -0.70      0.00
   -3   14    7      0.33      0.00
   -3   14    6      0.39      0.00
   -3   14    5     -1.77      0.00
   -3   14    4      0.66      0.00
   -3   14    3      0.00      0.00
   -3   14    2     -1.14      0.00
   -3   14    1     -0.93      0.00
    3   14    0      0.83      0.00
    3   14    1      0.31      0.00
    3   14    2     -3.63      0.00
    3   14    3      0.64      0.00
    3   14    4      0.51      0.00
    3   14    5     -3.67      0.00
    3   14    6      2.33      0.00
    3   14    7     -1.12      0.00
    3   14    8      1.56      0.00
    3   14    9      0.95      0.00
    3   14   10      0.81      0.00
    3   14   11     -1.58      0.00
    3   14   12     -1.07      0.00
   -3   15   12     -1.53      0.00
   -3   15   11      0.76      0.00
   -3   15   10     -2.65      0.00
   -3   15    9      3.12      0.00
   -3   15    8     -0.95      0.00
   -3   15    7      1.20      0.00
   -3   15    6     -1.76      0.00
   -3   15    5      4.12      0.00
   -3   15    4      0.11      0.00
   -3   15    3      0.20      0.00
   -3   15    2      1.43      0.00
   -3   15    1     -0.70      0.00
    3   15    0      1.97      0.00
    3   15    1     -3.32      0.00
    3   15    2      0.85      0.00
    3   15    3      1.17      0.00
    3   15    4     -1.71      0.00
    3   15    5      0.57      0.00
    3   15    6      1.30      0.00
    3   15    7      0.76      0.00
    3   15    8     -0.43      0.00
    3   15    9      0.43      0.00
    3   15   10     -1.69      0.00
    3   15   11      3.44      0.00
   -3   16   11     -2.13      0.00
   -3   16   10      1.73      0.00
   -3   16    9     -1.01      0.00
   -3   16    8     -0.14      0.00
   -3   16    7      0.68      0.00
   -3   16    6     -0.08      0.00
   -3   16    5      0.45      0.00
   -3   16    4      2.28      0.00
   -3   16    3      1.43      0.00
   -3   16    2      1.41      0.00
   -3   16    1      0.48      0.00
    3   16    0     -6.36      0.00
    3   16    1      3.03      0.00
    3   16    2      0.00      0.00
    3   16    3     -0.44      0.00
    3   16    4      1.01      0.00
    3   16    5      2.72      0.00
    3   16    6     -1.54      0.00
    3   16    7     -0.52      0.00
    3   16    8     -0.98      0.00
    3   16    9     -0.60      0.00
    3   16   10      1.56      0.00
   -3   17    9     -0.45      0.00
   -3   17    8     -0.32      0.00
   -3   17    7     -1.19      0.00
   -3   17    6      1.25      0.00
   -3   17    5     -1.14      0.00
   -3   17    4      0.20      0.00
   -3   17    3      3.22      0.00
   -3   17    2     -2.54      0.00
   -3   17    1     -3.35      0.00
    3   17    0      1.49      0.00
    3   17    1     -1.59      0.00
    3   17    2      0.23      0.00
    3   17    3      1.82      0.00
    3   17    4      2.10      0.00
    3   17    5     -0.65      0.00
    3   17    6      0.11      0.00
    3   17    7     -1.64      0.00
    3   17    8     -1.29      0.00
    3   17    9     -0.29      0.00
   -3   18    8      1.28      0.00
   -3   18    7     -1.21      0.00
   -3   18    6      1.08      0.00
   -3   18    5      1.01      0.00
   -3   18    4      0.08      0.00
   -3   18    3     -1.62      0.00
   -3   18    2     -1.48      0.00
   -3   18    1     -4.92      0.00
    3   18    0     -0.27      0.00
    3   18    1     -2.82      0.00
    3   18    2      1.96      0.00
    3   18    3      0.28      0.00
    3   18    4      0.44      0.00
    3   18    5      0.98      0.00
    3   18    6      0.02      0.00
    3   18    7      0.22      0.00
   -3   19    6     -0.86      0.00
   -3   19    5      3.66      0.00
   -3   19    4      1.56      0.00
   -3   19    3     -1.99      0.00
   -3   19    2     -4.23      0.00
   -3   19    1      0.63      0.00
    3   19    0      0.52      0.00
    3   19    1      0.86      0.00
    3   19    2     -2.59      0.00
    3   19    3      1.32      0.00
    3   19    4     -0.66      0.00
    3   19    5     -0.37      0.00
   -3   20    2     -0.63      0.00
   -3   20    1     -2.84      0.00
    3   20    0      0.53      0.00
    3   20    1      0.65      0.00
   -4    0   18     -0.14      0.00
   -4    0   16     -0.72      0.00
   -4    0   14      3.48      0.00
   -4    0   12      1.52      0.00
   -4    0   10      3.24      0.00
   -4    0    8     -8.42      0.00
   -4    0    6     19.41      0.00
   -4    0    4     13.86      0.00
   -4    0    2     -7.60      0.00
    4    0    2     37.52      0.00
    4    0    4     -9.92      0.00
    4    0    6     -7.84      0.00
    4    0    8     19.63      0.00
    4    0   10      7.30      0.00
    4    0   12      1.96      0.00
    4    0   14      4.94      0.00
    4    0   16      2.28      0.00
   -4    1   18      1.12      0.00
   -4    1   17      0.20      0.00
   -4    1   16      0.89      0.00
   -4    1   15      1.41      0.00
   -4    1   14     -1.06      0.00
   -4    1   13      2.86      0.00
   -4    1   12     -3.66      0.00
   -4    1   11     -0.93      0.00
   -4    1   10      2.31      0.00
   -4    1    9     -3.78      0.00
   -4    1    8     -1.45      0.00
   -4    1    7     -0.72      0.00
   -4    1    6     19.73      0.00
   -4    1    5      3.64      0.00
   -4    1    4    -21.35      0.00
   -4    1    3    -12.93      0.00
   -4    1    2      3.26      0.00
   -4    1    1     29.75      0.00
    4    1    0     42.22      0.00
    4    1    1     25.59      0.00
    4    1    2    -13.27      0.00
    4    1    3    -20.44      0.00
    4    1    4     -9.23      0.00
    4    1    5    -15.75      0.00
    4    1    6     -3.28      0.00
    4    1    7      0.94      0.00
    4    1    8      5.50      0.00
    4    1    9      7.62      0.00
    4    1   10      2.83      0.00
    4    1   11      2.92      0.00
    4    1   12      0.35      0.00
    4    1   13      3.23      0.00
    4    1   14     -0.24      0.00
    4    1   15      4.40      0.00
    4    1   16      0.42      0.00
    4    1   17      1.40      0.00
   -4    2   18     -0.26      0.00
   -4    2   17      0.91      0.00
   -4    2   16      2.72      0.00
   -4    2   15      1.74      0.00
   -4    2   14      0.50      0.00
   -4    2   13     -3.61      0.00
   -4    2   12      0.66      0.00
   -4    2   11     -4.45      0.00
   -4    2   10     -6.83      0.00
   -4    2    9     -0.03      0.00
   -4    2    8      3.06      0.00
   -4    2    7      6.91      0.00
   -4    2    6    -14.69      0.00
   -4    2    5     -8.20      0.00
   -4    2    4    -21.87      0.00
   -4    2    3     -2.98      0.00
   -4    2    2     17.77      0.00
   -4    2    1    -14.49      0.00
    4    2    0    -36.03      0.00
    4    2    1     28.11      0.00
    4    2    2    -35.65      0.00
    4    2    3    -18.59      0.00
    4    2    4    -25.29      0.00
    4    2    5     -7.25      0.00
    4    2    6     -1.94      0.00
    4    2    7      5.25      0.00
    4    2    8     -8.06      0.00
    4    2    9      8.19      0.00
    4    2   10      4.35      0.00
    4    2   11      0.43      0.00
    4    2   12      2.23      0.00
    4    2   13     -2.50      0.00
    4    2   14      2.15      0.00
    4    2   15      0.07      0.00
    4    2   16      3.10      0.00
    4    2   17      0.69      0.00
   -4    3   18     -0.51      0.00
   -4    3   17      2.10      0.00
   -4    3   16      1.65      0.00
   -4    3   15      0.38      0.00
   -4    3   14      0.40      0.00
   -4    3   13     -2.02      0.00
   -4    3   12     -3.43      0.00
   -4    3   11      0.27      0.00
   -4    3   10     -6.99      0.00
   -4    3    9      0.29      0.00
   -4    3    8      4.57      0.00
   -4    3    7      1.18      0.00
   -4    3    6    -22.17      0.00
   -4    3    5    -13.36      0.00
   -4    3    4      0.18      0.00
   -4    3    3     24.90      0.00
   -4    3    2    -15.05      0.00
   -4    3    1    -21.01      0.00
    4    3    0     -0.94      0.00
    4    3    1    -18.30      0.00
    4    3    2     21.25      0.00
    4    3    3      3.37      0.00
    4    3    4    -11.23      0.00
    4    3    5      2.19      0.00
    4    3    6      0.22      0.00
    4    3    7     -1.07      0.00
    4    3    8      5.23      0.00
    4    3    9      2.80      0.00
    4    3   10      2.93      0.00
    4    3   11      3.42      0.00
    4    3   12     -3.15      0.00
    4    3   13      0.21      0.00
    4    3   14     -0.24      0.00
    4    3   15     -0.08      0.00
    4    3   16      2.00      0.00
    4    3   17      1.39      0.00
   -4    4   17      0.75      0.00
   -4    4   16      0.06      0.00
   -4    4   15     -0.60      0.00
   -4    4   14     -2.34      0.00
   -4    4   13      1.37      0.00
   -4    4   12     -2.10      0.00
   -4    4   11     -3.86      0.00
   -4    4   10      4.51      0.00
   -4    4    9     -2.60      0.00
   -4    4    8     -3.90      0.00
   -4    4    7    -15.24      0.00
   -4    4    6      2.56      0.00
   -4    4    5    -11.03      0.00
   -4    4    4     20.84      0.00
   -4    4    3    -17.91      0.00
   -4    4    2    -14.52      0.00
   -4    4    1     -9.24      0.00
    4    4    0     -4.55      0.00
    4    4    1    -10.14      0.00
    4    4    2     18.85      0.00
    4    4    3     23.89      0.00
    4    4    4     14.92      0.00
    4    4    5     -1.54      0.00
    4    4    6     -5.79      0.00
    4    4    7     -0.93      0.00
    4    4    8      5.36      0.00
    4    4    9     -1.67      0.00
    4    4   10      1.84      0.00
    4    4   11     -0.47      0.00
    4    4   12      1.33      0.00
    4    4   13      1.33      0.00
    4    4   14     -1.63      0.00
    4    4   15      1.80      0.00
    4    4   16      0.95      0.00
   -4    5   17      1.85      0.00
   -4    5   16     -1.98      0.00
   -4    5   15     -1.42      0.00
   -4    5   14      0.10      0.00
   -4    5   13     -1.81      0.00
   -4    5   12     -0.50      0.00
   -4    5   11     -1.01      0.00
   -4    5   10     -0.11      0.00
   -4    5    9      0.40      0.00
   -4    5    8    -14.01      0.00
   -4    5    7    -13.36      0.00
   -4    5    6     -4.66      0.00
   -4    5    5     10.58      0.00
   -4    5    4    -16.83      0.00
   -4    5    3    -23.21      0.00
   -4    5    2    -13.30      0.00
   -4    5    1     -7.71      0.00
    4    5    0     -0.10      0.00
    4    5    1     -5.39      0.00
    4    5    2    -12.62      0.00
    4    5    3      2.42      0.00
    4    5    4     23.18      0.00
    4    5    5     -2.83      0.00
    4    5    6      1.81      0.00
    4    5    7    -10.36      0.00
    4    5    8     -5.20      0.00
    4    5    9     -1.48      0.00
    4    5   10     -3.09      0.00
    4    5   11      0.66      0.00
    4    5   12      3.50      0.00
    4    5   13     -0.19      0.00
    4    5   14      1.57      0.00
    4    5   15      0.94      0.00
    4    5   16     -1.22      0.00
   -4    6   17     -0.84      0.00
   -4    6   16      1.52      0.00
   -4    6   15     -1.44      0.00
   -4    6   14     -1.81      0.00
   -4    6   13     -2.87      0.00
   -4    6   12     -1.16      0.00
   -4    6   11     -0.15      0.00
   -4    6   10     -0.42      0.00
   -4    6    9     -8.08      0.00
   -4    6    8     -6.57      0.00
   -4    6    7     -6.19      0.00
   -4    6    6     -8.99      0.00
   -4    6    5    -13.68      0.00
   -4    6    4    -16.23      0.00
   -4    6    3    -11.07      0.00
   -4    6    2      0.57      0.00
   -4    6    1     -7.00      0.00
    4    6    0      0.29      0.00
    4    6    1     -6.06      0.00
    4    6    2     -9.89      0.00
    4    6    3    -17.07      0.00
    4    6    4     -0.37      0.00
    4    6    5     16.65      0.00
    4    6    6      0.08      0.00
    4    6    7     -3.17      0.00
    4    6    8    -12.68      0.00
    4    6    9     -5.53      0.00
    4    6   10     -0.46      0.00
    4    6   11      0.43      0.00
    4    6   12     -0.28      0.00
    4    6   13      2.26      0.00
    4    6   14      1.68      0.00
    4    6   15     -1.87      0.00
    4    6   16      2.06      0.00
   -4    7   17      0.53      0.00
   -4    7   16     -0.51      0.00
   -4    7   15     -0.21      0.00
   -4    7   14     -3.11      0.00
   -4    7   13     -1.07      0.00
   -4    7   12     -1.60      0.00
   -4    7   11      1.47      0.00
   -4    7   10     -5.57      0.00
   -4    7    9     -5.22      0.00
   -4    7    8     -1.20      0.00
   -4    7    7     -0.31      0.00
   -4    7    6    -10.18      0.00
   -4    7    5    -16.65      0.00
   -4    7    4    -11.71      0.00
   -4    7    3     12.98      0.00
   -4    7    2     -8.72      0.00
   -4    7    1      7.97      0.00
    4    7    0      0.32      0.00
    4    7    1      6.63      0.00
    4    7    2     -8.34      0.00
    4    7    3     -3.80      0.00
    4    7    4    -12.67      0.00
    4    7    5      8.10      0.00
    4    7    6      7.04      0.00
    4    7    7     -0.14      0.00
    4    7    8     -5.22      0.00
    4    7    9     -7.12      0.00
    4    7   10     -0.61      0.00
    4    7   11     -3.72      0.00
    4    7   12      0.05      0.00
    4    7   13      2.42      0.00
    4    7   14     -0.98      0.00
    4    7   15      0.74      0.00
    4    7   16     -0.83      0.00
   -4    8   16     -0.80      0.00
   -4    8   15     -1.08      0.00
   -4    8   14      0.69      0.00
   -4    8   13      0.12      0.00
   -4    8   12      0.73      0.00
   -4    8   11     -1.15      0.00
   -4    8   10     -4.58      0.00
   -4    8    9      2.01      0.00
   -4    8    8     -3.67      0.00
   -4    8    7      1.70      0.00
   -4    8    6     -4.13      0.00
   -4    8    5     -2.11      0.00
   -4    8    4     -0.92      0.00
   -4    8    3     -3.65      0.00
   -4    8    2      3.03      0.00
   -4    8    1     -0.14      0.00
    4    8    0     -2.36      0.00
    4    8    1     -1.41      0.00
    4    8    2     -3.03      0.00
    4    8    3      5.22      0.00
    4    8    4     -6.39      0.00
    4    8    5     -5.56      0.00
    4    8    6      4.34      0.00
    4    8    7      4.43      0.00
    4    8    8     -1.00      0.00
    4    8    9      2.00      0.00
    4    8   10    -10.50      0.00
    4    8   11      2.13      0.00
    4    8   12     -2.08      0.00
    4    8   13     -2.03      0.00
    4    8   14      1.89      0.00
    4    8   15      0.12      0.00
   -4    9   16     -0.26      0.00
   -4    9   15     -0.10      0.00
   -4    9   14      1.13      0.00
   -4    9   13      1.09      0.00
   -4    9   12      0.56      0.00
   -4    9   11     -4.83      0.00
   -4    9   10      4.22      0.00
   -4    9    9     -3.45      0.00
   -4    9    8      3.26      0.00
   -4    9    7     -2.08      0.00
   -4    9    6      2.92      0.00
   -4    9    5      3.07      0.00
   -4    9    4      4.58      0.00
   -4    9    3    -12.00      0.00
   -4    9    2      6.16      0.00
   -4    9    1     -2.80      0.00
    4    9    0      0.31      0.00
    4    9    1    -12.02      0.00
    4    9    2      6.90      0.00
    4    9    3     -7.47      0.00
    4    9    4      7.60      0.00
    4    9    5     -5.19      0.00
    4    9    6     -4.28      0.00
    4    9    7      5.69      0.00
    4    9    8      6.14      0.00
    4    9    9     -5.84      0.00
    4    9   10      3.97      0.00
    4    9   11     -5.60      0.00
    4    9   12     -0.84      0.00
    4    9   13     -0.83      0.00
    4    9   14     -0.29      0.00
    4    9   15      1.01      0.00
   -4   10   15      0.93      0.00
   -4   10   14      0.59      0.00
   -4   10   13     -0.35      0.00
   -4   10   12     -1.05      0.00
   -4   10   11      0.20      0.00
   -4   10   10      0.30      0.00
   -4   10    9      1.03      0.00
   -4   10    8      3.26      0.00
   -4   10    7     -3.12      0.00
   -4   10    6      6.63      0.00
   -4   10    5     -0.71      0.00
   -4   10    4     -1.92      0.00
   -4   10    3      7.32      0.00
   -4   10    2     -4.12      0.00
   -4   10    1      1.97      0.00
    4   10    0      1.49      0.00
    4   10    1      6.06      0.00
    4   10    2     -3.57      0.00
    4   10    3     -0.73      0.00
    4   10    4      0.54      0.00
    4   10    5     -1.60      0.00
    4   10    6      3.69      0.00
    4   10    7     -4.33      0.00
    4   10    8      2.54      0.00
    4   10    9      2.18      0.00
    4   10   10      0.92      0.00
    4   10   11     -1.82      0.00
    4   10   12     -1.60      0.00
    4   10   13     -2.35      0.00
    4   10   14      1.24      0.00
   -4   11   15      1.05      0.00
   -4   11   14      0.15      0.00
   -4   11   13     -0.36      0.00
   -4   11   12     -0.53      0.00
   -4   11   11      4.73      0.00
   -4   11   10     -1.87      0.00
   -4   11    9      4.44      0.00
   -4   11    8     -1.73      0.00
   -4   11    7      6.57      0.00
   -4   11    6     -3.52      0.00
   -4   11    5      0.26      0.00
   -4   11    4      2.41      0.00
   -4   11    3      1.20      0.00
   -4   11    2      2.95      0.00
   -4   11    1     -1.93      0.00
    4   11    0      4.47      0.00
    4   11    1      7.13      0.00
    4   11    2      1.24      0.00
    4   11    3      3.12      0.00
    4   11    4     -6.25      0.00
    4   11    5      4.92      0.00
    4   11    6     -1.23      0.00
    4   11    7     -2.86      0.00
    4   11    8     -1.32      0.00
    4   11    9      5.05      0.00
    4   11   10     -0.83      0.00
    4   11   11      2.16      0.00
    4   11   12     -4.29      0.00
    4   11   13     -0.18      0.00
    4   11   14     -0.65      0.00
   -4   12   14     -0.44      0.00
   -4   12   13      1.29      0.00
   -4   12   12      1.32      0.00
   -4   12   11      0.61      0.00
   -4   12   10      2.89      0.00
   -4   12    9      0.04      0.00
   -4   12    8      1.77      0.00
   -4   12    7      1.28      0.00
   -4   12    6     -2.20      0.00
   -4   12    5      4.31      0.00
   -4   12    4     -2.44      0.00
   -4   12    3      1.36      0.00
   -4   12    2     -3.33      0.00
   -4   12    1     -0.03      0.00
    4   12    0     -1.94      0.00
    4   12    1      2.71      0.00
    4   12    2      4.16      0.00
    4   12    3     -0.08      0.00
    4   12    4      3.72      0.00
    4   12    5     -1.20      0.00
    4   12    6     -5.67      0.00
    4   12    7      4.03      0.00
    4   12    8     -2.76      0.00
    4   12    9      1.22      0.00
    4   12   10      2.22      0.00
    4   12   11      1.20      0.00
    4   12   12     -1.34      0.00
    4   12   13     -2.70      0.00
   -4   13   13     -0.09      0.00
   -4   13   12      2.23      0.00
   -4   13   11     -0.21      0.00
   -4   13   10      0.42      0.00
   -4   13    9      0.30      0.00
   -4   13    8     -0.35      0.00
   -4   13    7     -1.99      0.00
   -4   13    6      3.88      0.00
   -4   13    5     -0.38      0.00
   -4   13    4      1.63      0.00
   -4   13    3     -3.00      0.00
   -4   13    2     -1.08      0.00
   -4   13    1     -1.71      0.00
    4   13    0     -1.01      0.00
    4   13    1     -2.02      0.00
    4   13    2     -1.46      0.00
    4   13    3      4.97      0.00
    4   13    4      0.34      0.00
    4   13    5     -3.39      0.00
    4   13    6      1.26      0.00
    4   13    7     -2.17      0.00
    4   13    8      0.88      0.00
    4   13    9     -1.26      0.00
    4   13   10      1.95      0.00
    4   13   11     -1.08      0.00
    4   13   12      1.49      0.00
   -4   14   13     -1.69      0.00
   -4   14   12      0.87      0.00
   -4   14   11     -0.59      0.00
   -4   14   10     -0.51      0.00
   -4   14    9     -1.25      0.00
   -4   14    8      0.64      0.00
   -4   14    7     -1.07      0.00
   -4   14    6      3.30      0.00
   -4   14    5     -0.02      0.00
   -4   14    4      2.04      0.00
   -4   14    3     -1.48      0.00
   -4   14    2     -0.29      0.00
   -4   14    1     -2.17      0.00
    4   14    0     -0.04      0.00
    4   14    1     -4.15      0.00
    4   14    2      4.22      0.00
    4   14    3     -3.35      0.00
    4   14    4     -0.03      0.00
    4   14    5      0.59      0.00
    4   14    6      0.85      0.00
    4   14    7     -2.06      0.00
    4   14    8      2.08      0.00
    4   14    9     -1.22      0.00
    4   14   10     -1.52      0.00
    4   14   11     -0.58      0.00
    4   14   12     -2.61      0.00
   -4   15   12     -4.37      0.00
   -4   15   11     -0.46      0.00
   -4   15   10     -1.24      0.00
   -4   15    9     -0.76      0.00
   -4   15    8      0.35      0.00
   -4   15    7      3.54      0.00
   -4   15    6     -2.00      0.00
   -4   15    5      2.08      0.00
   -4   15    4     -0.37      0.00
   -4   15    3      1.56      0.00
   -4   15    2     -2.49      0.00
   -4   15    1     -0.44      0.00
    4   15    0     -0.90      0.00
    4   15    1      4.81      0.00
    4   15    2     -4.15      0.00
    4   15    3      0.02      0.00
    4   15    4      0.08      0.00
    4   15    5      1.69      0.00
    4   15    6     -1.10      0.00
    4   15    7      2.26      0.00
    4   15    8     -0.23      0.00
    4   15    9      0.12      0.00
    4   15   10     -3.52      0.00
    4   15   11     -2.42      0.00
   -4   16   11     -4.44      0.00
   -4   16   10      0.47      0.00
   -4   16    9      1.87      0.00
   -4   16    8      0.55      0.00
   -4   16    7      0.47      0.00
   -4   16    6      0.26      0.00
   -4   16    5     -0.52      0.00
   -4   16    4     -0.09      0.00
   -4   16    3     -0.96      0.00
   -4   16    2      0.25      0.00
   -4   16    1      1.12      0.00
    4   16    0      3.23      0.00
    4   16    1     -1.83      0.00
    4   16    2     -0.59      0.00
    4   16    3      1.23      0.00
    4   16    4     -0.07      0.00
    4   16    5     -0.08      0.00
    4   16    6      1.53      0.00
    4   16    7      0.32      0.00
    4   16    8     -0.52      0.00
    4   16    9     -2.15      0.00
    4   16   10     -0.44      0.00
   -4   17    9      2.62      0.00
   -4   17    8      1.34      0.00
   -4   17    7     -0.36      0.00
   -4   17    6      0.18      0.00
   -4   17    5      0.03      0.00
   -4   17    4     -2.15      0.00
   -4   17    3     -1.30      0.00
   -4   17    2      2.02      0.00
   -4   17    1      3.32      0.00
    4   17    0     -0.98      0.00
    4   17    1     -0.01      0.00
    4   17    2      2.67      0.00
    4   17    3     -1.57      0.00
    4   17    4      1.43      0.00
    4   17    5     -0.53      0.00
    4   17    6      0.36      0.00
    4   17    7     -0.31      0.00
    4   17    8     -1.20      0.00
   -4   18    8      2.36      0.00
   -4   18    7     -1.53      0.00
   -4   18    6      0.88      0.00
   -4   18    5     -2.62      0.00
   -4   18    4     -0.51      0.00
   -4   18    3     -1.59      0.00
   -4   18    2      0.51      0.00
   -4   18    1      2.44      0.00
    4   18    0      1.83      0.00
    4   18    1      2.95      0.00
    4   18    2     -0.09      0.00
    4   18    3      0.33      0.00
    4   18    4     -0.58      0.00
    4   18    5      0.26      0.00
    4   18    6     -1.09      0.00
    4   18    7     -0.96      0.00
   -4   19    6     -3.08      0.00
   -4   19    5     -0.81      0.00
   -4   19    4     -2.63      0.00
   -4   19    3      0.70      0.00
   -4   19    2     -0.35      0.00
   -4   19    1     -0.52      0.00
    4   19    0      0.35      0.00
    4   19    1      1.54      0.00
    4   19    2     -0.67      0.00
    4   19    3      1.16      0.00
    4   19    4     -1.40      0.00
    4   19    5      0.93      0.00
   -4   20    1     -1.07      0.00
    4   20    0     -0.19      0.00
   -5    0   18      2.14      0.00
   -5    0   16      0.47      0.00
   -5    0   14     -3.14      0.00
   -5    0   12      5.60      0.00
   -5    0   10      9.35      0.00
   -5    0    8     14.24      0.00
   -5    0    6     -0.68      0.00
   -5    0    4     20.44      0.00
   -5    0    2     13.43      0.00
    5    0    0     56.86      0.00
    5    0    2     83.88      0.00
    5    0    4     14.45      0.00
    5    0    6     -1.52      0.00
    5    0    8      7.41      0.00
    5    0   10     10.24      0.00
    5    0   12     -0.31      0.00
    5    0   14     -0.41      0.00
    5    0   16     -1.33      0.00
   -5    1   18     -1.43      0.00
   -5    1   17      0.68      0.00
   -5    1   16      2.22      0.00
   -5    1   15     -1.44      0.00
   -5    1   14     -0.31      0.00
   -5    1   13     -0.13      0.00
   -5    1   12      1.99      0.00
   -5    1   11      4.22      0.00
   -5    1   10     -4.71      0.00
   -5    1    9      8.86      0.00
   -5    1    8     -2.43      0.00
   -5    1    7      6.46      0.00
   -5    1    6     -9.02      0.00
   -5    1    5     -4.22      0.00
   -5    1    4     23.56      0.00
   -5    1    3     -3.46      0.00
   -5    1    2    -46.65      0.00
   -5    1    1      5.78      0.00
    5    1    0      1.64      0.00
    5    1    1     21.64      0.00
    5    1    2    -15.65      0.00
    5    1    3      7.85      0.00
    5    1    4    -15.18      0.00
    5    1    5     -1.54      0.00
    5    1    6      5.15      0.00
    5    1    7     -0.06      0.00
    5    1    8     -5.58      0.00
    5    1    9      5.76      0.00
    5    1   10     -1.69      0.00
    5    1   11      2.10      0.00
    5    1   12      0.86      0.00
    5    1   13     -1.70      0.00
    5    1   14      0.00      0.00
    5    1   15     -0.67      0.00
    5    1   16     -2.00      0.00
   -5    2   18     -0.13      0.00
   -5    2   17      0.31      0.00
   -5    2   16     -0.74      0.00
   -5    2   15      2.88      0.00
   -5    2   14      0.61      0.00
   -5    2   13      1.71      0.00
   -5    2   12     -3.80      0.00
   -5    2   11     -1.46      0.00
   -5    2   10      2.24      0.00
   -5    2    9     -3.10      0.00
   -5    2    8      2.11      0.00
   -5    2    7     -4.25      0.00
   -5    2    6      5.34      0.00
   -5    2    5     13.90      0.00
   -5    2    4    -22.34      0.00
   -5    2    3      2.36      0.00
   -5    2    2     -8.65      0.00
   -5    2    1    -26.89      0.00
    5    2    0    -28.74      0.00
    5    2    1    -15.20      0.00
    5    2    2    -63.40      0.00
    5    2    3    -18.52      0.00
    5    2    4     -4.97      0.00
    5    2    5     -1.95      0.00
    5    2    6      1.35      0.00
    5    2    7      1.97      0.00
    5    2    8      1.53      0.00
    5    2    9     -5.14      0.00
    5    2   10     -3.11      0.00
    5    2   11     -1.33      0.00
    5    2   12     -0.72      0.00
    5    2   13      1.00      0.00
    5    2   14     -2.57      0.00
    5    2   15     -1.74      0.00
    5    2   16      1.18      0.00
   -5    3   18     -0.28      0.00
   -5    3   17      0.24      0.00
   -5    3   16      1.66      0.00
   -5    3   15      0.89      0.00
   -5    3   14      4.05      0.00
   -5    3   13     -2.26      0.00
   -5    3   12      1.39      0.00
   -5    3   11     -2.70      0.00
   -5    3   10      0.85      0.00
   -5    3    9      0.44      0.00
   -5    3    8     -6.53      0.00
   -5    3    7      3.77      0.00
   -5    3    6     12.08      0.00
   -5    3    5     16.26      0.00
   -5    3    4     -8.15      0.00
   -5    3    3      3.43      0.00
   -5    3    2      7.00      0.00
   -5    3    1      7.35      0.00
    5    3    0     10.57      0.00
    5    3    1    -40.26      0.00
    5    3    2    -16.56      0.00
    5    3    3    -14.18      0.00
    5    3    4      0.21      0.00
    5    3    5     10.83      0.00
    5    3    6     -3.94      0.00
    5    3    7      9.18      0.00
    5    3    8     -0.79      0.00
    5    3    9     -0.33      0.00
    5    3   10     -7.00      0.00
    5    3   11     -2.52      0.00
    5    3   12     -0.02      0.00
    5    3   13     -1.23      0.00
    5    3   14     -0.61      0.00
    5    3   15      0.98      0.00
    5    3   16      1.43      0.00
   -5    4   17     -0.80      0.00
   -5    4   16      0.59      0.00
   -5    4   15      1.29      0.00
   -5    4   14     -0.99      0.00
   -5    4   13      3.53      0.00
   -5    4   12      0.96      0.00
   -5    4   11      5.33      0.00
   -5    4   10     -3.42      0.00
   -5    4    9     -5.52      0.00
   -5    4    8      1.92      0.00
   -5    4    7      3.29      0.00
   -5    4    6     11.04      0.00
   -5    4    5     -1.32      0.00
   -5    4    4     28.38      0.00
   -5    4    3    -14.04      0.00
   -5    4    2      7.27      0.00
   -5    4    1     -0.65      0.00
    5    4    0     -1.12      0.00
    5    4    1      3.45      0.00
    5    4    2      7.75      0.00
    5    4    3     -1.72      0.00
    5    4    4     -1.10      0.00
    5    4    5      0.23      0.00
    5    4    6      9.87      0.00
    5    4    7     -2.30      0.00
    5    4    8      5.61      0.00
    5    4    9     -5.79      0.00
    5    4   10     -0.22      0.00
    5    4   11     -3.82      0.00
    5    4   12     -2.02      0.00
    5    4   13     -1.61      0.00
    5    4   14      3.00      0.00
    5    4   15      1.82      0.00
    5    4   16     -0.55      0.00
   -5    5   17     -0.86      0.00
   -5    5   16     -0.92      0.00
   -5    5   15      0.55      0.00
   -5    5   14      0.58      0.00
   -5    5   13      1.26      0.00
   -5    5   12      4.40      0.00
   -5    5   11      0.11      0.00
   -5    5   10     -2.16      0.00
   -5    5    9     -4.88      0.00
   -5    5    8      3.00      0.00
   -5    5    7      5.03      0.00
   -5    5    6     -2.03      0.00
   -5    5    5     -1.69      0.00
   -5    5    4      6.78      0.00
   -5    5    3      6.97      0.00
   -5    5    2    -12.42      0.00
   -5    5    1    -21.50      0.00
    5    5    0     -0.88      0.00
    5    5    1      6.30      0.00
    5    5    2     10.56      0.00
    5    5    3     -7.19      0.00
    5    5    4     -4.67      0.00
    5    5    5     -5.89      0.00
    5    5    6      5.04      0.00
    5    5    7      2.03      0.00
    5    5    8     -1.98      0.00
    5    5    9      0.43      0.00
    5    5   10     -2.69      0.00
    5    5   11     -0.55      0.00
    5    5   12     -4.69      0.00
    5    5   13      1.74      0.00
    5    5   14     -0.16      0.00
    5    5   15     -0.24      0.00
    5    5   16      0.31      0.00
   -5    6   17      1.56      0.00
   -5    6   16      0.81      0.00
   -5    6   15      1.14      0.00
   -5    6   14      2.49      0.00
   -5    6   13     -0.30      0.00
   -5    6   12     -0.75      0.00
   -5    6   11     -5.02      0.00
   -5    6   10     -1.22      0.00
   -5    6    9      2.79      0.00
   -5    6    8     -2.03      0.00
   -5    6    7     -1.48      0.00
   -5    6    6     -6.80      0.00
   -5    6    5     -0.87      0.00
   -5    6    4    -11.68      0.00
   -5    6    3      9.40      0.00
   -5    6    2     -5.52      0.00
   -5    6    1     -8.81      0.00
    5    6    0     -9.89      0.00
    5    6    1      8.18      0.00
    5    6    2     -0.96      0.00
    5    6    3      2.49      0.00
    5    6    4     -0.07      0.00
    5    6    5     -8.60      0.00
    5    6    6     -4.01      0.00
    5    6    7      3.85      0.00
    5    6    8      0.04      0.00
    5    6    9      0.35      0.00
    5    6   10     -0.06      0.00
    5    6   11     -4.44      0.00
    5    6   12      4.02      0.00
    5    6   13     -4.37      0.00
    5    6   14     -1.80      0.00
    5    6   15      0.62      0.00
    5    6   16     -0.20      0.00
   -5    7   17      0.78      0.00
   -5    7   16      2.33      0.00
   -5    7   15      1.94      0.00
   -5    7   14     -0.07      0.00
   -5    7   13     -0.05      0.00
   -5    7   12     -5.85      0.00
   -5    7   11     -1.86      0.00
   -5    7   10     -2.01      0.00
   -5    7    9      0.87      0.00
   -5    7    8     -0.27      0.00
   -5    7    7    -10.97      0.00
   -5    7    6     -5.96      0.00
   -5    7    5     -0.35      0.00
   -5    7    4     -4.58      0.00
   -5    7    3     -4.89      0.00
   -5    7    2      3.29      0.00
   -5    7    1      6.81      0.00
    5    7    0     11.84      0.00
    5    7    1     -6.22      0.00
    5    7    2      1.76      0.00
    5    7    3     18.26      0.00
    5    7    4     -2.97      0.00
    5    7    5      1.26      0.00
    5    7    6    -10.07      0.00
    5    7    7     -2.18      0.00
    5    7    8      7.25      0.00
    5    7    9     -0.08      0.00
    5    7   10     -0.71      0.00
    5    7   11      3.66      0.00
    5    7   12     -3.52      0.00
    5    7   13     -0.18      0.00
    5    7   14     -2.33      0.00
    5    7   15     -1.03      0.00
   -5    8   16      1.46      0.00
   -5    8   15     -0.91      0.00
   -5    8   14     -0.18      0.00
   -5    8   13     -2.20      0.00
   -5    8   12     -2.24      0.00
   -5    8   11     -0.21      0.00
   -5    8   10     -1.79      0.00
   -5    8    9     -0.83      0.00
   -5    8    8     -8.92      0.00
   -5    8    7     -1.47      0.00
   -5    8    6     -2.98      0.00
   -5    8    5     -3.27      0.00
   -5    8    4      3.96      0.00
   -5    8    3     -3.54      0.00
   -5    8    2     -3.96      0.00
   -5    8    1      4.03      0.00
    5    8    0     -4.88      0.00
    5    8    1      0.72      0.00
    5    8    2      5.56      0.00
    5    8    3      3.57      0.00
    5    8    4      9.24      0.00
    5    8    5      0.83      0.00
    5    8    6     -4.77      0.00
    5    8    7      0.50      0.00
    5    8    8     -4.06      0.00
    5    8    9      7.84      0.00
    5    8   10      1.33      0.00
    5    8   11      2.19      0.00
    5    8   12     -2.31      0.00
    5    8   13      0.47      0.00
    5    8   14     -1.67      0.00
    5    8   15     -0.30      0.00
   -5    9   16     -1.71      0.00
   -5    9   15      2.34      0.00
   -5    9   14     -3.08      0.00
   -5    9   13     -2.31      0.00
   -5    9   12      2.35      0.00
   -5    9   11     -2.12      0.00
   -5    9   10      0.35      0.00
   -5    9    9     -8.75      0.00
   -5    9    8     -1.31      0.00
   -5    9    7      0.13      0.00
   -5    9    6     -0.34      0.00
   -5    9    5     -2.11      0.00
   -5    9    4      0.51      0.00
   -5    9    3     -1.09      0.00
   -5    9    2      2.21      0.00
   -5    9    1    -13.56      0.00
    5    9    0    -10.06      0.00
    5    9    1      2.98      0.00
    5    9    2      3.33      0.00
    5    9    3     -2.40      0.00
    5    9    4      8.06      0.00
    5    9    5      0.92      0.00
    5    9    6      7.83      0.00
    5    9    7     -5.44      0.00
    5    9    8     -0.34      0.00
    5    9    9      0.53      0.00
    5    9   10      5.23      0.00
    5    9   11     -2.02      0.00
    5    9   12      3.98      0.00
    5    9   13     -3.27      0.00
    5    9   14      2.83      0.00
    5    9   15     -1.16      0.00
   -5   10   15     -4.69      0.00
   -5   10   14      0.83      0.00
   -5   10   13     -0.97      0.00
   -5   10   12     -1.55      0.00
   -5   10   11     -1.57      0.00
   -5   10   10     -2.81      0.00
   -5   10    9     -3.79      0.00
   -5   10    8      1.93      0.00
   -5   10    7     -5.31      0.00
   -5   10    6      3.99      0.00
   -5   10    5     -2.46      0.00
   -5   10    4     -3.31      0.00
   -5   10    3      0.47      0.00
   -5   10    2     -0.92      0.00
   -5   10    1      3.31      0.00
    5   10    0      1.99      0.00
    5   10    1     -2.23      0.00
    5   10    2      4.24      0.00
    5   10    3      3.74      0.00
    5   10    4     -1.99      0.00
    5   10    5      9.92      0.00
    5   10    6      0.65      0.00
    5   10    7      0.48      0.00
    5   10    8      3.84      0.00
    5   10    9     -5.51      0.00
    5   10   10      0.27      0.00
    5   10   11      0.22      0.00
    5   10   12      0.51      0.00
    5   10   13      2.29      0.00
    5   10   14     -1.27      0.00
   -5   11   15      0.49      0.00
   -5   11   14     -2.74      0.00
   -5   11   13      0.48      0.00
   -5   11   12     -2.91      0.00
   -5   11   11     -1.93      0.00
   -5   11   10     -5.15      0.00
   -5   11    9      4.71      0.00
   -5   11    8     -5.88      0.00
   -5   11    7      3.50      0.00
   -5   11    6     -4.77      0.00
   -5   11    5      1.24      0.00
   -5   11    4     -1.58      0.00
   -5   11    3     -2.17      0.00
   -5   11    2     -0.72      0.00
   -5   11    1      9.69      0.00
    5   11    0      1.74      0.00
    5   11    1      2.22      0.00
    5   11    2     -0.71      0.00
    5   11    3      5.01      0.00
    5   11    4      6.05      0.00
    5   11    5     -4.28      0.00
    5   11    6      3.33      0.00
    5   11    7      5.80      0.00
    5   11    8     -2.10      0.00
    5   11    9      0.35      0.00
    5   11   10     -5.52      0.00
    5   11   11      0.32      0.00
    5   11   12     -1.54      0.00
    5   11   13      1.55      0.00
    5   11   14     -0.21      0.00
   -5   12   14      1.11      0.00
   -5   12   13      0.55      0.00
   -5   12   12     -1.01      0.00
   -5   12   11     -2.23      0.00
   -5   12   10      0.03      0.00
   -5   12    9     -1.31      0.00
   -5   12    8      1.54      0.00
   -5   12    7     -0.41      0.00
   -5   12    6     -2.33      0.00
   -5   12    5      0.88      0.00
   -5   12    4     -5.41      0.00
   -5   12    3     -0.37      0.00
   -5   12    2      1.47      0.00
   -5   12    1     -3.06      0.00
    5   12    0      2.92      0.00
    5   12    1     -1.22      0.00
    5   12    2     -2.72      0.00
    5   12    3      3.97      0.00
    5   12    4     -3.89      0.00
    5   12    5      2.37      0.00
    5   12    6     -0.12      0.00
    5   12    7      1.13      0.00
    5   12    8     -0.02      0.00
    5   12    9      1.86      0.00
    5   12   10     -2.55      0.00
    5   12   11     -2.39      0.00
    5   12   12     -1.03      0.00
    5   12   13      1.09      0.00
   -5   13   13     -0.18      0.00
   -5   13   12      0.60      0.00
   -5   13   11      1.10      0.00
   -5   13   10      2.02      0.00
   -5   13    9     -1.90      0.00
   -5   13    8      2.64      0.00
   -5   13    7     -1.65      0.00
   -5   13    6      2.63      0.00
   -5   13    5     -6.25      0.00
   -5   13    4      0.75      0.00
   -5   13    3     -1.87      0.00
   -5   13    2     -3.57      0.00
   -5   13    1     -0.22      0.00
    5   13    0      0.15      0.00
    5   13    1     -0.03      0.00
    5   13    2      1.48      0.00
    5   13    3     -9.15      0.00
    5   13    4      1.10      0.00
    5   13    5      1.05      0.00
    5   13    6     -0.69      0.00
    5   13    7     -0.48      0.00
    5   13    8      1.72      0.00
    5   13    9      0.20      0.00
    5   13   10      1.25      0.00
    5   13   11     -2.67      0.00
    5   13   12      0.07      0.00
   -5   14   13     -0.59      0.00
   -5   14   12     -0.44      0.00
   -5   14   11      0.51      0.00
   -5   14   10      2.44      0.00
   -5   14    9      1.13      0.00
   -5   14    8     -0.90      0.00
   -5   14    7      1.68      0.00
   -5   14    6     -0.66      0.00
   -5   14    5     -0.78      0.00
   -5   14    4      2.22      0.00
   -5   14    3     -2.26      0.00
   -5   14    2      1.00      0.00
   -5   14    1     -2.17      0.00
    5   14    0      2.33      0.00
    5   14    1      3.46      0.00
    5   14    2     -1.89      0.00
    5   14    3     -0.76      0.00
    5   14    4     -0.79      0.00
    5   14    5     -2.35      0.00
    5   14    6      1.64      0.00
    5   14    7      0.39      0.00
    5   14    8      2.22      0.00
    5   14    9     -0.87      0.00
    5   14   10      0.69      0.00
    5   14   11     -1.15      0.00
   -5   15   12     -0.90      0.00
   -5   15   11      0.17      0.00
   -5   15   10     -2.18      0.00
   -5   15    9      2.52      0.00
   -5   15    8     -0.43      0.00
   -5   15    7     -0.40      0.00
   -5   15    6      0.85      0.00
   -5   15    5      3.88      0.00
   -5   15    4     -2.14      0.00
   -5   15    3      2.98      0.00
   -5   15    2      1.77      0.00
   -5   15    1      1.06      0.00
    5   15    0      3.62      0.00
    5   15    1     -1.11      0.00
    5   15    2      1.38      0.00
    5   15    3      3.68      0.00
    5   15    4     -3.87      0.00
    5   15    5     -0.71      0.00
    5   15    6      0.30      0.00
    5   15    7      2.20      0.00
    5   15    8     -0.73      0.00
    5   15    9      0.83      0.00
    5   15   10     -0.32      0.00
   -5   16   11     -1.50      0.00
   -5   16   10      0.72      0.00
   -5   16    9     -2.54      0.00
   -5   16    8      0.48      0.00
   -5   16    7      1.19      0.00
   -5   16    6     -1.12      0.00
   -5   16    5      0.87      0.00
   -5   16    4      0.73      0.00
   -5   16    3      1.33      0.00
   -5   16    2      1.63      0.00
   -5   16    1      1.15      0.00
    5   16    0     -4.00      0.00
    5   16    1      0.31      0.00
    5   16    2      2.57      0.00
    5   16    3     -2.16      0.00
    5   16    4      1.98      0.00
    5   16    5     -0.25      0.00
    5   16    6     -0.58      0.00
    5   16    7     -1.00      0.00
    5   16    8     -0.68      0.00
    5   16    9      0.55      0.00
   -5   17    9      0.84      0.00
   -5   17    8     -0.16      0.00
   -5   17    7     -0.77      0.00
   -5   17    6      0.24      0.00
   -5   17    5     -2.38      0.00
   -5   17    4      1.87      0.00
   -5   17    3      1.55      0.00
   -5   17    2     -1.10      0.00
   -5   17    1     -2.01      0.00
    5   17    0     -1.35      0.00
    5   17    1      0.71      0.00
    5   17    2     -1.69      0.00
    5   17    3      2.36      0.00
    5   17    4      1.25      0.00
    5   17    5     -0.89      0.00
    5   17    6     -0.29      0.00
    5   17    7     -2.83      0.00
    5   17    8     -0.79      0.00
   -5   18    8      1.22      0.00
   -5   18    7     -0.78      0.00
   -5   18    6      0.41      0.00
   -5   18    5      1.11      0.00
   -5   18    4      0.77      0.00
   -5   18    3      0.95      0.00
   -5   18    2     -1.74      0.00
   -5   18    1     -1.89      0.00
    5   18    0      0.63      0.00
    5   18    1     -1.68      0.00
    5   18    2      1.18      0.00
    5   18    3      1.26      0.00
    5   18    4     -1.03      0.00
    5   18    5      1.96      0.00
    5   18    6     -3.96      0.00
   -5   19    5      2.04      0.00
   -5   19    4      2.29      0.00
   -5   19    3     -2.39      0.00
   -5   19    2     -0.09      0.00
   -5   19    1     -0.09      0.00
    5   19    0      0.23      0.00
    5   19    1     -0.72      0.00
    5   19    2     -0.16      0.00
    5   19    3     -0.31      0.00
    5   19    4      1.04      0.00
   -6    0   18      1.49      0.00
   -6    0   16     -1.34      0.00
   -6    0   14      1.91      0.00
   -6    0   12      0.71      0.00
   -6    0   10     10.71      0.00
   -6    0    8      5.26      0.00
   -6    0    6     18.49      0.00
   -6    0    4      5.12      0.00
   -6    0    2     -1.08      0.00
    6    0    0     38.41      0.00
    6    0    2     54.48      0.00
    6    0    4     12.33      0.00
    6    0    6     -7.01      0.00
    6    0    8      4.24      0.00
    6    0   10      0.57      0.00
    6    0   12     -3.71      0.00
    6    0   14     -0.23      0.00
    6    0   16      1.48      0.00
   -6    1   18      0.76      0.00
   -6    1   17     -0.13      0.00
   -6    1   16      1.79      0.00
   -6    1   15     -0.14      0.00
   -6    1   14      0.61      0.00
   -6    1   13      3.01      0.00
   -6    1   12      0.05      0.00
   -6    1   11      0.97      0.00
   -6    1   10      5.28      0.00
   -6    1    9      2.56      0.00
   -6    1    8     -0.49      0.00
   -6    1    7      3.91      0.00
   -6    1    6      9.17      0.00
   -6    1    5      1.42      0.00
   -6    1    4    -17.75      0.00
   -6    1    3    -15.61      0.00
   -6    1    2     -4.22      0.00
   -6    1    1      6.06      0.00
    6    1    0     15.92      0.00
    6    1    1     16.37      0.00
    6    1    2    -34.04      0.00
    6    1    3      3.87      0.00
    6    1    4    -11.27      0.00
    6    1    5     -9.25      0.00
    6    1    6     -7.67      0.00
    6    1    7     -4.06      0.00
    6    1    8      4.72      0.00
    6    1    9     -1.71      0.00
    6    1   10     -0.45      0.00
    6    1   11     -2.61      0.00
    6    1   12      0.70      0.00
    6    1   13     -1.54      0.00
    6    1   14     -0.85      0.00
    6    1   15      1.36      0.00
    6    1   16     -0.24      0.00
   -6    2   18     -2.10      0.00
   -6    2   17      1.62      0.00
   -6    2   16      1.33      0.00
   -6    2   15      2.03      0.00
   -6    2   14      1.24      0.00
   -6    2   13     -0.01      0.00
   -6    2   12      2.99      0.00
   -6    2   11     -0.01      0.00
   -6    2   10     -8.68      0.00
   -6    2    9      5.82      0.00
   -6    2    8      0.90      0.00
   -6    2    7     12.62      0.00
   -6    2    6    -11.67      0.00
   -6    2    5     -8.00      0.00
   -6    2    4    -15.51      0.00
   -6    2    3    -13.56      0.00
   -6    2    2     -2.30      0.00
   -6    2    1     -5.45      0.00
    6    2    0     -9.93      0.00
    6    2    1     -9.81      0.00
    6    2    2    -31.02      0.00
    6    2    3    -26.73      0.00
    6    2    4    -16.29      0.00
    6    2    5    -14.18      0.00
    6    2    6     -2.66      0.00
    6    2    7     -1.71      0.00
    6    2    8     -8.55      0.00
    6    2    9      3.38      0.00
    6    2   10     -3.92      0.00
    6    2   11      0.83      0.00
    6    2   12     -1.06      0.00
    6    2   13     -1.24      0.00
    6    2   14     -0.34      0.00
    6    2   15      0.20      0.00
    6    2   16      2.11      0.00
   -6    3   17     -0.13      0.00
   -6    3   16      2.28      0.00
   -6    3   15      2.31      0.00
   -6    3   14      0.77      0.00
   -6    3   13     -0.11      0.00
   -6    3   12     -2.01      0.00
   -6    3   11     -0.75      0.00
   -6    3   10     -2.32      0.00
   -6    3    9     -2.24      0.00
   -6    3    8     15.35      0.00
   -6    3    7     -1.56      0.00
   -6    3    6     -0.94      0.00
   -6    3    5     -7.45      0.00
   -6    3    4     -6.08      0.00
   -6    3    3     24.29      0.00
   -6    3    2    -18.31      0.00
   -6    3    1      5.92      0.00
    6    3    0    -17.53      0.00
    6    3    1     -2.75      0.00
    6    3    2      4.85      0.00
    6    3    3      1.12      0.00
    6    3    4    -16.21      0.00
    6    3    5      8.90      0.00
    6    3    6     -3.69      0.00
    6    3    7     -0.51      0.00
    6    3    8     -5.29      0.00
    6    3    9     -1.03      0.00
    6    3   10      2.20      0.00
    6    3   11     -0.63      0.00
    6    3   12     -2.58      0.00
    6    3   13     -1.64      0.00
    6    3   14      0.80      0.00
    6    3   15     -0.50      0.00
    6    3   16      0.17      0.00
   -6    4   17      3.92      0.00
   -6    4   16      0.09      0.00
   -6    4   15     -0.63      0.00
   -6    4   14     -0.27      0.00
   -6    4   13     -0.31      0.00
   -6    4   12     -1.61      0.00
   -6    4   11     -2.93      0.00
   -6    4   10      6.35      0.00
   -6    4    9      5.07      0.00
   -6    4    8     -3.05      0.00
   -6    4    7      1.31      0.00
   -6    4    6      1.07      0.00
   -6    4    5      8.10      0.00
   -6    4    4     18.93      0.00
   -6    4    3    -14.79      0.00
   -6    4    2     14.88      0.00
   -6    4    1     -4.45      0.00
    6    4    0      3.78      0.00
    6    4    1     -9.17      0.00
    6    4    2     28.23      0.00
    6    4    3     11.98      0.00
    6    4    4     19.98      0.00
    6    4    5      2.12      0.00
    6    4    6      1.83      0.00
    6    4    7     -4.55      0.00
    6    4    8      4.43      0.00
    6    4    9     -6.21      0.00
    6    4   10      3.02      0.00
    6    4   11     -2.88      0.00
    6    4   12     -1.36      0.00
    6    4   13      0.82      0.00
    6    4   14     -2.33      0.00
    6    4   15     -0.12      0.00
    6    4   16      0.19      0.00
   -6    5   17     -1.19      0.00
   -6    5   16      0.43      0.00
   -6    5   15     -1.52      0.00
   -6    5   14     -1.97      0.00
   -6    5   13     -1.34      0.00
   -6    5   12     -1.11      0.00
   -6    5   11      2.39      0.00
   -6    5   10      3.38      0.00
   -6    5    9      4.39      0.00
   -6    5    8     -2.51      0.00
   -6    5    7     -7.29      0.00
   -6    5    6     11.63      0.00
   -6    5    5      8.07      0.00
   -6    5    4      4.08      0.00
   -6    5    3    -10.10      0.00
   -6    5    2     -0.73      0.00
   -6    5    1     -1.85      0.00
    6    5    0      5.12      0.00
    6    5    1      5.49      0.00
    6    5    2    -10.13      0.00
    6    5    3     17.41      0.00
    6    5    4     21.21      0.00
    6    5    5      0.34      0.00
    6    5    6      0.87      0.00
    6    5    7     -1.36      0.00
    6    5    8     -4.63      0.00
    6    5    9      2.85      0.00
    6    5   10     -7.11      0.00
    6    5   11      1.41      0.00
    6    5   12      1.20      0.00
    6    5   13     -1.50      0.00
    6    5   14      1.42      0.00
    6    5   15     -0.69      0.00
    6    5   16     -0.82      0.00
   -6    6   17     -0.41      0.00
   -6    6   16     -0.73      0.00
   -6    6   15     -0.05      0.00
   -6    6   14     -1.49      0.00
   -6    6   13     -3.46      0.00
   -6    6   12      0.57      0.00
   -6    6   11      0.52      0.00
   -6    6   10      1.55      0.00
   -6    6    9     -3.35      0.00
   -6    6    8      2.14      0.00
   -6    6    7      7.79      0.00
   -6    6    6     -2.01      0.00
   -6    6    5      1.27      0.00
   -6    6    4     -7.91      0.00
   -6    6    3      8.19      0.00
   -6    6    2     -7.38      0.00
   -6    6    1     -2.57      0.00
    6    6    0      8.55      0.00
    6    6    1     -0.61      0.00
    6    6    2      1.26      0.00
    6    6    3     -3.04      0.00
    6    6    4      5.32      0.00
    6    6    5     10.21      0.00
    6    6    6      5.16      0.00
    6    6    7     -5.61      0.00
    6    6    8     -0.96      0.00
    6    6    9     -6.13      0.00
    6    6   10      2.38      0.00
    6    6   11     -0.88      0.00
    6    6   12     -0.08      0.00
    6    6   13      1.63      0.00
    6    6   14      1.44      0.00
    6    6   15      0.82      0.00
   -6    7   17     -0.12      0.00
   -6    7   16     -0.32      0.00
   -6    7   15      0.42      0.00
   -6    7   14     -1.37      0.00
   -6    7   13     -0.13      0.00
   -6    7   12     -1.99      0.00
   -6    7   11      0.97      0.00
   -6    7   10     -4.10      0.00
   -6    7    9      0.99      0.00
   -6    7    8      1.86      0.00
   -6    7    7      5.93      0.00
   -6    7    6     -1.85      0.00
   -6    7    5     -6.71      0.00
   -6    7    4     -2.69      0.00
   -6    7    3      8.01      0.00
   -6    7    2     -3.96      0.00
   -6    7    1      4.65      0.00
    6    7    0      0.72      0.00
    6    7    1      9.86      0.00
    6    7    2      5.52      0.00
    6    7    3     -1.65      0.00
    6    7    4     -3.47      0.00
    6    7    5     15.20      0.00
    6    7    6      0.95      0.00
    6    7    7      6.97      0.00
    6    7    8     -8.89      0.00
    6    7    9      1.21      0.00
    6    7   10      0.55      0.00
    6    7   11     -1.85      0.00
    6    7   12     -0.34      0.00
    6    7   13      3.03      0.00
    6    7   14     -0.49      0.00
    6    7   15      1.65      0.00
   -6    8   16      0.39      0.00
   -6    8   15     -2.21      0.00
   -6    8   14      1.64      0.00
   -6    8   13     -0.14      0.00
   -6    8   12     -0.90      0.00
   -6    8   11     -1.12      0.00
   -6    8   10     -0.85      0.00
   -6    8    9      2.79      0.00
   -6    8    8     -0.29      0.00
   -6    8    7     -2.93      0.00
   -6    8    6      0.91      0.00
   -6    8    5      2.21      0.00
   -6    8    4      0.87      0.00
   -6    8    3     -5.94      0.00
   -6    8    2      6.22      0.00
   -6    8    1     -0.44      0.00
    6    8    0     -5.04      0.00
    6    8    1      4.77      0.00
    6    8    2     -2.62      0.00
    6    8    3      7.40      0.00
    6    8    4     -0.39      0.00
    6    8    5     -0.67      0.00
    6    8    6     12.06      0.00
    6    8    7     -3.06      0.00
    6    8    8      3.76      0.00
    6    8    9      1.71      0.00
    6    8   10     -5.44      0.00
    6    8   11      2.26      0.00
    6    8   12     -1.16      0.00
    6    8   13     -1.17      0.00
    6    8   14      2.84      0.00
    6    8   15     -0.78      0.00
   -6    9   16     -1.06      0.00
   -6    9   15      1.44      0.00
   -6    9   14     -0.59      0.00
   -6    9   13      0.80      0.00
   -6    9   12     -0.27      0.00
   -6    9   11     -3.61      0.00
   -6    9   10      4.20      0.00
   -6    9    9     -3.74      0.00
   -6    9    8     -0.14      0.00
   -6    9    7     -1.07      0.00
   -6    9    6      0.39      0.00
   -6    9    5      4.16      0.00
   -6    9    4      4.12      0.00
   -6    9    3     -5.60      0.00
   -6    9    2      3.86      0.00
   -6    9    1      0.35      0.00
    6    9    0      1.72      0.00
    6    9    1     -9.70      0.00
    6    9    2      3.46      0.00
    6    9    3     -3.20      0.00
    6    9    4      5.12      0.00
    6    9    5     -0.70      0.00
    6    9    6     -5.53      0.00
    6    9    7      9.87      0.00
    6    9    8      3.03      0.00
    6    9    9     -3.28      0.00
    6    9   10      2.92      0.00
    6    9   11     -3.78      0.00
    6    9   12      0.96      0.00
    6    9   13     -1.15      0.00
    6    9   14     -0.67      0.00
   -6   10   15      1.85      0.00
   -6   10   14      1.08      0.00
   -6   10   13     -1.38      0.00
   -6   10   12     -0.71      0.00
   -6   10   11      0.14      0.00
   -6   10   10     -2.02      0.00
   -6   10    9     -2.07      0.00
   -6   10    8      1.18      0.00
   -6   10    7     -3.69      0.00
   -6   10    6      4.85      0.00
   -6   10    5     -4.30      0.00
   -6   10    4      1.31      0.00
   -6   10    3      7.61      0.00
   -6   10    2     -2.29      0.00
   -6   10    1     -0.36      0.00
    6   10    0      5.14      0.00
    6   10    1      3.27      0.00
    6   10    2     -0.41      0.00
    6   10    3     -1.01      0.00
    6   10    4      0.68      0.00
    6   10    5     -5.89      0.00
    6   10    6      3.60      0.00
    6   10    7     -2.08      0.00
    6   10    8      3.34      0.00
    6   10    9      0.14      0.00
    6   10   10      1.34      0.00
    6   10   11     -0.88      0.00
    6   10   12     -0.87      0.00
    6   10   13     -1.43      0.00
    6   10   14      1.46      0.00
   -6   11   15      0.82      0.00
   -6   11   14      0.32      0.00
   -6   11   13     -2.82      0.00
   -6   11   12     -1.48      0.00
   -6   11   11      0.94      0.00
   -6   11   10     -4.10      0.00
   -6   11    9      2.19      0.00
   -6   11    8     -3.67      0.00
   -6   11    7      3.41      0.00
   -6   11    6     -5.09      0.00
   -6   11    5     -0.12      0.00
   -6   11    4      0.75      0.00
   -6   11    3      2.70      0.00
   -6   11    2      2.82      0.00
   -6   11    1     -1.16      0.00
    6   11    0      3.90      0.00
    6   11    1      7.45      0.00
    6   11    2      3.26      0.00
    6   11    3      0.40      0.00
    6   11    4     -7.43      0.00
    6   11    5      2.21      0.00
    6   11    6     -1.18      0.00
    6   11    7     -5.16      0.00
    6   11    8      0.04      0.00
    6   11    9      4.04      0.00
    6   11   10     -0.04      0.00
    6   11   11      3.41      0.00
    6   11   12     -1.75      0.00
    6   11   13      2.86      0.00
   -6   12   14     -3.38      0.00
   -6   12   13     -0.02      0.00
   -6   12   12     -2.63      0.00
   -6   12   11     -0.84      0.00
   -6   12   10     -0.68      0.00
   -6   12    9     -0.97      0.00
   -6   12    8     -1.34      0.00
   -6   12    7      0.80      0.00
   -6   12    6     -4.31      0.00
   -6   12    5      5.63      0.00
   -6   12    4     -2.21      0.00
   -6   12    3      0.25      0.00
   -6   12    2     -2.11      0.00
   -6   12    1      1.25      0.00
    6   12    0     -2.02      0.00
    6   12    1      4.67      0.00
    6   12    2      1.48      0.00
    6   12    3     -1.28      0.00
    6   12    4     -0.36      0.00
    6   12    5      0.04      0.00
    6   12    6     -7.08      0.00
    6   12    7      1.69      0.00
    6   12    8     -4.72      0.00
    6   12    9      3.23      0.00
    6   12   10      2.50      0.00
    6   12   11      4.09      0.00
    6   12   12      2.60      0.00
    6   12   13      0.78      0.00
   -6   13   13     -1.30      0.00
   -6   13   12      1.73      0.00
   -6   13   11     -1.31      0.00
   -6   13   10      1.59      0.00
   -6   13    9     -2.26      0.00
   -6   13    8      0.70      0.00
   -6   13    7     -4.20      0.00
   -6   13    6      5.63      0.00
   -6   13    5     -2.63      0.00
   -6   13    4      1.66      0.00
   -6   13    3     -2.46      0.00
   -6   13    2     -2.95      0.00
   -6   13    1     -1.44      0.00
    6   13    0      0.63      0.00
    6   13    1     -2.32      0.00
    6   13    2     -0.80      0.00
    6   13    3      2.74      0.00
    6   13    4      2.11      0.00
    6   13    5     -5.38      0.00
    6   13    6      1.02      0.00
    6   13    7     -2.68      0.00
    6   13    8     -0.19      0.00
    6   13    9     -3.14      0.00
    6   13   10      4.65      0.00
    6   13   11      0.69      0.00
    6   13   12      5.11      0.00
   -6   14   13     -0.24      0.00
   -6   14   12      1.02      0.00
   -6   14   11      0.01      0.00
   -6   14   10      0.31      0.00
   -6   14    9      0.15      0.00
   -6   14    8      0.49      0.00
   -6   14    7      0.82      0.00
   -6   14    6      0.04      0.00
   -6   14    5     -0.95      0.00
   -6   14    4      0.91      0.00
   -6   14    3     -2.97      0.00
   -6   14    2      0.28      0.00
   -6   14    1     -3.84      0.00
    6   14    0     -1.99      0.00
    6   14    1     -3.33      0.00
    6   14    2      2.94      0.00
    6   14    3      0.82      0.00
    6   14    4     -1.46      0.00
    6   14    5      1.48      0.00
    6   14    6     -0.38      0.00
    6   14    7     -1.68      0.00
    6   14    8     -0.16      0.00
    6   14    9     -0.10      0.00
    6   14   10     -1.32      0.00
    6   14   11      3.13      0.00
   -6   15   12     -4.31      0.00
   -6   15   11      0.35      0.00
   -6   15   10     -0.95      0.00
   -6   15    9      0.28      0.00
   -6   15    8      1.60      0.00
   -6   15    7      1.93      0.00
   -6   15    6     -1.15      0.00
   -6   15    5      1.06      0.00
   -6   15    4     -1.34      0.00
   -6   15    3      0.93      0.00
   -6   15    2     -2.33      0.00
   -6   15    1     -2.25      0.00
    6   15    0     -1.80      0.00
    6   15    1      0.80      0.00
    6   15    2     -1.62      0.00
    6   15    3     -1.94      0.00
    6   15    4      2.31      0.00
    6   15    5      0.56      0.00
    6   15    6     -1.11      0.00
    6   15    7      0.41      0.00
    6   15    8      0.84      0.00
    6   15    9      0.99      0.00
    6   15   10      0.01      0.00
   -6   16   10      0.66      0.00
   -6   16    9      2.96      0.00
   -6   16    8     -1.19      0.00
   -6   16    7      0.52      0.00
   -6   16    6      1.22      0.00
   -6   16    5      0.54      0.00
   -6   16    4     -0.51      0.00
   -6   16    3     -1.56      0.00
   -6   16    2     -0.98      0.00
   -6   16    1      2.11      0.00
    6   16    0      0.60      0.00
    6   16    1     -1.68      0.00
    6   16    2     -3.07      0.00
    6   16    3      0.84      0.00
    6   16    4     -0.81      0.00
    6   16    5      1.18      0.00
    6   16    6      1.02      0.00
    6   16    7     -0.13      0.00
    6   16    8     -0.12      0.00
    6   16    9      1.11      0.00
   -6   17    9      0.09      0.00
   -6   17    8      2.07      0.00
   -6   17    7     -0.66      0.00
   -6   17    6     -0.31      0.00
   -6   17    5      0.44      0.00
   -6   17    4     -1.36      0.00
   -6   17    3     -1.27      0.00
   -6   17    2      1.57      0.00
   -6   17    1      2.78      0.00
    6   17    0     -2.68      0.00
    6   17    1     -0.64      0.00
    6   17    2     -0.14      0.00
    6   17    3     -0.03      0.00
    6   17    4      0.70      0.00
    6   17    5     -0.03      0.00
    6   17    6      0.82      0.00
    6   17    7      0.41      0.00
    6   17    8      0.51      0.00
   -6   18    7      0.69      0.00
   -6   18    6      0.61      0.00
   -6   18    5     -1.79      0.00
   -6   18    4     -0.30      0.00
   -6   18    3      0.90      0.00
   -6   18    2      1.50      0.00
   -6   18    1      3.12      0.00
    6   18    0      0.94      0.00
    6   18    1     -1.60      0.00
    6   18    2      1.97      0.00
    6   18    3     -2.01      0.00
    6   18    4      0.32      0.00
    6   18    5      0.53      0.00
    6   18    6     -0.30      0.00
   -6   19    5      0.31      0.00
   -6   19    4      0.53      0.00
   -6   19    3      2.01      0.00
   -6   19    2      0.73      0.00
   -6   19    1      0.07      0.00
    6   19    0     -0.52      0.00
    6   19    1      1.44      0.00
    6   19    2     -3.57      0.00
    6   19    3     -0.28      0.00
   -7    0   18      0.86      0.00
   -7    0   16      2.07      0.00
   -7    0   14     -7.23      0.00
   -7    0   12     -1.62      0.00
   -7    0   10      1.24      0.00
   -7    0    8     11.17      0.00
   -7    0    6     -9.11      0.00
   -7    0    4     25.44      0.00
   -7    0    2     16.79      0.00
    7    0    2     39.45      0.00
    7    0    4      8.40      0.00
    7    0    6    -19.08      0.00
    7    0    8     -4.79      0.00
    7    0   10      5.60      0.00
    7    0   12     -0.58      0.00
    7    0   14     -1.28      0.00
    7    0   16     -0.08      0.00
   -7    1   18     -0.91      0.00
   -7    1   17      1.37      0.00
   -7    1   16     -1.27      0.00
   -7    1   15     -2.55      0.00
   -7    1   14     -0.32      0.00
   -7    1   13     -3.97      0.00
   -7    1   12      1.28      0.00
   -7    1   11      0.30      0.00
   -7    1   10      2.94      0.00
   -7    1    9      1.79      0.00
   -7    1    8      0.99      0.00
   -7    1    7     -0.86      0.00
   -7    1    6     -6.44      0.00
   -7    1    5     -3.64      0.00
   -7    1    4     10.53      0.00
   -7    1    3      6.86      0.00
   -7    1    2    -38.46      0.00
   -7    1    1      9.20      0.00
    7    1    0     24.85      0.00
    7    1    1     10.63      0.00
    7    1    2      4.30      0.00
    7    1    3     -5.65      0.00
    7    1    4    -16.37      0.00
    7    1    5    -16.88      0.00
    7    1    6      6.36      0.00
    7    1    7    -13.92      0.00
    7    1    8     -4.39      0.00
    7    1    9     -1.36      0.00
    7    1   10     -0.01      0.00
    7    1   11      0.16      0.00
    7    1   12      2.32      0.00
    7    1   13     -1.74      0.00
    7    1   14      1.83      0.00
    7    1   15     -0.14      0.00
    7    1   16     -2.07      0.00
   -7    2   18     -0.18      0.00
   -7    2   17     -1.15      0.00
   -7    2   16     -1.15      0.00
   -7    2   15     -0.53      0.00
   -7    2   14      0.92      0.00
   -7    2   13      3.03      0.00
   -7    2   12     -1.94      0.00
   -7    2   11      0.81      0.00
   -7    2   10      1.98      0.00
   -7    2    9      0.45      0.00
   -7    2    8     -9.71      0.00
   -7    2    7     -1.36      0.00
   -7    2    6      1.68      0.00
   -7    2    5      6.53      0.00
   -7    2    4    -22.11      0.00
   -7    2    3     -7.54      0.00
   -7    2    2      4.51      0.00
   -7    2    1    -25.54      0.00
    7    2    0    -14.25      0.00
    7    2    1     12.45      0.00
    7    2    2    -34.65      0.00
    7    2    3     -6.92      0.00
    7    2    4    -26.11      0.00
    7    2    5     -0.82      0.00
    7    2    6     -8.49      0.00
    7    2    7      3.15      0.00
    7    2    8     -6.15      0.00
    7    2    9     -0.56      0.00
    7    2   10     -7.11      0.00
    7    2   11      1.01      0.00
    7    2   12     -2.46      0.00
    7    2   13      2.91      0.00
    7    2   14     -1.21      0.00
    7    2   15     -0.78      0.00
    7    2   16      0.77      0.00
   -7    3   17     -0.78      0.00
   -7    3   16      0.46      0.00
   -7    3   15      2.54      0.00
   -7    3   14      2.49      0.00
   -7    3   13      0.94      0.00
   -7    3   12      4.43      0.00
   -7    3   11     -0.26      0.00
   -7    3   10     -1.98      0.00
   -7    3    9     -0.65      0.00
   -7    3    8     -5.09      0.00
   -7    3    7     -3.10      0.00
   -7    3    6      6.64      0.00
   -7    3    5      1.26      0.00
   -7    3    4     -9.21      0.00
   -7    3    3      3.10      0.00
   -7    3    2      2.10      0.00
   -7    3    1     16.93      0.00
    7    3    0      7.85      0.00
    7    3    1    -11.81      0.00
    7    3    2     -2.63      0.00
    7    3    3     -6.30      0.00
    7    3    4     11.38      0.00
    7    3    5      2.40      0.00
    7    3    6     -0.76      0.00
    7    3    7      3.95      0.00
    7    3    8      5.83      0.00
    7    3    9     -5.57      0.00
    7    3   10     -1.62      0.00
    7    3   11     -6.41      0.00
    7    3   12      1.55      0.00
    7    3   13     -1.87      0.00
    7    3   14     -0.72      0.00
    7    3   15      0.82      0.00
    7    3   16      0.73      0.00
   -7    4   17      0.94      0.00
   -7    4   16      1.59      0.00
   -7    4   15      1.25      0.00
   -7    4   14      1.05      0.00
   -7    4   13      1.98      0.00
   -7    4   12      1.17      0.00
   -7    4   11      6.60      0.00
   -7    4   10     -2.58      0.00
   -7    4    9     -6.44      0.00
   -7    4    8      5.79      0.00
   -7    4    7     -2.71      0.00
   -7    4    6     -0.95      0.00
   -7    4    5     -5.84      0.00
   -7    4    4     20.82      0.00
   -7    4    3     -5.49      0.00
   -7    4    2      8.29      0.00
   -7    4    1     -3.60      0.00
    7    4    0     12.60      0.00
    7    4    1     -3.24      0.00
    7    4    2     10.48      0.00
    7    4    3      7.85      0.00
    7    4    4     13.35      0.00
    7    4    5      6.68      0.00
    7    4    6      4.61      0.00
    7    4    7      4.47      0.00
    7    4    8      0.81      0.00
    7    4    9      1.81      0.00
    7    4   10     -3.84      0.00
    7    4   11     -0.33      0.00
    7    4   12     -2.49      0.00
    7    4   13     -1.41      0.00
    7    4   14      1.59      0.00
    7    4   15      0.63      0.00
    7    4   16      1.18      0.00
   -7    5   17      1.50      0.00
   -7    5   16      0.80      0.00
   -7    5   15      0.41      0.00
   -7    5   14     -0.50      0.00
   -7    5   13      1.80      0.00
   -7    5   12      3.46      0.00
   -7    5   11     -0.71      0.00
   -7    5   10      2.78      0.00
   -7    5    9     -1.13      0.00
   -7    5    8     -2.91      0.00
   -7    5    7      5.20      0.00
   -7    5    6     -8.15      0.00
   -7    5    5      2.07      0.00
   -7    5    4      2.82      0.00
   -7    5    3      4.44      0.00
   -7    5    2     -4.62      0.00
   -7    5    1    -12.36      0.00
    7    5    0     -3.62      0.00
    7    5    1      7.74      0.00
    7    5    2      4.74      0.00
    7    5    3      0.88      0.00
    7    5    4     -4.39      0.00
    7    5    5      2.80      0.00
    7    5    6      7.91      0.00
    7    5    7     -3.11      0.00
    7    5    8      3.10      0.00
    7    5    9     -1.67      0.00
    7    5   10      2.58      0.00
    7    5   11     -0.05      0.00
    7    5   12     -2.80      0.00
    7    5   13      2.47      0.00
    7    5   14      1.02      0.00
    7    5   15      0.73      0.00
   -7    6   17      1.66      0.00
   -7    6   16      0.86      0.00
   -7    6   15      0.35      0.00
   -7    6   14      1.33      0.00
   -7    6   13      0.62      0.00
   -7    6   12      1.02      0.00
   -7    6   11     -1.72      0.00
   -7    6   10      0.73      0.00
   -7    6    9      3.21      0.00
   -7    6    8     -0.25      0.00
   -7    6    7     -2.77      0.00
   -7    6    6      6.20      0.00
   -7    6    5     -3.77      0.00
   -7    6    4     -7.13      0.00
   -7    6    3      2.33      0.00
   -7    6    2     -3.23      0.00
   -7    6    1      6.19      0.00
    7    6    0     -5.32      0.00
    7    6    1      3.78      0.00
    7    6    2      6.38      0.00
    7    6    3     -7.25      0.00
    7    6    4      1.00      0.00
    7    6    5     -8.32      0.00
    7    6    6      0.62      0.00
    7    6    7      4.20      0.00
    7    6    8     -3.01      0.00
    7    6    9      3.43      0.00
    7    6   10     -0.06      0.00
    7    6   11     -1.48      0.00
    7    6   12      4.46      0.00
    7    6   13     -0.59      0.00
    7    6   14     -0.31      0.00
    7    6   15      3.00      0.00
   -7    7   16      0.35      0.00
   -7    7   15      0.44      0.00
   -7    7   14      0.91      0.00
   -7    7   13      0.46      0.00
   -7    7   12     -1.64      0.00
   -7    7   11      0.98      0.00
   -7    7   10     -0.96      0.00
   -7    7    9      2.99      0.00
   -7    7    8      4.25      0.00
   -7    7    7     -0.24      0.00
   -7    7    6     -2.76      0.00
   -7    7    5      6.75      0.00
   -7    7    4     -8.42      0.00
   -7    7    3      1.05      0.00
   -7    7    2      4.54      0.00
   -7    7    1      9.19      0.00
    7    7    0      0.50      0.00
    7    7    1     -0.08      0.00
    7    7    2     -6.29      0.00
    7    7    3     16.37      0.00
    7    7    4     -8.83      0.00
    7    7    5      1.80      0.00
    7    7    6     -9.49      0.00
    7    7    7     -0.53      0.00
    7    7    8      6.12      0.00
    7    7    9     -2.04      0.00
    7    7   10     -0.38      0.00
    7    7   11      2.89      0.00
    7    7   12      0.98      0.00
    7    7   13     -0.47      0.00
    7    7   14      0.63      0.00
    7    7   15     -0.38      0.00
   -7    8   16      0.00      0.00
   -7    8   15      0.01      0.00
   -7    8   14     -0.20      0.00
   -7    8   13      0.39      0.00
   -7    8   12     -0.74      0.00
   -7    8   11      3.21      0.00
   -7    8   10      0.10      0.00
   -7    8    9      2.53      0.00
   -7    8    8     -2.07      0.00
   -7    8    7      4.78      0.00
   -7    8    6     -1.15      0.00
   -7    8    5     -4.81      0.00
   -7    8    4      9.85      0.00
   -7    8    3     -1.32      0.00
   -7    8    2      0.99      0.00
   -7    8    1     -1.22      0.00
    7    8    0     -1.52      0.00
    7    8    1     -8.96      0.00
    7    8    2     -0.07      0.00
    7    8    3     -2.76      0.00
    7    8    4      7.27      0.00
    7    8    5     -5.95      0.00
    7    8    6     -4.41      0.00
    7    8    7     -1.36      0.00
    7    8    8     -1.66      0.00
    7    8    9      3.44      0.00
    7    8   10      0.67      0.00
    7    8   11      3.39      0.00
    7    8   12     -1.75      0.00
    7    8   13      1.60      0.00
    7    8   14     -2.38      0.00
   -7    9   16      1.13      0.00
   -7    9   15      0.45      0.00
   -7    9   14     -0.31      0.00
   -7    9   13     -0.98      0.00
   -7    9   12      4.84      0.00
   -7    9   11     -1.16      0.00
   -7    9   10      4.30      0.00
   -7    9    9     -5.62      0.00
   -7    9    8      2.36      0.00
   -7    9    7     -1.90      0.00
   -7    9    6      2.80      0.00
   -7    9    5      1.78      0.00
   -7    9    4      1.72      0.00
   -7    9    3      1.47      0.00
   -7    9    2     -1.31      0.00
   -7    9    1    -11.40      0.00
    7    9    0     -7.06      0.00
    7    9    1     -0.55      0.00
    7    9    2     -3.75      0.00
    7    9    3     -4.95      0.00
    7    9    4     -1.41      0.00
    7    9    5      0.04      0.00
    7    9    6     -0.12      0.00
    7    9    7     -1.44      0.00
    7    9    8     -4.88      0.00
    7    9    9      3.62      0.00
    7    9   10      3.19      0.00
    7    9   11     -0.24      0.00
    7    9   12      2.85      0.00
    7    9   13     -2.36      0.00
    7    9   14      3.13      0.00
   -7   10   15     -1.55      0.00
   -7   10   14      0.51      0.00
   -7   10   13      2.80      0.00
   -7   10   12     -0.44      0.00
   -7   10   11      1.28      0.00
   -7   10   10     -1.79      0.00
   -7   10    9     -0.17      0.00
   -7   10    8     -0.36      0.00
   -7   10    7     -2.22      0.00
   -7   10    6      4.25      0.00
   -7   10    5      3.30      0.00
   -7   10    4     -1.63      0.00
   -7   10    3     -2.72      0.00
   -7   10    2     -3.08      0.00
   -7   10    1      5.36      0.00
    7   10    0     -0.31      0.00
    7   10    1     -1.55      0.00
    7   10    2      6.24      0.00
    7   10    3     -4.88      0.00
    7   10    4     -1.23      0.00
    7   10    5     -0.14      0.00
    7   10    6      3.76      0.00
    7   10    7     -5.69      0.00
    7   10    8      6.18      0.00
    7   10    9     -6.46      0.00
    7   10   10      2.75      0.00
    7   10   11      0.92      0.00
    7   10   12      1.86      0.00
    7   10   13      2.20      0.00
   -7   11   15      1.72      0.00
   -7   11   14     -0.48      0.00
   -7   11   13      1.28      0.00
   -7   11   12      0.62      0.00
   -7   11   11     -2.05      0.00
   -7   11   10     -3.35      0.00
   -7   11    9      3.32      0.00
   -7   11    8     -3.12      0.00
   -7   11    7      3.25      0.00
   -7   11    6     -0.72      0.00
   -7   11    5     -1.44      0.00
   -7   11    4     -0.96      0.00
   -7   11    3     -4.27      0.00
   -7   11    2      0.56      0.00
   -7   11    1      6.18      0.00
    7   11    0     -0.53      0.00
    7   11    1      3.63      0.00
    7   11    2     -2.55      0.00
    7   11    3      7.63      0.00
    7   11    4      0.51      0.00
    7   11    5      0.33      0.00
    7   11    6     -3.90      0.00
    7   11    7      6.05      0.00
    7   11    8     -3.75      0.00
    7   11    9      0.07      0.00
    7   11   10     -3.92      0.00
    7   11   11      1.71      0.00
    7   11   12      0.56      0.00
    7   11   13      3.28      0.00
   -7   12   14      2.58      0.00
   -7   12   13      0.13      0.00
   -7   12   12     -1.54      0.00
   -7   12   11     -1.53      0.00
   -7   12   10     -1.52      0.00
   -7   12    9     -1.74      0.00
   -7   12    8      0.96      0.00
   -7   12    7      0.81      0.00
   -7   12    6     -3.21      0.00
   -7   12    5      0.22      0.00
   -7   12    4     -7.30      0.00
   -7   12    3      3.38      0.00
   -7   12    2     -0.37      0.00
   -7   12    1     -4.02      0.00
    7   12    0      3.73      0.00
    7   12    1     -4.04      0.00
    7   12    2     -1.85      0.00
    7   12    3      4.05      0.00
    7   12    4      0.76      0.00
    7   12    5     -0.09      0.00
    7   12    6      0.97      0.00
    7   12    7     -0.96      0.00
    7   12    8     -1.68      0.00
    7   12    9     -0.14      0.00
    7   12   10     -3.30      0.00
    7   12   11     -1.40      0.00
    7   12   12      0.78      0.00
   -7   13   13      0.42      0.00
   -7   13   12     -1.26      0.00
   -7   13   11     -0.33      0.00
   -7   13   10      0.64      0.00
   -7   13    9     -3.06      0.00
   -7   13    8      1.73      0.00
   -7   13    7     -2.29      0.00
   -7   13    6     -0.02      0.00
   -7   13    5     -4.77      0.00
   -7   13    4      3.43      0.00
   -7   13    3     -3.30      0.00
   -7   13    2     -0.49      0.00
   -7   13    1     -0.30      0.00
    7   13    0     -0.20      0.00
    7   13    1      0.08      0.00
    7   13    2     -1.42      0.00
    7   13    3     -7.07      0.00
    7   13    4      0.41      0.00
    7   13    5      2.35      0.00
    7   13    6      1.05      0.00
    7   13    7     -1.03      0.00
    7   13    8      0.68      0.00
    7   13    9     -1.38      0.00
    7   13   10     -0.29      0.00
    7   13   11     -3.33      0.00
   -7   14   12      0.62      0.00
   -7   14   11     -0.75      0.00
   -7   14   10      0.28      0.00
   -7   14    9      1.44      0.00
   -7   14    8     -2.14      0.00
   -7   14    7      0.01      0.00
   -7   14    6     -0.19      0.00
   -7   14    5     -1.31      0.00
   -7   14    4      0.97      0.00
   -7   14    3     -0.87      0.00
   -7   14    2      0.30      0.00
   -7   14    1      2.22      0.00
    7   14    0      0.17      0.00
    7   14    1      1.91      0.00
    7   14    2     -1.92      0.00
    7   14    3     -3.88      0.00
    7   14    4     -1.30      0.00
    7   14    5     -1.27      0.00
    7   14    6      1.02      0.00
    7   14    7      2.19      0.00
    7   14    8      2.14      0.00
    7   14    9      0.08      0.00
    7   14   10     -1.06      0.00
    7   14   11      0.77      0.00
   -7   15   11     -0.39      0.00
   -7   15   10     -1.54      0.00
   -7   15    9     -0.24      0.00
   -7   15    8      0.16      0.00
   -7   15    7     -0.45      0.00
   -7   15    6     -0.29      0.00
   -7   15    5      3.29      0.00
   -7   15    4     -4.76      0.00
   -7   15    3      2.93      0.00
   -7   15    2      1.41      0.00
   -7   15    1     -0.29      0.00
    7   15    0      0.98      0.00
    7   15    1     -2.38      0.00
    7   15    2      0.67      0.00
    7   15    3      1.66      0.00
    7   15    4     -3.14      0.00
    7   15    5     -2.44      0.00
    7   15    6     -0.55      0.00
    7   15    7      1.60      0.00
    7   15    8      0.91      0.00
    7   15    9      1.64      0.00
    7   15   10      1.33      0.00
   -7   16   10      0.15      0.00
   -7   16    9     -0.34      0.00
   -7   16    8      0.33      0.00
   -7   16    7      0.52      0.00
   -7   16    6     -0.69      0.00
   -7   16    5     -1.82      0.00
   -7   16    4      1.45      0.00
   -7   16    3     -1.46      0.00
   -7   16    2      0.08      0.00
   -7   16    1     -2.34      0.00
    7   16    0     -3.96      0.00
    7   16    1     -0.29      0.00
    7   16    2     -0.78      0.00
    7   16    3      1.08      0.00
    7   16    4     -0.94      0.00
    7   16    5     -0.47      0.00
    7   16    6     -0.23      0.00
    7   16    7     -1.37      0.00
    7   16    8      0.76      0.00
   -7   17    9      2.77      0.00
   -7   17    8      1.38      0.00
   -7   17    7     -0.20      0.00
   -7   17    6     -1.03      0.00
   -7   17    5     -2.54      0.00
   -7   17    4      0.44      0.00
   -7   17    3     -0.55      0.00
   -7   17    2     -3.70      0.00
   -7   17    1     -2.50      0.00
    7   17    0      1.30      0.00
    7   17    1     -1.30      0.00
    7   17    2     -0.13      0.00
    7   17    3     -2.46      0.00
    7   17    4      3.31      0.00
    7   17    5     -0.33      0.00
    7   17    6      0.28      0.00
    7   17    7      0.17      0.00
   -7   18    7     -0.32      0.00
   -7   18    6      0.42      0.00
   -7   18    5      0.51      0.00
   -7   18    4     -0.04      0.00
   -7   18    3     -0.56      0.00
   -7   18    2     -1.32      0.00
   -7   18    1     -1.20      0.00
    7   18    0      1.82      0.00
    7   18    1     -0.21      0.00
    7   18    2     -1.43      0.00
    7   18    3      0.34      0.00
    7   18    4     -2.18      0.00
    7   18    5      2.06      0.00
   -7   19    4      0.59      0.00
   -7   19    3     -0.82      0.00
   -7   19    2      0.94      0.00
   -7   19    1      2.11      0.00
    7   19    0     -0.56      0.00
    7   19    1      1.80      0.00
    7   19    2     -0.98      0.00
    7   19    3     -1.35      0.00
   -8    0   18      1.75      0.00
   -8    0   16      1.21      0.00
   -8    0   14      4.40      0.00
   -8    0   12     -3.62      0.00
   -8    0   10      2.23      0.00
   -8    0    8      4.51      0.00
   -8    0    6     21.00      0.00
   -8    0    2     33.70      0.00
    8    0    0     35.36      0.00
    8    0    2     52.62      0.00
    8    0    4     13.44      0.00
    8    0    6     -1.06      0.00
    8    0    8     -3.49      0.00
    8    0   10      0.40      0.00
    8    0   12      2.19      0.00
    8    0   14      2.47      0.00
    8    0   16     -1.12      0.00
   -8    1   18      0.67      0.00
   -8    1   17      0.38      0.00
   -8    1   16      2.58      0.00
   -8    1   15      0.86      0.00
   -8    1   14     -3.76      0.00
   -8    1   13      1.28      0.00
   -8    1   12     -3.73      0.00
   -8    1   11     -2.39      0.00
   -8    1   10      1.78      0.00
   -8    1    9     -0.84      0.00
   -8    1    8      2.37      0.00
   -8    1    7      6.38      0.00
   -8    1    6      2.99      0.00
   -8    1    5      7.74      0.00
   -8    1    4     -0.82      0.00
   -8    1    3      1.19      0.00
   -8    1    2     -3.43      0.00
   -8    1    1     13.33      0.00
    8    1    0     22.73      0.00
    8    1    1     13.88      0.00
    8    1    2    -11.94      0.00
    8    1    3      4.59      0.00
    8    1    4     -1.28      0.00
    8    1    5     -6.14      0.00
    8    1    6     -2.70      0.00
    8    1    7     -3.57      0.00
    8    1    8      7.61      0.00
    8    1    9     -3.64      0.00
    8    1   10     -3.27      0.00
    8    1   11     -0.03      0.00
    8    1   12     -0.45      0.00
    8    1   13      2.72      0.00
    8    1   14      0.31      0.00
    8    1   15      1.37      0.00
    8    1   16     -0.05      0.00
   -8    2   17      1.61      0.00
   -8    2   16     -1.25      0.00
   -8    2   15     -0.40      0.00
   -8    2   14     -1.29      0.00
   -8    2   13     -5.49      0.00
   -8    2   12      2.33      0.00
   -8    2   11     -2.33      0.00
   -8    2   10     -7.17      0.00
   -8    2    9      2.11      0.00
   -8    2    8      0.44      0.00
   -8    2    7     11.04      0.00
   -8    2    6     -5.51      0.00
   -8    2    5      0.18      0.00
   -8    2    4     -1.82      0.00
   -8    2    3     -0.75      0.00
   -8    2    2    -16.64      0.00
   -8    2    1     -8.58      0.00
    8    2    0     -8.99      0.00
    8    2    1      1.95      0.00
    8    2    2    -38.81      0.00
    8    2    3     -3.43      0.00
    8    2    4    -16.33      0.00
    8    2    5     -1.68      0.00
    8    2    6     -4.82      0.00
    8    2    7      5.08      0.00
    8    2    8     -1.79      0.00
    8    2    9      2.94      0.00
    8    2   10     -3.17      0.00
    8    2   11     -0.80      0.00
    8    2   12      0.63      0.00
    8    2   13     -0.76      0.00
    8    2   14      1.51      0.00
    8    2   15      1.58      0.00
   -8    3   17     -1.28      0.00
   -8    3   16      0.76      0.00
   -8    3   15     -1.45      0.00
   -8    3   14     -1.01      0.00
   -8    3   13      0.80      0.00
   -8    3   12     -2.81      0.00
   -8    3   11     -1.11      0.00
   -8    3   10     -2.78      0.00
   -8    3    9     -0.95      0.00
   -8    3    8      6.40      0.00
   -8    3    7     -1.16      0.00
   -8    3    6      4.84      0.00
   -8    3    5      0.82      0.00
   -8    3    4     -4.38      0.00
   -8    3    3     13.24      0.00
   -8    3    2     -9.92      0.00
   -8    3    1     -4.61      0.00
    8    3    0    -10.16      0.00
    8    3    1    -18.75      0.00
    8    3    2      9.21      0.00
    8    3    3    -15.47      0.00
    8    3    4      0.07      0.00
    8    3    5      3.36      0.00
    8    3    6      9.49      0.00
    8    3    7      0.80      0.00
    8    3    8     -1.38      0.00
    8    3    9      2.51      0.00
    8    3   10      3.11      0.00
    8    3   11      0.94      0.00
    8    3   12     -1.19      0.00
    8    3   13     -1.51      0.00
    8    3   14      1.77      0.00
    8    3   15      1.04      0.00
   -8    4   17      0.51      0.00
   -8    4   16     -1.39      0.00
   -8    4   15      0.49      0.00
   -8    4   14      0.32      0.00
   -8    4   13      0.31      0.00
   -8    4   12     -0.31      0.00
   -8    4   11     -2.32      0.00
   -8    4   10      4.44      0.00
   -8    4    9      2.28      0.00
   -8    4    8     -1.78      0.00
   -8    4    7     -4.43      0.00
   -8    4    6      2.62      0.00
   -8    4    5      3.71      0.00
   -8    4    4     11.72      0.00
   -8    4    3    -11.54      0.00
   -8    4    2     15.20      0.00
   -8    4    1     -0.02      0.00
    8    4    0    -16.64      0.00
    8    4    1     -1.26      0.00
    8    4    2      7.35      0.00
    8    4    3      6.93      0.00
    8    4    4      2.40      0.00
    8    4    5     15.14      0.00
    8    4    6     -0.16      0.00
    8    4    7      5.58      0.00
    8    4    8      0.33      0.00
    8    4    9     -1.09      0.00
    8    4   10      5.34      0.00
    8    4   11      0.45      0.00
    8    4   12     -1.33      0.00
    8    4   13      1.97      0.00
    8    4   14     -1.04      0.00
    8    4   15      0.04      0.00
   -8    5   17     -1.36      0.00
   -8    5   16      0.16      0.00
   -8    5   15      0.31      0.00
   -8    5   14      0.98      0.00
   -8    5   13     -1.04      0.00
   -8    5   12     -0.44      0.00
   -8    5   11      3.65      0.00
   -8    5   10      0.86      0.00
   -8    5    9      0.66      0.00
   -8    5    8     -4.12      0.00
   -8    5    7     -6.07      0.00
   -8    5    6      0.20      0.00
   -8    5    5      1.73      0.00
   -8    5    4      3.72      0.00
   -8    5    3     -5.67      0.00
   -8    5    2      3.81      0.00
   -8    5    1    -15.41      0.00
    8    5    0      2.36      0.00
    8    5    1     -9.10      0.00
    8    5    2     -7.02      0.00
    8    5    3      3.76      0.00
    8    5    4     17.44      0.00
    8    5    5    -11.96      0.00
    8    5    6      8.54      0.00
    8    5    7     -4.27      0.00
    8    5    8      3.28      0.00
    8    5    9      0.27      0.00
    8    5   10     -1.57      0.00
    8    5   11      0.95      0.00
    8    5   12      1.89      0.00
    8    5   13     -0.11      0.00
    8    5   14      0.39      0.00
    8    5   15      1.54      0.00
   -8    6   17     -0.65      0.00
   -8    6   16      0.76      0.00
   -8    6   15      1.40      0.00
   -8    6   14     -0.55      0.00
   -8    6   13      0.99      0.00
   -8    6   12      0.85      0.00
   -8    6   11     -0.19      0.00
   -8    6   10      0.64      0.00
   -8    6    9     -6.97      0.00
   -8    6    8     -2.99      0.00
   -8    6    7      3.46      0.00
   -8    6    6     -7.39      0.00
   -8    6    5     -1.31      0.00
   -8    6    4     -5.41      0.00
   -8    6    3      8.13      0.00
   -8    6    2    -20.25      0.00
   -8    6    1      1.53      0.00
    8    6    0     -3.11      0.00
    8    6    1     -7.92      0.00
    8    6    2     -6.50      0.00
    8    6    3      2.39      0.00
    8    6    4     -5.99      0.00
    8    6    5      5.18      0.00
    8    6    6     -6.26      0.00
    8    6    7     -1.02      0.00
    8    6    8     -0.95      0.00
    8    6    9     -0.47      0.00
    8    6   10      0.00      0.00
    8    6   11      0.85      0.00
    8    6   12      0.27      0.00
    8    6   13     -1.25      0.00
    8    6   14      2.99      0.00
    8    6   15      0.86      0.00
   -8    7   16     -0.24      0.00
   -8    7   15     -0.25      0.00
   -8    7   14      0.59      0.00
   -8    7   13      0.44      0.00
   -8    7   12      1.18      0.00
   -8    7   11     -1.11      0.00
   -8    7   10     -4.42      0.00
   -8    7    9      1.02      0.00
   -8    7    8     -0.74      0.00
   -8    7    7      0.00      0.00
   -8    7    6      1.54      0.00
   -8    7    5     -6.59      0.00
   -8    7    4     -2.64      0.00
   -8    7    3     -1.86      0.00
   -8    7    2     -3.75      0.00
   -8    7    1     -1.63      0.00
    8    7    0     -7.23      0.00
    8    7    1      1.54      0.00
    8    7    2      0.11      0.00
    8    7    3     -9.10      0.00
    8    7    4     -2.74      0.00
    8    7    5      2.84      0.00
    8    7    6     -0.76      0.00
    8    7    7     -0.88      0.00
    8    7    8     -4.24      0.00
    8    7    9     -0.75      0.00
    8    7   10      4.33      0.00
    8    7   11     -0.92      0.00
    8    7   12     -0.82      0.00
    8    7   13      1.01      0.00
    8    7   14     -0.48      0.00
   -8    8   16     -0.67      0.00
   -8    8   15     -2.06      0.00
   -8    8   14      0.68      0.00
   -8    8   13      0.02      0.00
   -8    8   12     -1.87      0.00
   -8    8   11      0.43      0.00
   -8    8   10     -1.17      0.00
   -8    8    9      4.88      0.00
   -8    8    8      1.59      0.00
   -8    8    7     -1.64      0.00
   -8    8    6      0.64      0.00
   -8    8    5      5.44      0.00
   -8    8    4     -7.13      0.00
   -8    8    3     -4.66      0.00
   -8    8    2      6.94      0.00
   -8    8    1      5.26      0.00
    8    8    0     -4.26      0.00
    8    8    1     -0.34      0.00
    8    8    2     -7.02      0.00
    8    8    3     -0.91      0.00
    8    8    4     -6.96      0.00
    8    8    5      2.50      0.00
    8    8    6      3.10      0.00
    8    8    7     -0.61      0.00
    8    8    8     -2.92      0.00
    8    8    9      5.35      0.00
    8    8   10     -4.55      0.00
    8    8   11      5.08      0.00
    8    8   12     -1.32      0.00
    8    8   13      1.88      0.00
    8    8   14     -0.60      0.00
   -8    9   16     -2.65      0.00
   -8    9   15      1.61      0.00
   -8    9   14     -0.59      0.00
   -8    9   13     -0.21      0.00
   -8    9   12      0.07      0.00
   -8    9   11     -1.26      0.00
   -8    9   10      6.69      0.00
   -8    9    9     -3.62      0.00
   -8    9    8      2.51      0.00
   -8    9    7      0.59      0.00
   -8    9    6     -0.90      0.00
   -8    9    5     -1.81      0.00
   -8    9    4      6.71      0.00
   -8    9    3     -5.75      0.00
   -8    9    2      7.97      0.00
   -8    9    1      1.01      0.00
    8    9    0     -1.80      0.00
    8    9    1     -6.93      0.00
    8    9    2     -0.36      0.00
    8    9    3     -4.49      0.00
    8    9    4      3.14      0.00
    8    9    5     -4.68      0.00
    8    9    6     -0.40      0.00
    8    9    7      3.28      0.00
    8    9    8      4.17      0.00
    8    9    9     -3.46      0.00
    8    9   10      3.39      0.00
    8    9   11     -2.51      0.00
    8    9   12      3.98      0.00
    8    9   13     -0.82      0.00
    8    9   14      3.08      0.00
   -8   10   15     -0.94      0.00
   -8   10   14      2.17      0.00
   -8   10   13     -0.53      0.00
   -8   10   12      1.36      0.00
   -8   10   11      2.85      0.00
   -8   10   10      0.76      0.00
   -8   10    9      0.63      0.00
   -8   10    8      0.87      0.00
   -8   10    7     -2.65      0.00
   -8   10    6      2.57      0.00
   -8   10    5     -5.64      0.00
   -8   10    4      1.17      0.00
   -8   10    3     11.02      0.00
   -8   10    2     -4.66      0.00
   -8   10    1      0.86      0.00
    8   10    0      3.45      0.00
    8   10    1     -0.37      0.00
    8   10    2      1.73      0.00
    8   10    3      2.12      0.00
    8   10    4      1.55      0.00
    8   10    5     -5.34      0.00
    8   10    6      0.91      0.00
    8   10    7     -0.36      0.00
    8   10    8      2.91      0.00
    8   10    9     -1.91      0.00
    8   10   10      0.58      0.00
    8   10   11     -2.86      0.00
    8   10   12      0.55      0.00
    8   10   13      1.13      0.00
   -8   11   15      3.74      0.00
   -8   11   14     -2.09      0.00
   -8   11   13      0.65      0.00
   -8   11   12     -0.05      0.00
   -8   11   11      2.33      0.00
   -8   11   10     -1.14      0.00
   -8   11    9      5.84      0.00
   -8   11    8     -2.96      0.00
   -8   11    7      4.03      0.00
   -8   11    6     -4.99      0.00
   -8   11    5      2.65      0.00
   -8   11    4      0.07      0.00
   -8   11    3      1.49      0.00
   -8   11    2      3.16      0.00
   -8   11    1     -0.97      0.00
    8   11    0      0.19      0.00
    8   11    1      6.56      0.00
    8   11    2      2.48      0.00
    8   11    3      2.46      0.00
    8   11    4     -5.19      0.00
    8   11    5      3.87      0.00
    8   11    6     -2.80      0.00
    8   11    7     -2.10      0.00
    8   11    8     -2.79      0.00
    8   11    9      0.63      0.00
    8   11   10     -3.21      0.00
    8   11   11      0.88      0.00
    8   11   12     -3.79      0.00
   -8   12   14      0.45      0.00
   -8   12   13     -1.78      0.00
   -8   12   12     -1.12      0.00
   -8   12   11     -0.20      0.00
   -8   12   10      1.81      0.00
   -8   12    9      0.25      0.00
   -8   12    8      0.65      0.00
   -8   12    7     -0.81      0.00
   -8   12    6     -1.76      0.00
   -8   12    5      5.20      0.00
   -8   12    4     -1.83      0.00
   -8   12    3     -0.60      0.00
   -8   12    2     -0.91      0.00
   -8   12    1      3.88      0.00
    8   12    0     -0.94      0.00
    8   12    1      1.89      0.00
    8   12    2      1.46      0.00
    8   12    3     -4.33      0.00
    8   12    4     -0.17      0.00
    8   12    5     -0.37      0.00
    8   12    6     -0.71      0.00
    8   12    7     -1.86      0.00
    8   12    8     -3.44      0.00
    8   12    9      1.36      0.00
    8   12   10     -0.71      0.00
    8   12   11      0.44      0.00
    8   12   12      0.85      0.00
   -8   13   13     -1.61      0.00
   -8   13   12     -0.65      0.00
   -8   13   11     -0.19      0.00
   -8   13   10      2.76      0.00
   -8   13    9     -2.16      0.00
   -8   13    8      0.82      0.00
   -8   13    7     -3.63      0.00
   -8   13    6      3.88      0.00
   -8   13    5     -3.66      0.00
   -8   13    4      2.51      0.00
   -8   13    3     -1.15      0.00
   -8   13    2     -1.11      0.00
   -8   13    1     -0.58      0.00
    8   13    0     -0.89      0.00
    8   13    1     -1.64      0.00
    8   13    2     -3.48      0.00
    8   13    3      1.46      0.00
    8   13    4     -2.30      0.00
    8   13    5     -2.52      0.00
    8   13    6     -0.04      0.00
    8   13    7      1.93      0.00
    8   13    8      0.65      0.00
    8   13    9     -0.84      0.00
    8   13   10      3.54      0.00
    8   13   11      0.50      0.00
   -8   14   12     -0.08      0.00
   -8   14   11     -0.18      0.00
   -8   14   10      0.58      0.00
   -8   14    9      0.00      0.00
   -8   14    8      0.94      0.00
   -8   14    7     -0.26      0.00
   -8   14    6     -0.36      0.00
   -8   14    5     -1.37      0.00
   -8   14    4      1.32      0.00
   -8   14    3     -2.11      0.00
   -8   14    2      3.29      0.00
   -8   14    1     -3.63      0.00
    8   14    0      0.57      0.00
    8   14    1     -4.88      0.00
    8   14    2      2.70      0.00
    8   14    3     -1.07      0.00
    8   14    4      0.83      0.00
    8   14    5     -2.51      0.00
    8   14    6      0.46      0.00
    8   14    7      0.35      0.00
    8   14    8      1.39      0.00
    8   14    9      1.28      0.00
    8   14   10      1.06      0.00
   -8   15   11      1.11      0.00
   -8   15   10     -2.26      0.00
   -8   15    9      1.59      0.00
   -8   15    8     -1.43      0.00
   -8   15    7      1.93      0.00
   -8   15    6     -1.38      0.00
   -8   15    5      2.07      0.00
   -8   15    4     -0.83      0.00
   -8   15    3      3.11      0.00
   -8   15    2     -3.30      0.00
   -8   15    1      2.82      0.00
    8   15    0     -2.65      0.00
    8   15    1      1.97      0.00
    8   15    2     -2.65      0.00
    8   15    3      1.14      0.00
    8   15    4      0.34      0.00
    8   15    5      2.23      0.00
    8   15    6     -0.42      0.00
    8   15    7     -2.47      0.00
    8   15    8      1.30      0.00
    8   15    9      0.10      0.00
   -8   16   10      1.04      0.00
   -8   16    9      0.05      0.00
   -8   16    8     -0.57      0.00
   -8   16    7     -0.65      0.00
   -8   16    6      0.97      0.00
   -8   16    5      2.11      0.00
   -8   16    4      0.25      0.00
   -8   16    3     -0.19      0.00
   -8   16    2      0.59      0.00
   -8   16    1      1.42      0.00
    8   16    0      2.42      0.00
    8   16    1     -1.20      0.00
    8   16    2     -1.46      0.00
    8   16    3     -2.18      0.00
    8   16    4      1.77      0.00
    8   16    5      3.16      0.00
    8   16    6      0.74      0.00
    8   16    7      0.94      0.00
    8   16    8     -1.81      0.00
   -8   17    9     -0.19      0.00
   -8   17    8      0.90      0.00
   -8   17    7      0.73      0.00
   -8   17    6      0.10      0.00
   -8   17    5     -0.59      0.00
   -8   17    4     -0.83      0.00
   -8   17    3     -2.43      0.00
   -8   17    2      1.16      0.00
   -8   17    1      0.51      0.00
    8   17    0      0.80      0.00
    8   17    1     -0.23      0.00
    8   17    2     -1.86      0.00
    8   17    3      0.10      0.00
    8   17    4      0.02      0.00
    8   17    5      0.14      0.00
    8   17    6      2.06      0.00
    8   17    7      1.84      0.00
   -8   18    7     -0.11      0.00
   -8   18    6      0.76      0.00
   -8   18    5     -2.36      0.00
   -8   18    4     -2.34      0.00
   -8   18    3     -0.36      0.00
   -8   18    2     -1.83      0.00
   -8   18    1      0.57      0.00
    8   18    0     -1.50      0.00
    8   18    1     -0.58      0.00
    8   18    2      2.11      0.00
    8   18    3     -1.10      0.00
    8   18    4     -1.25      0.00
    8   18    5     -0.38      0.00
   -8   19    3     -0.98      0.00
   -8   19    2      1.51      0.00
   -8   19    1     -1.47      0.00
    8   19    0     -2.33      0.00
    8   19    1      0.67      0.00
   -9    0   16      1.29      0.00
   -9    0   14     -1.26      0.00
   -9    0   12      4.11      0.00
   -9    0   10      2.04      0.00
   -9    0    8      9.94      0.00
   -9    0    6     -9.86      0.00
   -9    0    4      9.84      0.00
   -9    0    2     -1.56      0.00
    9    0    0     32.45      0.00
    9    0    2     36.98      0.00
    9    0    4     34.43      0.00
    9    0    6      0.30      0.00
    9    0    8      3.80      0.00
    9    0   10      4.94      0.00
    9    0   12     -0.51      0.00
    9    0   14     -0.99      0.00
   -9    1   17      1.27      0.00
   -9    1   16     -1.75      0.00
   -9    1   15     -0.70      0.00
   -9    1   14      2.08      0.00
   -9    1   13      0.74      0.00
   -9    1   12     -1.33      0.00
   -9    1   11      3.19      0.00
   -9    1   10      2.42      0.00
   -9    1    9      2.41      0.00
   -9    1    8      0.18      0.00
   -9    1    7     -2.83      0.00
   -9    1    6      3.60      0.00
   -9    1    5     -4.92      0.00
   -9    1    4      6.71      0.00
   -9    1    3     -4.87      0.00
   -9    1    2     -6.42      0.00
   -9    1    1     -1.51      0.00
    9    1    0      9.56      0.00
    9    1    1     13.58      0.00
    9    1    2      0.93      0.00
    9    1    3     11.40      0.00
    9    1    4    -13.55      0.00
    9    1    5      1.67      0.00
    9    1    6      4.67      0.00
    9    1    7     -0.98      0.00
    9    1    8     -0.60      0.00
    9    1    9      3.28      0.00
    9    1   10      2.80      0.00
    9    1   11      1.09      0.00
    9    1   12      0.46      0.00
    9    1   13     -1.05      0.00
    9    1   14      1.24      0.00
    9    1   15      0.34      0.00
   -9    2   17     -2.07      0.00
   -9    2   16      0.22      0.00
   -9    2   15     -1.57      0.00
   -9    2   14      0.80      0.00
   -9    2   13      2.94      0.00
   -9    2   12     -0.82      0.00
   -9    2   11     -0.99      0.00
   -9    2   10      4.02      0.00
   -9    2    9     -1.32      0.00
   -9    2    8     -8.03      0.00
   -9    2    7      4.19      0.00
   -9    2    6      1.36      0.00
   -9    2    5     14.78      0.00
   -9    2    4    -17.67      0.00
   -9    2    3      0.94      0.00
   -9    2    2     -3.58      0.00
   -9    2    1      4.04      0.00
    9    2    0    -19.30      0.00
    9    2    1     -4.18      0.00
    9    2    2    -12.79      0.00
    9    2    3     -8.75      0.00
    9    2    4    -22.43      0.00
    9    2    5     -1.78      0.00
    9    2    6      2.15      0.00
    9    2    7      1.33      0.00
    9    2    8      2.05      0.00
    9    2    9      3.82      0.00
    9    2   10     -0.96      0.00
    9    2   11      3.05      0.00
    9    2   12     -0.39      0.00
    9    2   13      0.20      0.00
    9    2   14      0.01      0.00
    9    2   15     -0.52      0.00
   -9    3   17     -0.49      0.00
   -9    3   16     -2.49      0.00
   -9    3   15      2.26      0.00
   -9    3   14     -1.00      0.00
   -9    3   13     -0.68      0.00
   -9    3   12      3.63      0.00
   -9    3   11     -1.37      0.00
   -9    3   10     -4.47      0.00
   -9    3    9      1.73      0.00
   -9    3    8     -1.60      0.00
   -9    3    7      3.15      0.00
   -9    3    6     12.94      0.00
   -9    3    5     -2.40      0.00
   -9    3    4      6.59      0.00
   -9    3    3      0.60      0.00
   -9    3    2      4.58      0.00
   -9    3    1      4.40      0.00
    9    3    0    -14.59      0.00
    9    3    1    -10.06      0.00
    9    3    2     -7.67      0.00
    9    3    3     -8.88      0.00
    9    3    4      7.83      0.00
    9    3    5      3.11      0.00
    9    3    6     -4.07      0.00
    9    3    7     11.42      0.00
    9    3    8      4.76      0.00
    9    3    9      0.97      0.00
    9    3   10      1.38      0.00
    9    3   11     -1.73      0.00
    9    3   12      0.83      0.00
    9    3   13      0.24      0.00
    9    3   14     -2.79      0.00
    9    3   15     -0.85      0.00
   -9    4   17     -0.68      0.00
   -9    4   16      0.21      0.00
   -9    4   15     -1.91      0.00
   -9    4   14      0.81      0.00
   -9    4   13     -1.47      0.00
   -9    4   12     -1.41      0.00
   -9    4   11      3.33      0.00
   -9    4   10     -4.24      0.00
   -9    4    9     -2.16      0.00
   -9    4    8     11.89      0.00
   -9    4    7      2.50      0.00
   -9    4    6      1.05      0.00
   -9    4    5      3.03      0.00
   -9    4    4      9.54      0.00
   -9    4    3      5.86      0.00
   -9    4    2      0.44      0.00
   -9    4    1      0.67      0.00
    9    4    0      6.20      0.00
    9    4    1     -5.25      0.00
    9    4    2     -6.64      0.00
    9    4    3     10.79      0.00
    9    4    4     12.74      0.00
    9    4    5      0.46      0.00
    9    4    6      7.36      0.00
    9    4    7      2.19      0.00
    9    4    8      4.40      0.00
    9    4    9      1.65      0.00
    9    4   10     -0.92      0.00
    9    4   11     -1.31      0.00
    9    4   12     -0.39      0.00
    9    4   13     -1.47      0.00
    9    4   14     -0.75      0.00
    9    4   15     -1.48      0.00
   -9    5   17     -1.31      0.00
   -9    5   16     -0.35      0.00
   -9    5   15     -0.61      0.00
   -9    5   14     -2.10      0.00
   -9    5   13      1.01      0.00
   -9    5   12     -1.46      0.00
   -9    5   11     -3.31      0.00
   -9    5   10      6.20      0.00
   -9    5    9      0.33      0.00
   -9    5    8      1.94      0.00
   -9    5    7      5.30      0.00
   -9    5    6     -1.64      0.00
   -9    5    5      2.98      0.00
   -9    5    4      4.28      0.00
   -9    5    3     -6.05      0.00
   -9    5    2      6.19      0.00
   -9    5    1    -13.51      0.00
    9    5    0      1.78      0.00
    9    5    1     -8.08      0.00
    9    5    2     10.78      0.00
    9    5    3     -5.72      0.00
    9    5    4     -2.68      0.00
    9    5    5      2.93      0.00
    9    5    6      2.44      0.00
    9    5    7     -4.60      0.00
    9    5    8      1.97      0.00
    9    5    9     -0.94      0.00
    9    5   10      0.92      0.00
    9    5   11     -0.69      0.00
    9    5   12     -2.08      0.00
    9    5   13     -0.20      0.00
    9    5   14     -0.13      0.00
    9    5   15     -0.44      0.00
   -9    6   17      0.23      0.00
   -9    6   16     -1.40      0.00
   -9    6   15      0.13      0.00
   -9    6   14      0.89      0.00
   -9    6   13     -1.76      0.00
   -9    6   12      0.36      0.00
   -9    6   11     -1.23      0.00
   -9    6   10     -0.14      0.00
   -9    6    9      4.45      0.00
   -9    6    8     -4.87      0.00
   -9    6    7      0.10      0.00
   -9    6    6      4.12      0.00
   -9    6    5      1.04      0.00
   -9    6    4     -7.64      0.00
   -9    6    3      1.29      0.00
   -9    6    2     -8.08      0.00
   -9    6    1      7.88      0.00
    9    6    0    -15.42      0.00
    9    6    1     11.45      0.00
    9    6    2     -1.14      0.00
    9    6    3     -4.11      0.00
    9    6    4     -4.65      0.00
    9    6    5     -4.47      0.00
    9    6    6     -2.49      0.00
    9    6    7      0.12      0.00
    9    6    8     -5.08      0.00
    9    6    9      2.47      0.00
    9    6   10     -0.66      0.00
    9    6   11     -1.23      0.00
    9    6   12      1.50      0.00
    9    6   13     -0.92      0.00
    9    6   14     -0.08      0.00
   -9    7   16      1.35      0.00
   -9    7   15      0.37      0.00
   -9    7   14      0.50      0.00
   -9    7   13      1.46      0.00
   -9    7   12     -2.00      0.00
   -9    7   11      1.54      0.00
   -9    7   10     -3.12      0.00
   -9    7    9     -2.98      0.00
   -9    7    8      2.38      0.00
   -9    7    7     -3.50      0.00
   -9    7    6     -1.01      0.00
   -9    7    5     -0.80      0.00
   -9    7    4     -4.40      0.00
   -9    7    3     -0.12      0.00
   -9    7    2     -1.81      0.00
   -9    7    1     -0.69      0.00
    9    7    0      7.06      0.00
    9    7    1     -4.04      0.00
    9    7    2      0.92      0.00
    9    7    3      6.58      0.00
    9    7    4     -3.03      0.00
    9    7    5     -0.70      0.00
    9    7    6     -5.18      0.00
    9    7    7     -1.25      0.00
    9    7    8      3.36      0.00
    9    7    9     -3.04      0.00
    9    7   10     -0.84      0.00
    9    7   11      1.79      0.00
    9    7   12      1.32      0.00
    9    7   13      2.12      0.00
    9    7   14     -3.48      0.00
   -9    8   16      0.25      0.00
   -9    8   15      1.58      0.00
   -9    8   14      0.55      0.00
   -9    8   13     -0.40      0.00
   -9    8   12      1.10      0.00
   -9    8   11     -0.13      0.00
   -9    8   10     -2.02      0.00
   -9    8    9      0.40      0.00
   -9    8    8     -4.04      0.00
   -9    8    7      3.96      0.00
   -9    8    6     -5.46      0.00
   -9    8    5     -4.79      0.00
   -9    8    4      4.42      0.00
   -9    8    3      0.07      0.00
   -9    8    2     -3.66      0.00
   -9    8    1    -12.13      0.00
    9    8    0     -1.66      0.00
    9    8    1      0.19      0.00
    9    8    2     -5.71      0.00
    9    8    3      5.44      0.00
    9    8    4      2.03      0.00
    9    8    5     -0.53      0.00
    9    8    6     -3.98      0.00
    9    8    7      1.87      0.00
    9    8    8     -1.31      0.00
    9    8    9      2.30      0.00
    9    8   10     -1.26      0.00
    9    8   11      3.00      0.00
    9    8   12      0.78      0.00
    9    8   13      1.27      0.00
    9    8   14      0.81      0.00
   -9    9   15     -0.44      0.00
   -9    9   14      0.01      0.00
   -9    9   13     -1.07      0.00
   -9    9   12      1.37      0.00
   -9    9   11     -1.30      0.00
   -9    9   10      2.18      0.00
   -9    9    9     -3.97      0.00
   -9    9    8      1.21      0.00
   -9    9    7     -6.31      0.00
   -9    9    6      2.32      0.00
   -9    9    5      2.95      0.00
   -9    9    4      0.57      0.00
   -9    9    3     -0.69      0.00
   -9    9    2     -2.47      0.00
   -9    9    1     -9.23      0.00
    9    9    0      1.20      0.00
    9    9    1     -3.48      0.00
    9    9    2      3.40      0.00
    9    9    3     -6.68      0.00
    9    9    4      4.69      0.00
    9    9    5     -3.83      0.00
    9    9    6      2.76      0.00
    9    9    7     -3.65      0.00
    9    9    8      0.00      0.00
    9    9    9      1.64      0.00
    9    9   10      3.08      0.00
    9    9   11     -1.21      0.00
    9    9   12      2.31      0.00
    9    9   13     -1.66      0.00
   -9   10   15     -0.63      0.00
   -9   10   14     -1.26      0.00
   -9   10   13      1.06      0.00
   -9   10   12     -0.82      0.00
   -9   10   11      0.28      0.00
   -9   10   10     -0.30      0.00
   -9   10    9     -3.08      0.00
   -9   10    8     -1.06      0.00
   -9   10    7     -3.19      0.00
   -9   10    6      3.00      0.00
   -9   10    5      3.38      0.00
   -9   10    4      2.87      0.00
   -9   10    3     -6.25      0.00
   -9   10    2     -0.87      0.00
   -9   10    1      4.94      0.00
    9   10    0     -4.00      0.00
    9   10    1      3.80      0.00
    9   10    2      3.08      0.00
    9   10    3      0.50      0.00
    9   10    4     -3.42      0.00
    9   10    5      2.23      0.00
    9   10    6     -1.57      0.00
    9   10    7     -2.12      0.00
    9   10    8      0.91      0.00
    9   10    9     -1.97      0.00
    9   10   10      2.54      0.00
    9   10   11     -0.10      0.00
    9   10   12     -0.61      0.00
    9   10   13      0.73      0.00
   -9   11   14      0.13      0.00
   -9   11   13      0.48      0.00
   -9   11   12      1.42      0.00
   -9   11   11      0.03      0.00
   -9   11   10     -4.01      0.00
   -9   11    9      3.04      0.00
   -9   11    8     -4.51      0.00
   -9   11    7      6.03      0.00
   -9   11    6      0.55      0.00
   -9   11    5     -0.67      0.00
   -9   11    4     -1.47      0.00
   -9   11    3      0.10      0.00
   -9   11    2     -2.04      0.00
   -9   11    1      3.28      0.00
    9   11    0      0.97      0.00
    9   11    1      1.33      0.00
    9   11    2      1.28      0.00
    9   11    3      3.11      0.00
    9   11    4      2.58      0.00
    9   11    5     -1.33      0.00
    9   11    6     -1.53      0.00
    9   11    7      1.22      0.00
    9   11    8     -1.78      0.00
    9   11    9     -0.42      0.00
    9   11   10     -2.33      0.00
    9   11   11      2.70      0.00
    9   11   12     -0.26      0.00
   -9   12   14     -1.85      0.00
   -9   12   13      1.80      0.00
   -9   12   12      0.08      0.00
   -9   12   11      0.07      0.00
   -9   12   10      0.09      0.00
   -9   12    9     -1.17      0.00
   -9   12    8      3.14      0.00
   -9   12    7      2.42      0.00
   -9   12    6     -1.02      0.00
   -9   12    5      0.67      0.00
   -9   12    4     -5.30      0.00
   -9   12    3      4.66      0.00
   -9   12    2      0.52      0.00
   -9   12    1     -5.90      0.00
    9   12    0      4.74      0.00
    9   12    1     -1.07      0.00
    9   12    2     -1.97      0.00
    9   12    3      4.34      0.00
    9   12    4     -0.63      0.00
    9   12    5      2.03      0.00
    9   12    6      0.04      0.00
    9   12    7     -0.08      0.00
    9   12    8     -1.38      0.00
    9   12    9      0.08      0.00
    9   12   10     -0.89      0.00
    9   12   11      0.63      0.00
   -9   13   13     -1.93      0.00
   -9   13   12      0.76      0.00
   -9   13   11      0.82      0.00
   -9   13   10      0.97      0.00
   -9   13    9      0.42      0.00
   -9   13    8      3.10      0.00
   -9   13    7     -1.66      0.00
   -9   13    6     -0.44      0.00
   -9   13    5     -1.58      0.00
   -9   13    4      2.78      0.00
   -9   13    3     -1.69      0.00
   -9   13    2      1.46      0.00
   -9   13    1      3.60      0.00
    9   13    0      2.82      0.00
    9   13    1      2.44      0.00
    9   13    2      0.93      0.00
    9   13    3     -3.83      0.00
    9   13    4      1.14      0.00
    9   13    5      1.37      0.00
    9   13    6      0.30      0.00
    9   13    7     -0.40      0.00
    9   13    8     -0.05      0.00
    9   13    9     -0.75      0.00
    9   13   10      0.64      0.00
    9   13   11      0.00      0.00
   -9   14   12      0.03      0.00
   -9   14   11     -0.14      0.00
   -9   14   10      2.79      0.00
   -9   14    9      1.72      0.00
   -9   14    8     -0.31      0.00
   -9   14    7      0.08      0.00
   -9   14    6      0.63      0.00
   -9   14    5     -0.86      0.00
   -9   14    4      2.14      0.00
   -9   14    3     -1.84      0.00
   -9   14    2      2.81      0.00
   -9   14    1      3.31      0.00
    9   14    0      2.98      0.00
    9   14    1      3.86      0.00
    9   14    2      1.38      0.00
    9   14    3     -1.60      0.00
    9   14    4      1.55      0.00
    9   14    5     -0.93      0.00
    9   14    6      2.42      0.00
    9   14    7     -1.76      0.00
    9   14    8      0.60      0.00
    9   14    9     -1.35      0.00
    9   14   10      0.27      0.00
   -9   15   11      2.03      0.00
   -9   15   10      0.49      0.00
   -9   15    9      1.15      0.00
   -9   15    8      0.81      0.00
   -9   15    7     -1.21      0.00
   -9   15    6      1.36      0.00
   -9   15    5      0.75      0.00
   -9   15    4     -2.69      0.00
   -9   15    3      3.53      0.00
   -9   15    2      1.21      0.00
   -9   15    1      1.66      0.00
    9   15    0     -1.39      0.00
    9   15    1      1.44      0.00
    9   15    2      0.57      0.00
    9   15    3      2.88      0.00
    9   15    4     -0.34      0.00
    9   15    5      3.35      0.00
    9   15    6     -1.22      0.00
    9   15    7      1.43      0.00
    9   15    8     -1.61      0.00
    9   15    9      1.37      0.00
   -9   16   10      1.75      0.00
   -9   16    9      1.35      0.00
   -9   16    8     -0.53      0.00
   -9   16    7      1.93      0.00
   -9   16    6     -2.36      0.00
   -9   16    5     -0.29      0.00
   -9   16    4      0.56      0.00
   -9   16    3      2.75      0.00
   -9   16    2      2.04      0.00
   -9   16    1      0.46      0.00
    9   16    0      0.12      0.00
    9   16    1     -2.50      0.00
    9   16    2      0.70      0.00
    9   16    3      1.59      0.00
    9   16    4     -0.18      0.00
    9   16    5      0.28      0.00
    9   16    6      2.27      0.00
    9   16    7      0.96      0.00
   -9   17    8      2.04      0.00
   -9   17    7      0.53      0.00
   -9   17    6      1.76      0.00
   -9   17    5     -1.09      0.00
   -9   17    4      3.69      0.00
   -9   17    3      0.44      0.00
   -9   17    2      3.02      0.00
   -9   17    1      0.02      0.00
    9   17    0     -0.99      0.00
    9   17    1      0.61      0.00
    9   17    2      0.21      0.00
    9   17    3     -1.09      0.00
    9   17    4      1.30      0.00
    9   17    5     -1.71      0.00
    9   17    6      1.60      0.00
   -9   18    6      0.93      0.00
   -9   18    5      4.65      0.00
   -9   18    4     -0.27      0.00
   -9   18    3      2.44      0.00
   -9   18    2     -1.87      0.00
   -9   18    1      2.66      0.00
    9   18    0      0.03      0.00
    9   18    1      0.02      0.00
    9   18    2      1.55      0.00
    9   18    3     -0.65      0.00
    9   18    4      0.47      0.00
   -9   19    1     -1.77      0.00
  -10    0   16      1.34      0.00
  -10    0   14      2.62      0.00
  -10    0   12     -3.85      0.00
  -10    0   10     -1.15      0.00
  -10    0    8      0.58      0.00
  -10    0    6      6.68      0.00
  -10    0    4    -12.87      0.00
  -10    0    2     16.63      0.00
   10    0    0     17.80      0.00
   10    0    2     42.49      0.00
   10    0    4     18.32      0.00
   10    0    6     13.43      0.00
   10    0    8     -1.81      0.00
   10    0   10      1.12      0.00
   10    0   12      1.21      0.00
   10    0   14      0.01      0.00
  -10    1   17      0.13      0.00
  -10    1   16      2.78      0.00
  -10    1   15      1.02      0.00
  -10    1   14     -2.98      0.00
  -10    1   13     -0.69      0.00
  -10    1   12     -1.72      0.00
  -10    1   11     -2.54      0.00
  -10    1   10      0.96      0.00
  -10    1    9     -3.10      0.00
  -10    1    8      4.78      0.00
  -10    1    7     -1.10      0.00
  -10    1    6     -6.79      0.00
  -10    1    5     -9.11      0.00
  -10    1    4     -0.23      0.00
  -10    1    3    -10.43      0.00
  -10    1    2     -4.77      0.00
  -10    1    1      0.70      0.00
   10    1    0     11.59      0.00
   10    1    1      8.99      0.00
   10    1    2     -6.98      0.00
   10    1    3      8.33      0.00
   10    1    4    -11.34      0.00
   10    1    5      3.83      0.00
   10    1    6     -5.96      0.00
   10    1    7      1.33      0.00
   10    1    8      7.74      0.00
   10    1    9     -2.50      0.00
   10    1   10     -1.76      0.00
   10    1   11     -0.27      0.00
   10    1   12     -1.11      0.00
   10    1   13      0.58      0.00
   10    1   14     -0.10      0.00
   10    1   15     -0.55      0.00
  -10    2   17     -0.29      0.00
  -10    2   16      0.05      0.00
  -10    2   15      0.18      0.00
  -10    2   14     -1.52      0.00
  -10    2   13     -3.95      0.00
  -10    2   12      1.33      0.00
  -10    2   11      1.34      0.00
  -10    2   10     -5.20      0.00
  -10    2    9      3.42      0.00
  -10    2    8     -4.98      0.00
  -10    2    7      4.56      0.00
  -10    2    6    -15.18      0.00
  -10    2    5     -1.27      0.00
  -10    2    4     -7.33      0.00
  -10    2    3      3.50      0.00
  -10    2    2    -21.16      0.00
  -10    2    1     -4.17      0.00
   10    2    0     -4.38      0.00
   10    2    1     -7.48      0.00
   10    2    2    -25.38      0.00
   10    2    3    -13.97      0.00
   10    2    4     -6.77      0.00
   10    2    5    -10.59      0.00
   10    2    6     -6.50      0.00
   10    2    7      4.43      0.00
   10    2    8      1.41      0.00
   10    2    9      2.53      0.00
   10    2   10     -3.69      0.00
   10    2   11     -1.41      0.00
   10    2   12     -1.03      0.00
   10    2   13     -1.04      0.00
   10    2   14     -0.63      0.00
   10    2   15     -0.84      0.00
  -10    3   17     -0.13      0.00
  -10    3   16     -0.63      0.00
  -10    3   15     -1.58      0.00
  -10    3   14      0.05      0.00
  -10    3   13      1.90      0.00
  -10    3   12      0.06      0.00
  -10    3   11     -0.43      0.00
  -10    3   10      3.72      0.00
  -10    3    9     -3.63      0.00
  -10    3    8      1.98      0.00
  -10    3    7     -7.48      0.00
  -10    3    6      5.66      0.00
  -10    3    5     -1.72      0.00
  -10    3    4     -1.53      0.00
  -10    3    3      4.86      0.00
  -10    3    2      0.54      0.00
  -10    3    1      6.20      0.00
   10    3    0     -8.13      0.00
   10    3    1     -3.53      0.00
   10    3    2    -11.35      0.00
   10    3    3     -4.40      0.00
   10    3    4     -8.23      0.00
   10    3    5      1.25      0.00
   10    3    6      4.91      0.00
   10    3    7      0.22      0.00
   10    3    8     -1.23      0.00
   10    3    9      2.23      0.00
   10    3   10      0.30      0.00
   10    3   11     -0.52      0.00
   10    3   12     -2.16      0.00
   10    3   13     -2.22      0.00
   10    3   14     -1.88      0.00
   10    3   15     -0.34      0.00
  -10    4   17     -0.09      0.00
  -10    4   16     -1.84      0.00
  -10    4   15      0.98      0.00
  -10    4   14      0.23      0.00
  -10    4   13      2.20      0.00
  -10    4   12      1.65      0.00
  -10    4   11      0.44      0.00
  -10    4   10      1.81      0.00
  -10    4    9      4.95      0.00
  -10    4    8     -4.82      0.00
  -10    4    7      0.11      0.00
  -10    4    6      5.39      0.00
  -10    4    5      0.13      0.00
  -10    4    4      9.31      0.00
  -10    4    3     -5.57      0.00
  -10    4    2     22.12      0.00
  -10    4    1      3.42      0.00
   10    4    0      1.51      0.00
   10    4    1     -3.02      0.00
   10    4    2     17.39      0.00
   10    4    3     -6.59      0.00
   10    4    4      3.61      0.00
   10    4    5      8.28      0.00
   10    4    6      2.43      0.00
   10    4    7      0.65      0.00
   10    4    8     -2.05      0.00
   10    4    9     -2.59      0.00
   10    4   10      4.56      0.00
   10    4   11     -1.91      0.00
   10    4   12     -0.77      0.00
   10    4   13     -2.83      0.00
   10    4   14     -1.46      0.00
  -10    5   17     -2.00      0.00
  -10    5   16      0.31      0.00
  -10    5   15      0.12      0.00
  -10    5   14      1.99      0.00
  -10    5   13     -0.78      0.00
  -10    5   12      0.76      0.00
  -10    5   11      4.78      0.00
  -10    5   10     -0.39      0.00
  -10    5    9      0.65      0.00
  -10    5    8      5.73      0.00
  -10    5    7     -2.90      0.00
  -10    5    6      0.61      0.00
  -10    5    5      6.00      0.00
  -10    5    4      1.36      0.00
  -10    5    3      6.11      0.00
  -10    5    2      1.70      0.00
  -10    5    1     -5.98      0.00
   10    5    0     -1.46      0.00
   10    5    1      4.26      0.00
   10    5    2     -3.65      0.00
   10    5    3      9.48      0.00
   10    5    4      6.90      0.00
   10    5    5     -4.34      0.00
   10    5    6      1.37      0.00
   10    5    7     -2.04      0.00
   10    5    8     -2.18      0.00
   10    5    9     -0.49      0.00
   10    5   10     -3.17      0.00
   10    5   11      2.57      0.00
   10    5   12     -0.89      0.00
   10    5   13     -1.27      0.00
   10    5   14     -2.76      0.00
  -10    6   16      0.72      0.00
  -10    6   15      0.02      0.00
  -10    6   14     -0.69      0.00
  -10    6   13      1.17      0.00
  -10    6   12      0.78      0.00
  -10    6   11     -0.13      0.00
  -10    6   10      5.46      0.00
  -10    6    9     -4.28      0.00
  -10    6    8      2.00      0.00
  -10    6    7      8.38      0.00
  -10    6    6     -5.25      0.00
  -10    6    5      3.43      0.00
  -10    6    4      4.28      0.00
  -10    6    3      2.83      0.00
  -10    6    2    -13.12      0.00
  -10    6    1     -2.86      0.00
   10    6    0      2.42      0.00
   10    6    1     -6.34      0.00
   10    6    2      1.44      0.00
   10    6    3      5.80      0.00
   10    6    4      4.71      0.00
   10    6    5     -2.26      0.00
   10    6    6     -1.94      0.00
   10    6    7     -4.12      0.00
   10    6    8      1.13      0.00
   10    6    9     -3.93      0.00
   10    6   10      0.57      0.00
   10    6   11      0.85      0.00
   10    6   12      1.08      0.00
   10    6   13     -1.11      0.00
   10    6   14     -1.31      0.00
  -10    7   16     -0.23      0.00
  -10    7   15     -0.33      0.00
  -10    7   14     -0.80      0.00
  -10    7   13     -0.10      0.00
  -10    7   12      1.26      0.00
  -10    7   11     -0.31      0.00
  -10    7   10     -3.17      0.00
  -10    7    9      6.61      0.00
  -10    7    8     -2.57      0.00
  -10    7    7      4.00      0.00
  -10    7    6      7.52      0.00
  -10    7    5     -0.68      0.00
  -10    7    4     -1.61      0.00
  -10    7    3     -2.46      0.00
  -10    7    2     -8.25      0.00
  -10    7    1      5.60      0.00
   10    7    0      0.84      0.00
   10    7    1      4.11      0.00
   10    7    2      1.91      0.00
   10    7    3      0.62      0.00
   10    7    4     -2.37      0.00
   10    7    5      7.10      0.00
   10    7    6     -3.63      0.00
   10    7    7      0.71      0.00
   10    7    8     -4.03      0.00
   10    7    9      0.17      0.00
   10    7   10      2.61      0.00
   10    7   11      0.05      0.00
   10    7   12      0.71      0.00
   10    7   13      0.02      0.00
   10    7   14     -0.20      0.00
  -10    8   16      0.40      0.00
  -10    8   15     -0.42      0.00
  -10    8   14      0.30      0.00
  -10    8   13     -0.13      0.00
  -10    8   12     -1.62      0.00
  -10    8   11      0.09      0.00
  -10    8   10     -1.54      0.00
  -10    8    9      2.78      0.00
  -10    8    8      5.10      0.00
  -10    8    7     -2.11      0.00
  -10    8    6      7.31      0.00
  -10    8    5      1.99      0.00
  -10    8    4     -7.89      0.00
  -10    8    3     -8.33      0.00
  -10    8    2      6.59      0.00
  -10    8    1     -1.19      0.00
   10    8    0      1.20      0.00
   10    8    1      6.45      0.00
   10    8    2     -2.18      0.00
   10    8    3     -3.84      0.00
   10    8    4     -1.91      0.00
   10    8    5      0.84      0.00
   10    8    6      3.26      0.00
   10    8    7     -1.47      0.00
   10    8    8     -1.26      0.00
   10    8    9      2.92      0.00
   10    8   10     -1.97      0.00
   10    8   11      3.62      0.00
   10    8   12     -2.10      0.00
   10    8   13     -0.28      0.00
  -10    9   15      0.95      0.00
  -10    9   14      0.27      0.00
  -10    9   13     -0.96      0.00
  -10    9   12     -0.43      0.00
  -10    9   11     -1.24      0.00
  -10    9   10      5.60      0.00
  -10    9    9     -2.60      0.00
  -10    9    8      3.56      0.00
  -10    9    7      4.56      0.00
  -10    9    6     -6.83      0.00
  -10    9    5     -1.62      0.00
  -10    9    4     -2.00      0.00
  -10    9    3     -3.67      0.00
  -10    9    2      1.47      0.00
  -10    9    1     -1.82      0.00
   10    9    0      3.13      0.00
   10    9    1     -3.24      0.00
   10    9    2      1.64      0.00
   10    9    3     -2.70      0.00
   10    9    4      0.51      0.00
   10    9    5     -2.58      0.00
   10    9    6     -0.68      0.00
   10    9    7      1.90      0.00
   10    9    8      0.84      0.00
   10    9    9     -0.06      0.00
   10    9   10      2.05      0.00
   10    9   11     -1.59      0.00
   10    9   12      0.67      0.00
   10    9   13     -1.92      0.00
  -10   10   15     -1.32      0.00
  -10   10   14      0.09      0.00
  -10   10   13     -1.36      0.00
  -10   10   12     -0.47      0.00
  -10   10   11      1.63      0.00
  -10   10   10      1.07      0.00
  -10   10    9      3.07      0.00
  -10   10    8      1.92      0.00
  -10   10    7     -4.23      0.00
  -10   10    6      1.16      0.00
  -10   10    5    -10.86      0.00
  -10   10    4      2.92      0.00
  -10   10    3      4.50      0.00
  -10   10    2     -4.31      0.00
  -10   10    1     -3.73      0.00
   10   10    0      0.04      0.00
   10   10    1      0.88      0.00
   10   10    2      1.22      0.00
   10   10    3      6.07      0.00
   10   10    4      1.36      0.00
   10   10    5     -3.59      0.00
   10   10    6      0.51      0.00
   10   10    7     -0.27      0.00
   10   10    8      1.85      0.00
   10   10    9     -1.57      0.00
   10   10   10      1.05      0.00
   10   10   11     -1.95      0.00
   10   10   12      0.12      0.00
  -10   11   14     -2.08      0.00
  -10   11   13      0.39      0.00
  -10   11   12     -1.84      0.00
  -10   11   11      0.12      0.00
  -10   11   10     -0.54      0.00
  -10   11    9      5.08      0.00
  -10   11    8     -4.04      0.00
  -10   11    7      1.70      0.00
  -10   11    6     -6.67      0.00
  -10   11    5      4.76      0.00
  -10   11    4     -2.97      0.00
  -10   11    3      0.28      0.00
  -10   11    2     -0.78      0.00
  -10   11    1     -1.04      0.00
   10   11    0      3.61      0.00
   10   11    1      2.81      0.00
   10   11    2      5.75      0.00
   10   11    3      1.74      0.00
   10   11    4      0.61      0.00
   10   11    5      1.91      0.00
   10   11    6     -0.16      0.00
   10   11    7     -1.42      0.00
   10   11    8     -1.35      0.00
   10   11    9     -1.39      0.00
   10   11   10     -3.43      0.00
   10   11   11     -0.08      0.00
   10   11   12     -1.65      0.00
  -10   12   13     -1.08      0.00
  -10   12   12     -0.39      0.00
  -10   12   11     -1.12      0.00
  -10   12   10      1.42      0.00
  -10   12    9     -1.19      0.00
  -10   12    8     -0.93      0.00
  -10   12    7     -2.58      0.00
  -10   12    6     -0.30      0.00
  -10   12    5      1.76      0.00
  -10   12    4     -1.56      0.00
  -10   12    3     -3.34      0.00
  -10   12    2     -1.46      0.00
  -10   12    1      0.23      0.00
   10   12    0     -2.72      0.00
   10   12    1      6.54      0.00
   10   12    2     -0.02      0.00
   10   12    3     -0.49      0.00
   10   12    4     -1.92      0.00
   10   12    5      2.13      0.00
   10   12    6     -1.90      0.00
   10   12    7     -0.53      0.00
   10   12    8     -3.53      0.00
   10   12    9     -2.97      0.00
   10   12   10     -1.87      0.00
   10   12   11     -0.64      0.00
  -10   13   13      1.41      0.00
  -10   13   12     -0.14      0.00
  -10   13   11      0.74      0.00
  -10   13   10      1.14      0.00
  -10   13    9     -3.49      0.00
  -10   13    8      1.70      0.00
  -10   13    7     -3.67      0.00
  -10   13    6      2.03      0.00
  -10   13    5     -4.68      0.00
  -10   13    4      0.50      0.00
  -10   13    3     -0.26      0.00
  -10   13    2     -2.37      0.00
  -10   13    1     -1.89      0.00
   10   13    0      1.60      0.00
   10   13    1     -3.87      0.00
   10   13    2      0.97      0.00
   10   13    3     -0.99      0.00
   10   13    4     -0.73      0.00
   10   13    5     -3.62      0.00
   10   13    6      0.30      0.00
   10   13    7     -1.28      0.00
   10   13    8     -2.64      0.00
   10   13    9     -1.05      0.00
   10   13   10     -0.21      0.00
  -10   14   12      1.37      0.00
  -10   14   11     -0.83      0.00
  -10   14   10     -1.09      0.00
  -10   14    9      0.68      0.00
  -10   14    8     -1.22      0.00
  -10   14    7      1.44      0.00
  -10   14    6     -1.93      0.00
  -10   14    5      0.01      0.00
  -10   14    4      0.67      0.00
  -10   14    3     -0.78      0.00
  -10   14    2      2.97      0.00
  -10   14    1     -5.28      0.00
   10   14    0     -0.55      0.00
   10   14    1     -2.69      0.00
   10   14    2     -2.59      0.00
   10   14    3      1.52      0.00
   10   14    4      0.39      0.00
   10   14    5     -1.75      0.00
   10   14    6     -1.29      0.00
   10   14    7     -0.16      0.00
   10   14    8     -0.60      0.00
   10   14    9     -1.23      0.00
  -10   15   11      0.68      0.00
  -10   15   10     -2.86      0.00
  -10   15    9      1.60      0.00
  -10   15    8     -0.41      0.00
  -10   15    7      1.10      0.00
  -10   15    6      0.13      0.00
  -10   15    5      1.43      0.00
  -10   15    4      1.37      0.00
  -10   15    3      1.67      0.00
  -10   15    2     -3.89      0.00
  -10   15    1      2.46      0.00
   10   15    0      0.71      0.00
   10   15    1     -1.24      0.00
   10   15    2     -1.76      0.00
   10   15    3     -2.13      0.00
   10   15    4     -0.72      0.00
   10   15    5      1.36      0.00
   10   15    6      0.41      0.00
   10   15    7     -1.49      0.00
   10   15    8     -0.33      0.00
  -10   16    9     -0.92      0.00
  -10   16    8      1.40      0.00
  -10   16    7      0.18      0.00
  -10   16    6     -0.08      0.00
  -10   16    5      1.28      0.00
  -10   16    4     -1.43      0.00
  -10   16    3     -0.39      0.00
  -10   16    2     -1.01      0.00
  -10   16    1      0.53      0.00
   10   16    0      0.64      0.00
   10   16    1      1.33      0.00
   10   16    2     -1.77      0.00
   10   16    3     -2.73      0.00
   10   16    4     -2.57      0.00
   10   16    5      1.53      0.00
   10   16    6     -0.16      0.00
   10   16    7     -0.24      0.00
  -10   17    8     -0.32      0.00
  -10   17    7      0.16      0.00
  -10   17    6      1.46      0.00
  -10   17    5     -2.01      0.00
  -10   17    4     -0.96      0.00
  -10   17    3     -1.90      0.00
  -10   17    2      2.21      0.00
  -10   17    1     -1.40      0.00
   10   17    0      0.63      0.00
   10   17    1     -0.08      0.00
   10   17    2      0.82      0.00
   10   17    3     -1.63      0.00
   10   17    4      2.68      0.00
   10   17    5     -4.08      0.00
  -10   18    5      1.99      0.00
  -10   18    4      0.31      0.00
  -10   18    3      0.86      0.00
  -10   18    2      0.14      0.00
  -10   18    1      1.48      0.00
   10   18    0     -1.83      0.00
   10   18    1     -0.47      0.00
   10   18    2     -0.46      0.00
   10   18    3      3.08      0.00
  -11    0   16     -0.92      0.00
  -11    0   14     -1.92      0.00
  -11    0   12      2.82      0.00
  -11    0   10     -1.65      0.00
  -11    0    8      3.11      0.00
  -11    0    6      0.21      0.00
  -11    0    4     11.11      0.00
  -11    0    2     -2.30      0.00
   11    0    0     18.55      0.00
   11    0    2     11.35      0.00
   11    0    4     19.57      0.00
   11    0    6     -3.39      0.00
   11    0    8      5.64      0.00
   11    0   10      4.79      0.00
   11    0   12     -0.95      0.00
   11    0   14     -2.09      0.00
  -11    1   17      0.38      0.00
  -11    1   16     -1.13      0.00
  -11    1   15     -1.64      0.00
  -11    1   14      4.15      0.00
  -11    1   13     -0.67      0.00
  -11    1   12     -1.88      0.00
  -11    1   11     -0.13      0.00
  -11    1   10      0.99      0.00
  -11    1    9     -1.89      0.00
  -11    1    8     -0.87      0.00
  -11    1    7     -5.03      0.00
  -11    1    6      5.10      0.00
  -11    1    5      0.02      0.00
  -11    1    4     -5.35      0.00
  -11    1    3     -1.76      0.00
  -11    1    2     -4.48      0.00
  -11    1    1     -3.78      0.00
   11    1    0     10.75      0.00
   11    1    1      0.54      0.00
   11    1    2     -1.44      0.00
   11    1    3      0.61      0.00
   11    1    4     -7.39      0.00
   11    1    5     -4.69      0.00
   11    1    6     -2.12      0.00
   11    1    7     -2.44      0.00
   11    1    8     -1.93      0.00
   11    1    9      3.47      0.00
   11    1   10      3.08      0.00
   11    1   11      0.46      0.00
   11    1   12     -0.63      0.00
   11    1   13     -1.41      0.00
   11    1   14      0.64      0.00
  -11    2   17     -1.16      0.00
  -11    2   16      0.15      0.00
  -11    2   15     -0.44      0.00
  -11    2   14     -0.50      0.00
  -11    2   13      2.63      0.00
  -11    2   12     -4.10      0.00
  -11    2   11     -1.85      0.00
  -11    2   10      0.06      0.00
  -11    2    9     -2.76      0.00
  -11    2    8     -9.25      0.00
  -11    2    7      1.01      0.00
  -11    2    6     -5.55      0.00
  -11    2    5      4.91      0.00
  -11    2    4    -10.57      0.00
  -11    2    3     -8.76      0.00
  -11    2    2     -0.59      0.00
  -11    2    1     -4.14      0.00
   11    2    0    -17.52      0.00
   11    2    1     -3.87      0.00
   11    2    2     -7.95      0.00
   11    2    3     -9.34      0.00
   11    2    4    -22.99      0.00
   11    2    5     -3.53      0.00
   11    2    6     -2.53      0.00
   11    2    7     -3.83      0.00
   11    2    8     -1.26      0.00
   11    2    9      2.65      0.00
   11    2   10     -0.03      0.00
   11    2   11      3.68      0.00
   11    2   12     -1.12      0.00
   11    2   13     -0.71      0.00
   11    2   14     -0.18      0.00
  -11    3   17     -1.39      0.00
  -11    3   16     -0.11      0.00
  -11    3   15      1.17      0.00
  -11    3   14     -2.02      0.00
  -11    3   13     -2.17      0.00
  -11    3   12      3.37      0.00
  -11    3   11     -3.04      0.00
  -11    3   10     -6.17      0.00
  -11    3    9     -1.70      0.00
  -11    3    8     -4.92      0.00
  -11    3    7      1.07      0.00
  -11    3    6     -1.62      0.00
  -11    3    5     -5.88      0.00
  -11    3    4     -1.31      0.00
  -11    3    3      3.72      0.00
  -11    3    2    -10.49      0.00
  -11    3    1      7.09      0.00
   11    3    0     -9.14      0.00
   11    3    1      1.37      0.00
   11    3    2     -7.88      0.00
   11    3    3     -6.36      0.00
   11    3    4      2.35      0.00
   11    3    5      0.90      0.00
   11    3    6     -2.88      0.00
   11    3    7      4.85      0.00
   11    3    8      0.85      0.00
   11    3    9      0.05      0.00
   11    3   10      2.08      0.00
   11    3   11     -0.41      0.00
   11    3   12      2.16      0.00
   11    3   13     -0.08      0.00
   11    3   14     -2.68      0.00
  -11    4   17      1.70      0.00
  -11    4   16     -1.94      0.00
  -11    4   15     -0.43      0.00
  -11    4   14      0.44      0.00
  -11    4   13     -0.64      0.00
  -11    4   12     -0.70      0.00
  -11    4   11     -0.09      0.00
  -11    4   10     -4.29      0.00
  -11    4    9     -5.87      0.00
  -11    4    8      8.01      0.00
  -11    4    7     -6.31      0.00
  -11    4    6      1.75      0.00
  -11    4    5     -8.64      0.00
  -11    4    4      5.45      0.00
  -11    4    3     -3.68      0.00
  -11    4    2      5.92      0.00
  -11    4    1     -0.63      0.00
   11    4    0     18.07      0.00
   11    4    1     -5.73      0.00
   11    4    2      0.18      0.00
   11    4    3      9.17      0.00
   11    4    4     13.41      0.00
   11    4    5      3.66      0.00
   11    4    6      4.65      0.00
   11    4    7      3.81      0.00
   11    4    8      0.64      0.00
   11    4    9     -0.03      0.00
   11    4   10     -1.34      0.00
   11    4   11     -0.30      0.00
   11    4   12      1.54      0.00
   11    4   13     -0.73      0.00
   11    4   14     -0.41      0.00
  -11    5   16      0.39      0.00
  -11    5   15     -2.11      0.00
  -11    5   14      0.22      0.00
  -11    5   13      2.16      0.00
  -11    5   12     -3.65      0.00
  -11    5   11     -2.54      0.00
  -11    5   10      1.00      0.00
  -11    5    9      2.10      0.00
  -11    5    8     -4.93      0.00
  -11    5    7      3.02      0.00
  -11    5    6     -6.49      0.00
  -11    5    5      4.25      0.00
  -11    5    4     -4.83      0.00
  -11    5    3     -1.44      0.00
  -11    5    2     10.34      0.00
  -11    5    1      2.16      0.00
   11    5    0     -4.60      0.00
   11    5    1      1.06      0.00
   11    5    2      5.21      0.00
   11    5    3      3.67      0.00
   11    5    4      3.46      0.00
   11    5    5      3.70      0.00
   11    5    6      6.49      0.00
   11    5    7     -3.46      0.00
   11    5    8      2.37      0.00
   11    5    9     -2.32      0.00
   11    5   10     -0.91      0.00
   11    5   11      0.57      0.00
   11    5   12     -2.48      0.00
   11    5   13      2.52      0.00
   11    5   14     -0.49      0.00
  -11    6   16     -1.87      0.00
  -11    6   15      0.70      0.00
  -11    6   14      0.39      0.00
  -11    6   13     -2.61      0.00
  -11    6   12      1.49      0.00
  -11    6   11     -2.38      0.00
  -11    6   10      1.12      0.00
  -11    6    9     -0.10      0.00
  -11    6    8     -0.75      0.00
  -11    6    7     -6.93      0.00
  -11    6    6      3.56      0.00
  -11    6    5     -1.03      0.00
  -11    6    4     -1.63      0.00
  -11    6    3      5.04      0.00
  -11    6    2      3.25      0.00
  -11    6    1     14.40      0.00
   11    6    0     -6.30      0.00
   11    6    1      1.58      0.00
   11    6    2      6.65      0.00
   11    6    3     -6.64      0.00
   11    6    4     -1.36      0.00
   11    6    5      0.21      0.00
   11    6    6      1.36      0.00
   11    6    7     -0.71      0.00
   11    6    8     -1.95      0.00
   11    6    9      1.52      0.00
   11    6   10      1.05      0.00
   11    6   11     -3.78      0.00
   11    6   12      2.09      0.00
   11    6   13     -1.27      0.00
  -11    7   16      1.01      0.00
  -11    7   15     -0.77      0.00
  -11    7   14     -0.63      0.00
  -11    7   13      2.30      0.00
  -11    7   12     -1.89      0.00
  -11    7   11      4.21      0.00
  -11    7   10     -1.31      0.00
  -11    7    9     -1.82      0.00
  -11    7    8     -0.89      0.00
  -11    7    7      3.22      0.00
  -11    7    6     -6.80      0.00
  -11    7    5      2.28      0.00
  -11    7    4      2.27      0.00
  -11    7    3      8.04      0.00
  -11    7    2      2.06      0.00
  -11    7    1      2.47      0.00
   11    7    0      0.14      0.00
   11    7    1      3.67      0.00
   11    7    2     -3.56      0.00
   11    7    3      3.65      0.00
   11    7    4     -6.03      0.00
   11    7    5      2.46      0.00
   11    7    6     -4.76      0.00
   11    7    7      2.44      0.00
   11    7    8      0.30      0.00
   11    7    9      0.40      0.00
   11    7   10     -1.32      0.00
   11    7   11      0.89      0.00
   11    7   12     -2.26      0.00
   11    7   13      1.25      0.00
  -11    8   15      0.33      0.00
  -11    8   14      0.87      0.00
  -11    8   13     -0.73      0.00
  -11    8   12      3.78      0.00
  -11    8   11      0.18      0.00
  -11    8   10      0.30      0.00
  -11    8    9      2.67      0.00
  -11    8    8     -2.56      0.00
  -11    8    7      2.86      0.00
  -11    8    6      2.01      0.00
  -11    8    5     -3.89      0.00
  -11    8    4     10.68      0.00
  -11    8    3      3.29      0.00
  -11    8    2     -0.50      0.00
  -11    8    1     -7.88      0.00
   11    8    0      3.61      0.00
   11    8    1     -1.72      0.00
   11    8    2     -2.95      0.00
   11    8    3      1.07      0.00
   11    8    4      1.45      0.00
   11    8    5     -3.82      0.00
   11    8    6     -1.15      0.00
   11    8    7      1.28      0.00
   11    8    8      0.42      0.00
   11    8    9      0.43      0.00
   11    8   10     -0.59      0.00
   11    8   11      0.85      0.00
   11    8   12     -0.91      0.00
   11    8   13     -1.56      0.00
  -11    9   15     -0.31      0.00
  -11    9   14     -0.61      0.00
  -11    9   13      0.91      0.00
  -11    9   12      0.61      0.00
  -11    9   11      0.19      0.00
  -11    9   10      3.12      0.00
  -11    9    9     -1.73      0.00
  -11    9    8      2.65      0.00
  -11    9    7     -6.29      0.00
  -11    9    6      6.01      0.00
  -11    9    5      7.07      0.00
  -11    9    4     -0.77      0.00
  -11    9    3      1.96      0.00
  -11    9    2     -1.04      0.00
  -11    9    1     -3.86      0.00
   11    9    0     -1.35      0.00
   11    9    1     -1.73      0.00
   11    9    2     -0.50      0.00
   11    9    3     -0.90      0.00
   11    9    4      0.38      0.00
   11    9    5     -1.43      0.00
   11    9    6      0.90      0.00
   11    9    7     -1.48      0.00
   11    9    8     -0.63      0.00
   11    9    9      0.99      0.00
   11    9   10      1.64      0.00
   11    9   11      0.64      0.00
   11    9   12      0.34      0.00
  -11   10   14     -0.13      0.00
  -11   10   13     -1.46      0.00
  -11   10   12      0.38      0.00
  -11   10   11      2.57      0.00
  -11   10   10      0.36      0.00
  -11   10    9     -3.31      0.00
  -11   10    8      0.62      0.00
  -11   10    7     -1.07      0.00
  -11   10    6      0.43      0.00
  -11   10    5      5.41      0.00
  -11   10    4      1.70      0.00
  -11   10    3     -7.54      0.00
  -11   10    2      2.54      0.00
  -11   10    1      5.06      0.00
   11   10    0     -3.21      0.00
   11   10    1     -2.38      0.00
   11   10    2      4.36      0.00
   11   10    3     -2.47      0.00
   11   10    4      1.84      0.00
   11   10    5      0.00      0.00
   11   10    6      1.36      0.00
   11   10    7     -3.39      0.00
   11   10    8      0.76      0.00
   11   10    9     -1.32      0.00
   11   10   10      1.60      0.00
   11   10   11     -1.26      0.00
   11   10   12      1.95      0.00
  -11   11   14     -2.29      0.00
  -11   11   13     -0.39      0.00
  -11   11   12     -0.42      0.00
  -11   11   11      0.51      0.00
  -11   11   10     -2.78      0.00
  -11   11    9      2.36      0.00
  -11   11    8     -5.98      0.00
  -11   11    7      7.06      0.00
  -11   11    6      0.52      0.00
  -11   11    5     -4.08      0.00
  -11   11    4      1.00      0.00
  -11   11    3      0.62      0.00
  -11   11    2     -3.00      0.00
  -11   11    1      2.62      0.00
   11   11    0     -2.41      0.00
   11   11    1      1.12      0.00
   11   11    2     -2.99      0.00
   11   11    3      2.93      0.00
   11   11    4     -0.38      0.00
   11   11    5      1.00      0.00
   11   11    6     -1.85      0.00
   11   11    7      1.26      0.00
   11   11    8     -0.55      0.00
   11   11    9     -2.04      0.00
   11   11   10     -2.00      0.00
   11   11   11      1.12      0.00
  -11   12   13     -1.75      0.00
  -11   12   12     -2.05      0.00
  -11   12   11     -1.90      0.00
  -11   12   10     -1.42      0.00
  -11   12    9     -1.56      0.00
  -11   12    8      1.63      0.00
  -11   12    7      1.23      0.00
  -11   12    6     -2.20      0.00
  -11   12    5      1.43      0.00
  -11   12    4     -7.85      0.00
  -11   12    3      6.03      0.00
  -11   12    2     -1.27      0.00
  -11   12    1     -3.96      0.00
   11   12    0      3.80      0.00
   11   12    1     -1.48      0.00
   11   12    2     -2.32      0.00
   11   12    3     -0.89      0.00
   11   12    4     -1.69      0.00
   11   12    5      0.70      0.00
   11   12    6     -0.90      0.00
   11   12    7      1.86      0.00
   11   12    8     -2.22      0.00
   11   12    9      1.50      0.00
   11   12   10     -1.65      0.00
  -11   13   12     -1.61      0.00
  -11   13   11     -2.11      0.00
  -11   13   10     -0.22      0.00
  -11   13    9     -1.17      0.00
  -11   13    8      2.72      0.00
  -11   13    7     -4.80      0.00
  -11   13    6     -0.08      0.00
  -11   13    5     -3.71      0.00
  -11   13    4      2.15      0.00
  -11   13    3     -6.05      0.00
  -11   13    2      3.06      0.00
  -11   13    1      2.67      0.00
   11   13    0      2.72      0.00
   11   13    1      1.33      0.00
   11   13    2     -0.13      0.00
   11   13    3     -3.91      0.00
   11   13    4     -1.46      0.00
   11   13    5     -1.14      0.00
   11   13    6      0.87      0.00
   11   13    7     -0.57      0.00
   11   13    8      1.57      0.00
   11   13    9     -0.49      0.00
   11   13   10      0.93      0.00
  -11   14   11     -1.92      0.00
  -11   14   10      1.48      0.00
  -11   14    9     -0.72      0.00
  -11   14    8     -0.84      0.00
  -11   14    7     -2.58      0.00
  -11   14    6     -1.27      0.00
  -11   14    5     -1.72      0.00
  -11   14    4      0.96      0.00
  -11   14    3     -1.89      0.00
  -11   14    2      0.02      0.00
  -11   14    1      3.74      0.00
   11   14    0      1.63      0.00
   11   14    1      3.16      0.00
   11   14    2     -0.57      0.00
   11   14    3     -1.82      0.00
   11   14    4     -1.59      0.00
   11   14    5     -2.29      0.00
   11   14    6      1.88      0.00
   11   14    7     -0.88      0.00
   11   14    8      0.28      0.00
   11   14    9      0.42      0.00
  -11   15   10     -2.92      0.00
  -11   15    9      1.86      0.00
  -11   15    8     -2.99      0.00
  -11   15    7      1.00      0.00
  -11   15    6     -1.21      0.00
  -11   15    5      0.66      0.00
  -11   15    4     -2.83      0.00
  -11   15    3      3.69      0.00
  -11   15    2      0.83      0.00
  -11   15    1     -2.36      0.00
   11   15    0     -1.44      0.00
   11   15    1     -0.29      0.00
   11   15    2      1.80      0.00
   11   15    3     -1.77      0.00
   11   15    4     -2.19      0.00
   11   15    5      1.79      0.00
   11   15    6     -2.49      0.00
   11   15    7     -0.42      0.00
  -11   16    9     -0.99      0.00
  -11   16    8      1.62      0.00
  -11   16    7      1.89      0.00
  -11   16    6      1.01      0.00
  -11   16    5     -1.80      0.00
  -11   16    4      0.62      0.00
  -11   16    3     -0.08      0.00
  -11   16    2     -0.15      0.00
  -11   16    1     -0.01      0.00
   11   16    0     -3.38      0.00
   11   16    1     -0.61      0.00
   11   16    2     -0.39      0.00
   11   16    3      2.28      0.00
   11   16    4     -0.68      0.00
   11   16    5     -2.41      0.00
   11   16    6     -1.04      0.00
  -11   17    7      2.28      0.00
  -11   17    6      0.63      0.00
  -11   17    5      0.59      0.00
  -11   17    4     -1.35      0.00
  -11   17    3     -1.64      0.00
  -11   17    2     -0.61      0.00
  -11   17    1     -0.93      0.00
   11   17    0     -0.62      0.00
   11   17    1     -1.91      0.00
   11   17    2      1.31      0.00
   11   17    3      1.09      0.00
   11   17    4      1.45      0.00
  -11   18    4     -1.48      0.00
  -11   18    3     -1.56      0.00
  -11   18    2     -1.35      0.00
  -11   18    1      0.61      0.00
   11   18    0      0.17      0.00
   11   18    1      0.91      0.00
  -12    0   16      1.50      0.00
  -12    0   14     -0.29      0.00
  -12    0   12     -1.92      0.00
  -12    0   10      2.20      0.00
  -12    0    8      6.19      0.00
  -12    0    6     12.65      0.00
  -12    0    4     -2.27      0.00
  -12    0    2     13.06      0.00
   12    0    0     16.27      0.00
   12    0    2     21.67      0.00
   12    0    4      6.65      0.00
   12    0    6     12.96      0.00
   12    0    8     -0.46      0.00
   12    0   10      5.01      0.00
   12    0   12      2.31      0.00
   12    0   14     -2.31      0.00
  -12    1   17     -0.52      0.00
  -12    1   16      2.12      0.00
  -12    1   15      0.86      0.00
  -12    1   14     -1.30      0.00
  -12    1   13     -1.14      0.00
  -12    1   12     -0.33      0.00
  -12    1   11      0.49      0.00
  -12    1   10     -1.94      0.00
  -12    1    9      3.52      0.00
  -12    1    8      4.85      0.00
  -12    1    7      6.21      0.00
  -12    1    6     -6.89      0.00
  -12    1    5     -0.27      0.00
  -12    1    4      1.74      0.00
  -12    1    3     -1.46      0.00
  -12    1    2     -9.39      0.00
  -12    1    1      1.63      0.00
   12    1    0     11.55      0.00
   12    1    1      2.67      0.00
   12    1    2     11.74      0.00
   12    1    3     -2.33      0.00
   12    1    4     -6.90      0.00
   12    1    5      2.12      0.00
   12    1    6     -3.98      0.00
   12    1    7      1.99      0.00
   12    1    8      2.12      0.00
   12    1    9      0.93      0.00
   12    1   10     -0.78      0.00
   12    1   11      2.26      0.00
   12    1   12     -0.38      0.00
   12    1   13     -0.77      0.00
   12    1   14      0.84      0.00
  -12    2   17     -1.06      0.00
  -12    2   16     -0.62      0.00
  -12    2   15      1.05      0.00
  -12    2   14      0.08      0.00
  -12    2   13     -3.50      0.00
  -12    2   12      1.35      0.00
  -12    2   11     -1.24      0.00
  -12    2   10      1.49      0.00
  -12    2    9     -0.12      0.00
  -12    2    8      3.06      0.00
  -12    2    7     -1.41      0.00
  -12    2    6     -5.65      0.00
  -12    2    5     -0.36      0.00
  -12    2    4     -0.60      0.00
  -12    2    3      3.56      0.00
  -12    2    2    -11.59      0.00
  -12    2    1     -5.94      0.00
   12    2    0     -9.87      0.00
   12    2    1      8.43      0.00
   12    2    2    -21.94      0.00
   12    2    3     -1.25      0.00
   12    2    4     -6.02      0.00
   12    2    5     -7.61      0.00
   12    2    6     -6.02      0.00
   12    2    7      1.66      0.00
   12    2    8      4.20      0.00
   12    2    9     -0.66      0.00
   12    2   10     -1.12      0.00
   12    2   11     -0.30      0.00
   12    2   12     -0.91      0.00
   12    2   13      1.43      0.00
   12    2   14     -1.49      0.00
  -12    3   17      0.46      0.00
  -12    3   16     -0.92      0.00
  -12    3   15     -1.85      0.00
  -12    3   14      0.35      0.00
  -12    3   13      1.79      0.00
  -12    3   12     -4.05      0.00
  -12    3   11      1.94      0.00
  -12    3   10      2.04      0.00
  -12    3    9      0.80      0.00
  -12    3    8     -6.80      0.00
  -12    3    7     -1.48      0.00
  -12    3    6      1.57      0.00
  -12    3    5      3.93      0.00
  -12    3    4     -1.80      0.00
  -12    3    3      2.16      0.00
  -12    3    2      5.53      0.00
  -12    3    1      0.84      0.00
   12    3    0      4.72      0.00
   12    3    1     -7.03      0.00
   12    3    2     -3.26      0.00
   12    3    3     -0.30      0.00
   12    3    4     -1.20      0.00
   12    3    5      1.30      0.00
   12    3    6      3.70      0.00
   12    3    7      3.31      0.00
   12    3    8     -0.82      0.00
   12    3    9      2.99      0.00
   12    3   10     -2.55      0.00
   12    3   11     -0.88      0.00
   12    3   12      1.43      0.00
   12    3   13     -1.13      0.00
   12    3   14      0.32      0.00
  -12    4   16     -0.96      0.00
  -12    4   15      0.60      0.00
  -12    4   14     -1.23      0.00
  -12    4   13      0.97      0.00
  -12    4   12      2.47      0.00
  -12    4   11     -2.03      0.00
  -12    4   10      1.54      0.00
  -12    4    9     -0.78      0.00
  -12    4    8     -3.61      0.00
  -12    4    7     -3.75      0.00
  -12    4    6      7.01      0.00
  -12    4    5     -4.41      0.00
  -12    4    4      7.69      0.00
  -12    4    3     -5.72      0.00
  -12    4    2     10.02      0.00
  -12    4    1     -0.83      0.00
   12    4    0     -2.30      0.00
   12    4    1      2.44      0.00
   12    4    2     11.72      0.00
   12    4    3     -2.11      0.00
   12    4    4      4.48      0.00
   12    4    5      9.00      0.00
   12    4    6      5.79      0.00
   12    4    7      3.00      0.00
   12    4    8     -0.94      0.00
   12    4    9     -2.34      0.00
   12    4   10      1.90      0.00
   12    4   11     -1.53      0.00
   12    4   12     -0.81      0.00
   12    4   13      1.17      0.00
  -12    5   16     -1.37      0.00
  -12    5   15      0.76      0.00
  -12    5   14      1.17      0.00
  -12    5   13     -1.08      0.00
  -12    5   12      0.42      0.00
  -12    5   11      3.20      0.00
  -12    5   10     -5.56      0.00
  -12    5    9     -1.31      0.00
  -12    5    8      2.93      0.00
  -12    5    7     -2.33      0.00
  -12    5    6     -3.01      0.00
  -12    5    5      3.36      0.00
  -12    5    4     -2.77      0.00
  -12    5    3      4.07      0.00
  -12    5    2     -6.21      0.00
  -12    5    1    -11.31      0.00
   12    5    0     -3.32      0.00
   12    5    1     -0.74      0.00
   12    5    2     -0.41      0.00
   12    5    3      3.52      0.00
   12    5    4      4.05      0.00
   12    5    5     -1.80      0.00
   12    5    6      4.19      0.00
   12    5    7     -2.46      0.00
   12    5    8      0.24      0.00
   12    5    9     -1.63      0.00
   12    5   10     -1.54      0.00
   12    5   11      0.78      0.00
   12    5   12      0.17      0.00
   12    5   13     -1.00      0.00
  -12    6   16      0.51      0.00
  -12    6   15     -0.37      0.00
  -12    6   14      0.95      0.00
  -12    6   13     -0.94      0.00
  -12    6   12     -1.38      0.00
  -12    6   11     -2.74      0.00
  -12    6   10      1.18      0.00
  -12    6    9     -5.87      0.00
  -12    6    8      0.07      0.00
  -12    6    7      4.01      0.00
  -12    6    6     -5.93      0.00
  -12    6    5      2.99      0.00
  -12    6    4      1.42      0.00
  -12    6    3     -1.13      0.00
  -12    6    2    -11.10      0.00
  -12    6    1     -1.41      0.00
   12    6    0     -0.91      0.00
   12    6    1     -7.90      0.00
   12    6    2     -2.26      0.00
   12    6    3      3.40      0.00
   12    6    4      1.79      0.00
   12    6    5     -2.22      0.00
   12    6    6     -4.96      0.00
   12    6    7     -1.80      0.00
   12    6    8     -0.82      0.00
   12    6    9     -2.92      0.00
   12    6   10     -0.91      0.00
   12    6   11      1.28      0.00
   12    6   12      1.40      0.00
   12    6   13     -1.45      0.00
  -12    7   16      2.20      0.00
  -12    7   15      1.00      0.00
  -12    7   14     -1.19      0.00
  -12    7   13      0.59      0.00
  -12    7   12     -1.50      0.00
  -12    7   11     -3.50      0.00
  -12    7   10     -2.82      0.00
  -12    7    9      1.23      0.00
  -12    7    8     -4.49      0.00
  -12    7    7     -0.37      0.00
  -12    7    6      7.01      0.00
  -12    7    5     -1.39      0.00
  -12    7    4     -0.58      0.00
  -12    7    3     -5.65      0.00
  -12    7    2     -1.75      0.00
  -12    7    1      9.71      0.00
   12    7    0     -0.24      0.00
   12    7    1      4.38      0.00
   12    7    2     -0.71      0.00
   12    7    3      1.58      0.00
   12    7    4     -0.88      0.00
   12    7    5      1.87      0.00
   12    7    6     -4.79      0.00
   12    7    7     -0.93      0.00
   12    7    8     -4.20      0.00
   12    7    9     -1.92      0.00
   12    7   10      0.15      0.00
   12    7   11      0.61      0.00
   12    7   12      1.19      0.00
   12    7   13      0.08      0.00
  -12    8   15      0.45      0.00
  -12    8   14      0.68      0.00
  -12    8   13      0.25      0.00
  -12    8   12     -0.82      0.00
  -12    8   11      0.27      0.00
  -12    8   10     -4.00      0.00
  -12    8    9      1.54      0.00
  -12    8    8      0.22      0.00
  -12    8    7      1.76      0.00
  -12    8    6      2.47      0.00
  -12    8    5      2.64      0.00
  -12    8    4     -8.09      0.00
  -12    8    3     -1.97      0.00
  -12    8    2      6.56      0.00
  -12    8    1      2.85      0.00
   12    8    0      5.22      0.00
   12    8    1      5.60      0.00
   12    8    2      0.01      0.00
   12    8    3     -1.94      0.00
   12    8    4     -1.77      0.00
   12    8    5      0.07      0.00
   12    8    6      0.66      0.00
   12    8    7     -3.34      0.00
   12    8    8     -1.53      0.00
   12    8    9      0.25      0.00
   12    8   10     -1.06      0.00
   12    8   11      1.81      0.00
   12    8   12     -0.96      0.00
  -12    9   15     -0.10      0.00
  -12    9   14     -0.20      0.00
  -12    9   13     -1.09      0.00
  -12    9   12      1.28      0.00
  -12    9   11     -1.63      0.00
  -12    9   10      3.28      0.00
  -12    9    9     -2.63      0.00
  -12    9    8      6.58      0.00
  -12    9    7      3.07      0.00
  -12    9    6     -1.96      0.00
  -12    9    5     -5.52      0.00
  -12    9    4      2.80      0.00
  -12    9    3      0.07      0.00
  -12    9    2      4.89      0.00
  -12    9    1     -1.92      0.00
   12    9    0     -0.15      0.00
   12    9    1     -2.09      0.00
   12    9    2      1.51      0.00
   12    9    3     -3.58      0.00
   12    9    4      1.46      0.00
   12    9    5     -2.12      0.00
   12    9    6     -0.87      0.00
   12    9    7     -0.18      0.00
   12    9    8     -0.55      0.00
   12    9    9      1.61      0.00
   12    9   10     -0.18      0.00
   12    9   11     -0.43      0.00
   12    9   12      1.76      0.00
  -12   10   14     -1.00      0.00
  -12   10   13     -0.04      0.00
  -12   10   12     -0.88      0.00
  -12   10   11      0.54      0.00
  -12   10   10      0.81      0.00
  -12   10    9      4.39      0.00
  -12   10    8      3.02      0.00
  -12   10    7     -2.18      0.00
  -12   10    6      0.52      0.00
  -12   10    5     -4.47      0.00
  -12   10    4      2.25      0.00
  -12   10    3      8.32      0.00
  -12   10    2     -1.77      0.00
  -12   10    1     -0.14      0.00
   12   10    0     -0.68      0.00
   12   10    1     -3.50      0.00
   12   10    2     -0.14      0.00
   12   10    3      3.73      0.00
   12   10    4      0.36      0.00
   12   10    5     -1.40      0.00
   12   10    6      0.33      0.00
   12   10    7     -0.87      0.00
   12   10    8      2.68      0.00
   12   10    9     -2.44      0.00
   12   10   10      2.71      0.00
   12   10   11     -1.70      0.00
  -12   11   14     -0.34      0.00
  -12   11   13      0.57      0.00
  -12   11   12     -0.11      0.00
  -12   11   11      1.16      0.00
  -12   11   10      0.32      0.00
  -12   11    9      4.55      0.00
  -12   11    8     -2.40      0.00
  -12   11    7     -0.09      0.00
  -12   11    6     -4.50      0.00
  -12   11    5      6.51      0.00
  -12   11    4      0.84      0.00
  -12   11    3     -1.05      0.00
  -12   11    2      4.13      0.00
  -12   11    1      1.20      0.00
   12   11    0      0.98      0.00
   12   11    1      2.74      0.00
   12   11    2      1.33      0.00
   12   11    3      2.91      0.00
   12   11    4      0.12      0.00
   12   11    5      1.97      0.00
   12   11    6     -0.52      0.00
   12   11    7      1.16      0.00
   12   11    8     -1.39      0.00
   12   11    9      3.01      0.00
   12   11   10     -3.81      0.00
  -12   12   13      0.77      0.00
  -12   12   12      0.29      0.00
  -12   12   11      0.56      0.00
  -12   12   10      2.65      0.00
  -12   12    9     -2.23      0.00
  -12   12    8     -2.13      0.00
  -12   12    7      0.34      0.00
  -12   12    6     -0.41      0.00
  -12   12    5      1.50      0.00
  -12   12    4      0.38      0.00
  -12   12    3     -0.43      0.00
  -12   12    2     -1.98      0.00
  -12   12    1      3.98      0.00
   12   12    0      0.00      0.00
   12   12    1      6.06      0.00
   12   12    2      2.67      0.00
   12   12    3     -1.02      0.00
   12   12    4      1.15      0.00
   12   12    5      1.31      0.00
   12   12    6     -0.49      0.00
   12   12    7      0.27      0.00
   12   12    8      0.51      0.00
   12   12    9     -3.57      0.00
   12   12   10      0.45      0.00
  -12   13   12      0.98      0.00
  -12   13   11      0.92      0.00
  -12   13   10     -0.92      0.00
  -12   13    9     -1.64      0.00
  -12   13    8      1.27      0.00
  -12   13    7     -3.25      0.00
  -12   13    6      3.21      0.00
  -12   13    5     -3.90      0.00
  -12   13    4     -0.69      0.00
  -12   13    3      1.29      0.00
  -12   13    2      0.16      0.00
  -12   13    1     -2.12      0.00
   12   13    0     -2.01      0.00
   12   13    1     -0.71      0.00
   12   13    2      1.34      0.00
   12   13    3      1.18      0.00
   12   13    4     -0.03      0.00
   12   13    5     -1.26      0.00
   12   13    6      2.43      0.00
   12   13    7     -1.01      0.00
   12   13    8     -2.92      0.00
   12   13    9      0.39      0.00
  -12   14   11     -0.63      0.00
  -12   14   10     -0.08      0.00
  -12   14    9     -0.05      0.00
  -12   14    8     -0.34      0.00
  -12   14    7      0.46      0.00
  -12   14    6     -2.52      0.00
  -12   14    5     -0.36      0.00
  -12   14    4      0.22      0.00
  -12   14    3     -0.25      0.00
  -12   14    2      3.91      0.00
  -12   14    1     -0.78      0.00
   12   14    0      0.45      0.00
   12   14    1     -5.96      0.00
   12   14    2     -1.27      0.00
   12   14    3      1.28      0.00
   12   14    4      1.36      0.00
   12   14    5      1.04      0.00
   12   14    6     -0.17      0.00
   12   14    7     -0.15      0.00
   12   14    8      0.89      0.00
  -12   15   10     -2.23      0.00
  -12   15    9      0.65      0.00
  -12   15    8     -1.09      0.00
  -12   15    7      0.26      0.00
  -12   15    6     -1.62      0.00
  -12   15    5     -0.78      0.00
  -12   15    4      1.02      0.00
  -12   15    3      0.98      0.00
  -12   15    2     -0.48      0.00
  -12   15    1      4.75      0.00
   12   15    0     -1.54      0.00
   12   15    1     -0.72      0.00
   12   15    2     -2.65      0.00
   12   15    3     -0.53      0.00
   12   15    4      0.91      0.00
   12   15    5      2.02      0.00
   12   15    6     -0.25      0.00
   12   15    7      2.02      0.00
  -12   16    8      0.12      0.00
  -12   16    7     -0.12      0.00
  -12   16    6     -0.92      0.00
  -12   16    5     -0.01      0.00
  -12   16    4     -2.82      0.00
  -12   16    3      1.46      0.00
  -12   16    2      0.08      0.00
  -12   16    1      1.26      0.00
   12   16    0      0.30      0.00
   12   16    1      1.56      0.00
   12   16    2     -0.15      0.00
   12   16    3     -1.10      0.00
   12   16    4     -0.68      0.00
   12   16    5      1.36      0.00
  -12   17    6      1.32      0.00
  -12   17    5     -2.81      0.00
  -12   17    4      1.52      0.00
  -12   17    3     -1.28      0.00
  -12   17    2      2.52      0.00
  -12   17    1     -2.01      0.00
   12   17    0      1.76      0.00
   12   17    1      0.29      0.00
   12   17    2      0.93      0.00
   12   17    3     -0.22      0.00
  -13    0   16     -0.60      0.00
  -13    0   14      1.15      0.00
  -13    0   12      6.19      0.00
  -13    0   10      3.61      0.00
  -13    0    8      2.76      0.00
  -13    0    6      6.01      0.00
  -13    0    4     10.38      0.00
  -13    0    2      0.45      0.00
   13    0    0     20.00      0.00
   13    0    2     22.01      0.00
   13    0    4     20.74      0.00
   13    0    6     -0.59      0.00
   13    0    8      3.11      0.00
   13    0   10      2.87      0.00
   13    0   12      0.10      0.00
  -13    1   17      0.01      0.00
  -13    1   16      0.03      0.00
  -13    1   15      0.10      0.00
  -13    1   14      4.17      0.00
  -13    1   13      2.86      0.00
  -13    1   12     -3.38      0.00
  -13    1   11      3.70      0.00
  -13    1   10     -1.57      0.00
  -13    1    9      2.79      0.00
  -13    1    8     -1.15      0.00
  -13    1    7      0.06      0.00
  -13    1    6      8.15      0.00
  -13    1    5      1.57      0.00
  -13    1    4     -4.48      0.00
  -13    1    3     -1.43      0.00
  -13    1    2     -1.15      0.00
  -13    1    1     -0.72      0.00
   13    1    0      7.84      0.00
   13    1    1      5.82      0.00
   13    1    2     -3.70      0.00
   13    1    3      8.51      0.00
   13    1    4      2.20      0.00
   13    1    5     -0.32      0.00
   13    1    6     -2.97      0.00
   13    1    7     -1.76      0.00
   13    1    8     -2.43      0.00
   13    1    9      1.15      0.00
   13    1   10      0.94      0.00
   13    1   11     -0.33      0.00
   13    1   12     -0.17      0.00
   13    1   13     -0.85      0.00
  -13    2   16      1.37      0.00
  -13    2   15      1.29      0.00
  -13    2   14      1.17      0.00
  -13    2   13      0.84      0.00
  -13    2   12     -0.34      0.00
  -13    2   11     -2.81      0.00
  -13    2   10      2.07      0.00
  -13    2    9     -1.37      0.00
  -13    2    8     -0.13      0.00
  -13    2    7      6.21      0.00
  -13    2    6     -4.49      0.00
  -13    2    5      5.98      0.00
  -13    2    4     -9.96      0.00
  -13    2    3     -3.46      0.00
  -13    2    2     -2.85      0.00
  -13    2    1     -3.85      0.00
   13    2    0    -14.34      0.00
   13    2    1     -4.54      0.00
   13    2    2     -7.45      0.00
   13    2    3     -4.74      0.00
   13    2    4    -13.49      0.00
   13    2    5     -0.69      0.00
   13    2    6     -0.73      0.00
   13    2    7     -6.13      0.00
   13    2    8     -0.82      0.00
   13    2    9     -1.91      0.00
   13    2   10     -0.66      0.00
   13    2   11      2.48      0.00
   13    2   12     -2.10      0.00
   13    2   13      0.49      0.00
  -13    3   16      2.21      0.00
  -13    3   15      1.43      0.00
  -13    3   14     -2.57      0.00
  -13    3   13     -0.83      0.00
  -13    3   12      2.52      0.00
  -13    3   11     -0.93      0.00
  -13    3   10     -2.52      0.00
  -13    3    9      0.17      0.00
  -13    3    8      4.35      0.00
  -13    3    7      3.07      0.00
  -13    3    6      0.77      0.00
  -13    3    5     -4.58      0.00
  -13    3    4      1.71      0.00
  -13    3    3     -0.59      0.00
  -13    3    2    -10.16      0.00
  -13    3    1      1.30      0.00
   13    3    0     -4.72      0.00
   13    3    1     -1.63      0.00
   13    3    2     -4.71      0.00
   13    3    3     -9.63      0.00
   13    3    4     -1.89      0.00
   13    3    5      1.82      0.00
   13    3    6     -2.20      0.00
   13    3    7      4.87      0.00
   13    3    8     -5.12      0.00
   13    3    9      1.62      0.00
   13    3   10     -0.90      0.00
   13    3   11     -0.43      0.00
   13    3   12      2.86      0.00
   13    3   13      0.20      0.00
  -13    4   16     -1.59      0.00
  -13    4   15     -0.19      0.00
  -13    4   14      0.15      0.00
  -13    4   13     -0.60      0.00
  -13    4   12     -0.15      0.00
  -13    4   11      2.00      0.00
  -13    4   10     -1.01      0.00
  -13    4    9      2.14      0.00
  -13    4    8      4.39      0.00
  -13    4    7      0.57      0.00
  -13    4    6      3.82      0.00
  -13    4    5     -5.19      0.00
  -13    4    4      2.34      0.00
  -13    4    3     -6.51      0.00
  -13    4    2      1.48      0.00
  -13    4    1     -3.22      0.00
   13    4    0     11.89      0.00
   13    4    1     -0.97      0.00
   13    4    2     -3.70      0.00
   13    4    3      2.44      0.00
   13    4    4      5.02      0.00
   13    4    5      0.32      0.00
   13    4    6      3.38      0.00
   13    4    7      0.20      0.00
   13    4    8      1.07      0.00
   13    4    9     -3.05      0.00
   13    4   10     -0.60      0.00
   13    4   11     -0.22      0.00
   13    4   12      2.14      0.00
   13    4   13      1.17      0.00
  -13    5   16      0.27      0.00
  -13    5   15     -2.58      0.00
  -13    5   14      0.64      0.00
  -13    5   13      1.52      0.00
  -13    5   12     -0.86      0.00
  -13    5   11     -0.45      0.00
  -13    5   10      5.22      0.00
  -13    5    9      2.83      0.00
  -13    5    8      0.32      0.00
  -13    5    7      0.67      0.00
  -13    5    6     -1.11      0.00
  -13    5    5      0.74      0.00
  -13    5    4     -6.85      0.00
  -13    5    3     -4.56      0.00
  -13    5    2      6.36      0.00
  -13    5    1      0.63      0.00
   13    5    0      0.86      0.00
   13    5    1     -3.73      0.00
   13    5    2      1.79      0.00
   13    5    3      2.11      0.00
   13    5    4      0.79      0.00
   13    5    5     -0.75      0.00
   13    5    6     -0.12      0.00
   13    5    7     -3.93      0.00
   13    5    8     -0.11      0.00
   13    5    9     -4.04      0.00
   13    5   10     -1.29      0.00
   13    5   11      1.47      0.00
   13    5   12     -0.02      0.00
   13    5   13      0.46      0.00
  -13    6   16     -2.16      0.00
  -13    6   15      1.05      0.00
  -13    6   14     -1.38      0.00
  -13    6   13     -0.24      0.00
  -13    6   12      1.83      0.00
  -13    6   11      1.37      0.00
  -13    6   10      0.51      0.00
  -13    6    9      4.28      0.00
  -13    6    8     -0.70      0.00
  -13    6    7     -3.56      0.00
  -13    6    6     -2.98      0.00
  -13    6    5     -2.20      0.00
  -13    6    4     -6.29      0.00
  -13    6    3      4.97      0.00
  -13    6    2     -1.79      0.00
  -13    6    1      6.08      0.00
   13    6    0    -10.09      0.00
   13    6    1      2.67      0.00
   13    6    2      3.66      0.00
   13    6    3     -4.32      0.00
   13    6    4     -0.95      0.00
   13    6    5     -2.93      0.00
   13    6    6     -0.97      0.00
   13    6    7     -4.28      0.00
   13    6    8     -4.67      0.00
   13    6    9     -0.33      0.00
   13    6   10      0.21      0.00
   13    6   11     -0.90      0.00
   13    6   12      0.83      0.00
  -13    7   15     -1.31      0.00
  -13    7   14      1.25      0.00
  -13    7   13      0.45      0.00
  -13    7   12     -0.48      0.00
  -13    7   11      2.65      0.00
  -13    7   10      1.97      0.00
  -13    7    9     -3.32      0.00
  -13    7    8      2.10      0.00
  -13    7    7     -1.53      0.00
  -13    7    6     -7.53      0.00
  -13    7    5     -2.73      0.00
  -13    7    4      4.49      0.00
  -13    7    3      2.26      0.00
  -13    7    2     -0.42      0.00
  -13    7    1     -5.29      0.00
   13    7    0      2.21      0.00
   13    7    1      1.86      0.00
   13    7    2      0.80      0.00
   13    7    3      0.30      0.00
   13    7    4     -5.38      0.00
   13    7    5      1.95      0.00
   13    7    6     -3.96      0.00
   13    7    7     -0.94      0.00
   13    7    8     -1.45      0.00
   13    7    9     -0.08      0.00
   13    7   10      0.88      0.00
   13    7   11     -0.79      0.00
   13    7   12     -1.18      0.00
  -13    8   15     -0.19      0.00
  -13    8   14      0.94      0.00
  -13    8   13      0.48      0.00
  -13    8   12      1.09      0.00
  -13    8   11     -0.20      0.00
  -13    8   10      0.10      0.00
  -13    8    9      2.46      0.00
  -13    8    8     -6.26      0.00
  -13    8    7      1.18      0.00
  -13    8    6     -0.98      0.00
  -13    8    5     -1.04      0.00
  -13    8    4      7.07      0.00
  -13    8    3      1.98      0.00
  -13    8    2     -3.28      0.00
  -13    8    1     -4.78      0.00
   13    8    0      0.91      0.00
   13    8    1      0.68      0.00
   13    8    2     -4.04      0.00
   13    8    3      1.79      0.00
   13    8    4     -0.02      0.00
   13    8    5     -3.31      0.00
   13    8    6     -1.93      0.00
   13    8    7      1.75      0.00
   13    8    8     -0.40      0.00
   13    8    9      2.74      0.00
   13    8   10     -1.19      0.00
   13    8   11      1.87      0.00
   13    8   12     -1.00      0.00
  -13    9   14     -1.54      0.00
  -13    9   13      0.35      0.00
  -13    9   12      0.27      0.00
  -13    9   11     -0.48      0.00
  -13    9   10      1.73      0.00
  -13    9    9     -2.64      0.00
  -13    9    8     -0.77      0.00
  -13    9    7     -6.62      0.00
  -13    9    6      6.24      0.00
  -13    9    5      5.64      0.00
  -13    9    4     -1.56      0.00
  -13    9    3      1.13      0.00
  -13    9    2     -0.34      0.00
  -13    9    1     -1.03      0.00
   13    9    0     -0.69      0.00
   13    9    1     -5.01      0.00
   13    9    2     -0.46      0.00
   13    9    3     -1.32      0.00
   13    9    4      0.59      0.00
   13    9    5     -1.59      0.00
   13    9    6      0.80      0.00
   13    9    7     -0.51      0.00
   13    9    8      1.16      0.00
   13    9    9     -1.18      0.00
   13    9   10      3.98      0.00
   13    9   11      0.68      0.00
  -13   10   14      0.26      0.00
  -13   10   13     -3.22      0.00
  -13   10   12      0.17      0.00
  -13   10   11      2.46      0.00
  -13   10   10     -0.84      0.00
  -13   10    9     -3.50      0.00
  -13   10    8      0.95      0.00
  -13   10    7     -1.46      0.00
  -13   10    6      2.10      0.00
  -13   10    5      3.61      0.00
  -13   10    4      2.20      0.00
  -13   10    3     -5.89      0.00
  -13   10    2      5.19      0.00
  -13   10    1      0.67      0.00
   13   10    0     -2.72      0.00
   13   10    1     -1.53      0.00
   13   10    2      0.97      0.00
   13   10    3     -1.84      0.00
   13   10    4      0.39      0.00
   13   10    5      2.02      0.00
   13   10    6      2.16      0.00
   13   10    7     -1.67      0.00
   13   10    8     -0.18      0.00
   13   10    9      0.79      0.00
   13   10   10     -0.01      0.00
   13   10   11      0.62      0.00
  -13   11   13      0.43      0.00
  -13   11   12     -1.76      0.00
  -13   11   11     -0.33      0.00
  -13   11   10     -1.79      0.00
  -13   11    9      2.68      0.00
  -13   11    8     -5.49      0.00
  -13   11    7      8.69      0.00
  -13   11    6     -0.77      0.00
  -13   11    5     -1.32      0.00
  -13   11    4      0.89      0.00
  -13   11    3      4.68      0.00
  -13   11    2     -3.89      0.00
  -13   11    1      3.16      0.00
   13   11    0      1.04      0.00
   13   11    1      1.76      0.00
   13   11    2     -1.03      0.00
   13   11    3      0.46      0.00
   13   11    4      0.87      0.00
   13   11    5      0.92      0.00
   13   11    6     -0.24      0.00
   13   11    7      1.07      0.00
   13   11    8      0.53      0.00
   13   11    9     -1.49      0.00
   13   11   10     -0.27      0.00
  -13   12   12     -1.52      0.00
  -13   12   11     -2.19      0.00
  -13   12   10     -1.31      0.00
  -13   12    9     -2.00      0.00
  -13   12    8      4.09      0.00
  -13   12    7     -0.28      0.00
  -13   12    6      0.74      0.00
  -13   12    5      1.93      0.00
  -13   12    4     -4.25      0.00
  -13   12    3      4.38      0.00
  -13   12    2      0.21      0.00
  -13   12    1     -3.17      0.00
   13   12    0      2.75      0.00
   13   12    1      1.80      0.00
   13   12    2     -1.47      0.00
   13   12    3      0.56      0.00
   13   12    4     -1.46      0.00
   13   12    5     -1.31      0.00
   13   12    6     -0.20      0.00
   13   12    7      1.26      0.00
   13   12    8     -0.85      0.00
   13   12    9      0.90      0.00
  -13   13   11     -2.74      0.00
  -13   13   10      0.46      0.00
  -13   13    9     -1.23      0.00
  -13   13    8      2.35      0.00
  -13   13    7     -1.85      0.00
  -13   13    6      0.34      0.00
  -13   13    5     -1.97      0.00
  -13   13    4      3.37      0.00
  -13   13    3     -5.71      0.00
  -13   13    2      2.29      0.00
  -13   13    1      1.94      0.00
   13   13    0      2.89      0.00
   13   13    1     -0.11      0.00
   13   13    2      1.76      0.00
   13   13    3     -1.69      0.00
   13   13    4     -2.65      0.00
   13   13    5     -0.91      0.00
   13   13    6     -0.41      0.00
   13   13    7      0.32      0.00
   13   13    8      0.94      0.00
  -13   14   10      0.13      0.00
  -13   14    9      2.95      0.00
  -13   14    8      0.04      0.00
  -13   14    7     -1.87      0.00
  -13   14    6     -0.27      0.00
  -13   14    5     -1.62      0.00
  -13   14    4      0.32      0.00
  -13   14    3      0.50      0.00
  -13   14    2      0.23      0.00
  -13   14    1      1.29      0.00
   13   14    0      2.46      0.00
   13   14    1      2.42      0.00
   13   14    2      0.75      0.00
   13   14    3     -0.27      0.00
   13   14    4     -0.79      0.00
   13   14    5     -1.85      0.00
   13   14    6      0.21      0.00
   13   14    7      0.56      0.00
  -13   15    9      2.41      0.00
  -13   15    8     -0.19      0.00
  -13   15    7      2.03      0.00
  -13   15    6     -1.66      0.00
  -13   15    5      0.52      0.00
  -13   15    4     -1.68      0.00
  -13   15    3      3.43      0.00
  -13   15    2      1.76      0.00
  -13   15    1     -0.21      0.00
   13   15    0     -1.47      0.00
   13   15    1      3.03      0.00
   13   15    2      2.51      0.00
   13   15    3     -0.25      0.00
   13   15    4      0.39      0.00
   13   15    5      0.69      0.00
   13   15    6     -0.87      0.00
  -13   16    7      2.41      0.00
  -13   16    6      0.58      0.00
  -13   16    5     -0.23      0.00
  -13   16    4      0.64      0.00
  -13   16    3     -0.35      0.00
  -13   16    2      0.24      0.00
  -13   16    1      2.69      0.00
   13   16    0     -0.71      0.00
   13   16    1      0.12      0.00
   13   16    2      2.00      0.00
   13   16    3      2.96      0.00
   13   16    4      1.77      0.00
  -13   17    5     -0.25      0.00
  -13   17    4     -1.57      0.00
  -13   17    3     -1.03      0.00
  -13   17    2      0.56      0.00
  -13   17    1      0.55      0.00
   13   17    0     -1.34      0.00
   13   17    1     -0.36      0.00
  -14    0   16     -0.26      0.00
  -14    0   14     -2.25      0.00
  -14    0   12     -1.17      0.00
  -14    0   10      1.51      0.00
  -14    0    8      3.98      0.00
  -14    0    6      2.66      0.00
  -14    0    4     -1.18      0.00
  -14    0    2      2.98      0.00
   14    0    0     12.95      0.00
   14    0    2     10.51      0.00
   14    0    4      2.08      0.00
   14    0    6      7.67      0.00
   14    0    8     -3.39      0.00
   14    0   10     -0.21      0.00
   14    0   12      3.84      0.00
  -14    1   16     -0.24      0.00
  -14    1   15     -0.38      0.00
  -14    1   14      1.80      0.00
  -14    1   13     -1.48      0.00
  -14    1   12      3.36      0.00
  -14    1   11     -1.34      0.00
  -14    1   10      0.50      0.00
  -14    1    9      0.84      0.00
  -14    1    8      4.03      0.00
  -14    1    7      1.07      0.00
  -14    1    6     -5.89      0.00
  -14    1    5     -3.67      0.00
  -14    1    4      3.27      0.00
  -14    1    3     -2.03      0.00
  -14    1    2     -5.25      0.00
  -14    1    1      2.59      0.00
   14    1    0      1.96      0.00
   14    1    1      1.43      0.00
   14    1    2      7.73      0.00
   14    1    3     -6.92      0.00
   14    1    4     -8.79      0.00
   14    1    5     -1.87      0.00
   14    1    6     -1.82      0.00
   14    1    7     -1.54      0.00
   14    1    8      0.71      0.00
   14    1    9     -3.06      0.00
   14    1   10      1.28      0.00
   14    1   11      0.49      0.00
   14    1   12     -0.56      0.00
   14    1   13      1.15      0.00
  -14    2   16      0.15      0.00
  -14    2   15      0.70      0.00
  -14    2   14      1.47      0.00
  -14    2   13      1.37      0.00
  -14    2   12     -1.50      0.00
  -14    2   11      2.04      0.00
  -14    2   10     -2.45      0.00
  -14    2    9      3.33      0.00
  -14    2    8     -2.51      0.00
  -14    2    7     -1.32      0.00
  -14    2    6     -5.22      0.00
  -14    2    5      0.34      0.00
  -14    2    4     -4.25      0.00
  -14    2    3      5.87      0.00
  -14    2    2     -0.13      0.00
  -14    2    1      4.22      0.00
   14    2    0     -6.02      0.00
   14    2    1      1.11      0.00
   14    2    2    -16.65      0.00
   14    2    3     -5.16      0.00
   14    2    4    -11.03      0.00
   14    2    5     -8.95      0.00
   14    2    6     -8.98      0.00
   14    2    7      0.45      0.00
   14    2    8      0.61      0.00
   14    2    9      1.24      0.00
   14    2   10     -1.24      0.00
   14    2   11      1.37      0.00
   14    2   12     -1.01      0.00
   14    2   13      1.32      0.00
  -14    3   16      0.01      0.00
  -14    3   15      1.02      0.00
  -14    3   14      1.77      0.00
  -14    3   13      1.31      0.00
  -14    3   12     -1.87      0.00
  -14    3   11     -0.95      0.00
  -14    3   10      4.53      0.00
  -14    3    9     -3.54      0.00
  -14    3    8     -2.41      0.00
  -14    3    7     -4.31      0.00
  -14    3    6      1.15      0.00
  -14    3    5      1.65      0.00
  -14    3    4      0.08      0.00
  -14    3    3      3.96      0.00
  -14    3    2     11.69      0.00
  -14    3    1      3.54      0.00
   14    3    0     -0.22      0.00
   14    3    1     -4.87      0.00
   14    3    2     -6.73      0.00
   14    3    3     -0.68      0.00
   14    3    4     -4.19      0.00
   14    3    5     -4.47      0.00
   14    3    6     -2.90      0.00
   14    3    7      0.69      0.00
   14    3    8      1.00      0.00
   14    3    9      3.84      0.00
   14    3   10     -0.82      0.00
   14    3   11     -0.07      0.00
   14    3   12      2.87      0.00
   14    3   13      0.40      0.00
  -14    4   16      0.84      0.00
  -14    4   15      1.52      0.00
  -14    4   14     -0.80      0.00
  -14    4   13      1.31      0.00
  -14    4   12      0.89      0.00
  -14    4   11     -0.42      0.00
  -14    4   10     -1.07      0.00
  -14    4    9      1.23      0.00
  -14    4    8     -4.69      0.00
  -14    4    7     -0.66      0.00
  -14    4    6      3.30      0.00
  -14    4    5     -1.72      0.00
  -14    4    4      8.02      0.00
  -14    4    3     -0.62      0.00
  -14    4    2      4.32      0.00
  -14    4    1     -0.86      0.00
   14    4    0     -0.57      0.00
   14    4    1     -0.09      0.00
   14    4    2      9.47      0.00
   14    4    3     -1.87      0.00
   14    4    4      4.81      0.00
   14    4    5      1.59      0.00
   14    4    6      2.32      0.00
   14    4    7      0.00      0.00
   14    4    8      0.39      0.00
   14    4    9     -0.93      0.00
   14    4   10      1.82      0.00
   14    4   11      0.21      0.00
   14    4   12      0.58      0.00
  -14    5   16     -0.64      0.00
  -14    5   15      0.10      0.00
  -14    5   14      0.47      0.00
  -14    5   13     -2.85      0.00
  -14    5   12      1.85      0.00
  -14    5   11      1.58      0.00
  -14    5   10     -3.21      0.00
  -14    5    9     -2.46      0.00
  -14    5    8      3.73      0.00
  -14    5    7     -0.20      0.00
  -14    5    6      1.65      0.00
  -14    5    5      2.99      0.00
  -14    5    4      2.40      0.00
  -14    5    3      2.26      0.00
  -14    5    2     -7.13      0.00
  -14    5    1     -9.81      0.00
   14    5    0     -4.74      0.00
   14    5    1      0.01      0.00
   14    5    2     -1.20      0.00
   14    5    3      3.83      0.00
   14    5    4      1.10      0.00
   14    5    5      1.46      0.00
   14    5    6      1.90      0.00
   14    5    7     -2.70      0.00
   14    5    8     -1.30      0.00
   14    5    9     -1.33      0.00
   14    5   10      0.71      0.00
   14    5   11      0.45      0.00
   14    5   12     -0.15      0.00
  -14    6   15     -0.75      0.00
  -14    6   14     -0.61      0.00
  -14    6   13     -0.34      0.00
  -14    6   12     -1.42      0.00
  -14    6   11     -0.82      0.00
  -14    6   10      1.00      0.00
  -14    6    9     -2.92      0.00
  -14    6    8      0.70      0.00
  -14    6    7      4.51      0.00
  -14    6    6     -1.92      0.00
  -14    6    5      7.01      0.00
  -14    6    4     -1.72      0.00
  -14    6    3     -1.11      0.00
  -14    6    2     -8.41      0.00
  -14    6    1      1.74      0.00
   14    6    0     -1.68      0.00
   14    6    1     -9.16      0.00
   14    6    2     -0.97      0.00
   14    6    3     -1.81      0.00
   14    6    4      3.28      0.00
   14    6    5     -0.78      0.00
   14    6    6     -1.63      0.00
   14    6    7     -1.74      0.00
   14    6    8      0.38      0.00
   14    6    9     -1.25      0.00
   14    6   10     -0.49      0.00
   14    6   11      0.59      0.00
   14    6   12      1.18      0.00
  -14    7   15     -1.27      0.00
  -14    7   14     -0.39      0.00
  -14    7   13      2.19      0.00
  -14    7   12     -0.90      0.00
  -14    7   11     -0.90      0.00
  -14    7   10     -0.60      0.00
  -14    7    9      2.71      0.00
  -14    7    8     -3.42      0.00
  -14    7    7      0.48      0.00
  -14    7    6      5.65      0.00
  -14    7    5     -2.01      0.00
  -14    7    4     -2.46      0.00
  -14    7    3     -8.20      0.00
  -14    7    2      0.58      0.00
  -14    7    1      5.74      0.00
   14    7    0     -0.16      0.00
   14    7    1      4.18      0.00
   14    7    2     -4.09      0.00
   14    7    3      3.80      0.00
   14    7    4     -1.40      0.00
   14    7    5      2.36      0.00
   14    7    6     -3.67      0.00
   14    7    7      2.62      0.00
   14    7    8     -1.78      0.00
   14    7    9      0.67      0.00
   14    7   10     -0.48      0.00
   14    7   11      0.61      0.00
  -14    8   14      0.33      0.00
  -14    8   13     -0.60      0.00
  -14    8   12      2.18      0.00
  -14    8   11      1.75      0.00
  -14    8   10     -1.64      0.00
  -14    8    9     -0.47      0.00
  -14    8    8      2.81      0.00
  -14    8    7      1.39      0.00
  -14    8    6      0.54      0.00
  -14    8    5     -2.86      0.00
  -14    8    4     -7.14      0.00
  -14    8    3     -2.87      0.00
  -14    8    2      1.34      0.00
  -14    8    1     -0.53      0.00
   14    8    0      4.87      0.00
   14    8    1      4.38      0.00
   14    8    2      2.05      0.00
   14    8    3     -0.33      0.00
   14    8    4     -0.08      0.00
   14    8    5     -0.64      0.00
   14    8    6      1.54      0.00
   14    8    7     -2.48      0.00
   14    8    8      0.03      0.00
   14    8    9      0.85      0.00
   14    8   10      0.54      0.00
   14    8   11      1.13      0.00
  -14    9   14     -1.71      0.00
  -14    9   13     -0.60      0.00
  -14    9   12      1.55      0.00
  -14    9   11     -1.17      0.00
  -14    9   10      1.26      0.00
  -14    9    9     -1.52      0.00
  -14    9    8      3.51      0.00
  -14    9    7      3.16      0.00
  -14    9    6     -4.46      0.00
  -14    9    5     -5.07      0.00
  -14    9    4     -0.53      0.00
  -14    9    3      0.75      0.00
  -14    9    2      0.03      0.00
  -14    9    1     -1.18      0.00
   14    9    0      0.08      0.00
   14    9    1      0.90      0.00
   14    9    2      2.41      0.00
   14    9    3     -3.02      0.00
   14    9    4      0.44      0.00
   14    9    5      0.17      0.00
   14    9    6     -0.03      0.00
   14    9    7     -1.05      0.00
   14    9    8      0.01      0.00
   14    9    9      0.35      0.00
   14    9   10      0.76      0.00
  -14   10   13      0.07      0.00
  -14   10   12     -1.39      0.00
  -14   10   11      0.31      0.00
  -14   10   10      0.35      0.00
  -14   10    9      2.35      0.00
  -14   10    8      1.72      0.00
  -14   10    7     -5.39      0.00
  -14   10    6      0.40      0.00
  -14   10    5     -5.37      0.00
  -14   10    4      1.89      0.00
  -14   10    3      3.51      0.00
  -14   10    2      0.42      0.00
  -14   10    1     -0.13      0.00
   14   10    0      1.30      0.00
   14   10    1     -1.67      0.00
   14   10    2      0.96      0.00
   14   10    3      0.19      0.00
   14   10    4      1.18      0.00
   14   10    5     -1.84      0.00
   14   10    6      0.46      0.00
   14   10    7      1.43      0.00
   14   10    8      1.05      0.00
   14   10    9     -0.23      0.00
   14   10   10      0.98      0.00
  -14   11   13     -0.37      0.00
  -14   11   12      0.24      0.00
  -14   11   11      1.57      0.00
  -14   11   10      1.41      0.00
  -14   11    9      3.97      0.00
  -14   11    8     -3.94      0.00
  -14   11    7     -0.61      0.00
  -14   11    6     -6.43      0.00
  -14   11    5      5.31      0.00
  -14   11    4     -0.45      0.00
  -14   11    3     -1.88      0.00
  -14   11    2      4.50      0.00
  -14   11    1      1.43      0.00
   14   11    0      0.46      0.00
   14   11    1      1.67      0.00
   14   11    2      0.57      0.00
   14   11    3      4.32      0.00
   14   11    4     -2.03      0.00
   14   11    5     -0.02      0.00
   14   11    6     -0.45      0.00
   14   11    7      0.59      0.00
   14   11    8      2.02      0.00
   14   11    9      2.84      0.00
  -14   12   12      0.55      0.00
  -14   12   11      2.45      0.00
  -14   12   10      2.54      0.00
  -14   12    9     -1.63      0.00
  -14   12    8     -1.86      0.00
  -14   12    7     -0.98      0.00
  -14   12    6      0.38      0.00
  -14   12    5      0.86      0.00
  -14   12    4      0.77      0.00
  -14   12    3      1.50      0.00
  -14   12    2     -3.89      0.00
  -14   12    1      5.04      0.00
   14   12    0     -1.69      0.00
   14   12    1      3.88      0.00
   14   12    2      1.81      0.00
   14   12    3      0.43      0.00
   14   12    4      0.23      0.00
   14   12    5      0.31      0.00
   14   12    6     -2.11      0.00
   14   12    7      0.64      0.00
   14   12    8      1.50      0.00
  -14   13   11      1.02      0.00
  -14   13   10     -0.09      0.00
  -14   13    9     -2.31      0.00
  -14   13    8      0.62      0.00
  -14   13    7     -2.37      0.00
  -14   13    6      4.14      0.00
  -14   13    5     -0.20      0.00
  -14   13    4      0.27      0.00
  -14   13    3      1.61      0.00
  -14   13    2      0.27      0.00
  -14   13    1     -4.32      0.00
   14   13    0     -1.87      0.00
   14   13    1     -1.45      0.00
   14   13    2      1.19      0.00
   14   13    3     -0.53      0.00
   14   13    4      0.15      0.00
   14   13    5     -0.99      0.00
   14   13    6      1.00      0.00
   14   13    7     -0.13      0.00
  -14   14   10     -0.42      0.00
  -14   14    9     -0.42      0.00
  -14   14    8     -0.67      0.00
  -14   14    7      2.67      0.00
  -14   14    6      0.10      0.00
  -14   14    5      0.92      0.00
  -14   14    4      1.62      0.00
  -14   14    3     -2.00      0.00
  -14   14    2      2.40      0.00
  -14   14    1     -1.95      0.00
   14   14    0     -1.32      0.00
   14   14    1     -4.15      0.00
   14   14    2     -1.87      0.00
   14   14    3     -0.99      0.00
   14   14    4      0.64      0.00
   14   14    5     -0.01      0.00
   14   14    6      1.28      0.00
  -14   15    8      0.98      0.00
  -14   15    7      1.75      0.00
  -14   15    6      0.81      0.00
  -14   15    5      0.47      0.00
  -14   15    4     -0.59      0.00
  -14   15    3      0.32      0.00
  -14   15    2     -2.01      0.00
  -14   15    1      2.88      0.00
   14   15    0     -0.14      0.00
   14   15    1     -2.06      0.00
   14   15    2     -2.72      0.00
   14   15    3     -1.09      0.00
   14   15    4      0.58      0.00
   14   15    5      1.35      0.00
  -14   16    6      0.92      0.00
  -14   16    5     -0.55      0.00
  -14   16    4      0.36      0.00
  -14   16    3      0.82      0.00
  -14   16    2      1.02      0.00
  -14   16    1     -0.14      0.00
   14   16    0     -0.98      0.00
   14   16    1      1.62      0.00
   14   16    2     -1.98      0.00
   14   16    3      0.03      0.00
  -15    0   16      0.00      0.00
  -15    0   14     -2.12      0.00
  -15    0   12     -1.24      0.00
  -15    0   10     -0.97      0.00
  -15    0    8     -1.52      0.00
  -15    0    6      7.44      0.00
  -15    0    4     10.09      0.00
  -15    0    2      0.09      0.00
   15    0    0      0.18      0.00
   15    0    2     11.78      0.00
   15    0    4      9.79      0.00
   15    0    6     -2.50      0.00
   15    0    8      0.17      0.00
   15    0   10      3.20      0.00
   15    0   12      1.45      0.00
  -15    1   16     -1.83      0.00
  -15    1   15     -0.74      0.00
  -15    1   14      2.70      0.00
  -15    1   13     -0.73      0.00
  -15    1   12     -1.49      0.00
  -15    1   11     -0.83      0.00
  -15    1   10     -0.71      0.00
  -15    1    9     -1.55      0.00
  -15    1    8     -1.09      0.00
  -15    1    7      0.14      0.00
  -15    1    6      5.17      0.00
  -15    1    5      2.37      0.00
  -15    1    4     -5.78      0.00
  -15    1    3     -1.58      0.00
  -15    1    2     -5.97      0.00
  -15    1    1     -7.89      0.00
   15    1    0     10.39      0.00
   15    1    1     -4.17      0.00
   15    1    2     -3.25      0.00
   15    1    3      2.07      0.00
   15    1    4      5.36      0.00
   15    1    5     -3.69      0.00
   15    1    6     -2.41      0.00
   15    1    7     -3.70      0.00
   15    1    8     -0.75      0.00
   15    1    9      0.70      0.00
   15    1   10      1.49      0.00
   15    1   11      1.19      0.00
   15    1   12      0.30      0.00
  -15    2   16      0.65      0.00
  -15    2   15     -1.27      0.00
  -15    2   14      0.40      0.00
  -15    2   13      0.35      0.00
  -15    2   12     -0.01      0.00
  -15    2   11     -2.14      0.00
  -15    2   10     -1.49      0.00
  -15    2    9     -3.15      0.00
  -15    2    8      0.02      0.00
  -15    2    7      4.47      0.00
  -15    2    6     -5.56      0.00
  -15    2    5      3.31      0.00
  -15    2    4     -9.14      0.00
  -15    2    3     -3.90      0.00
  -15    2    2     -8.66      0.00
  -15    2    1     -6.90      0.00
   15    2    0    -11.09      0.00
   15    2    1     -3.93      0.00
   15    2    2    -11.88      0.00
   15    2    3     -0.99      0.00
   15    2    4    -11.70      0.00
   15    2    5      3.72      0.00
   15    2    6     -4.70      0.00
   15    2    7     -3.43      0.00
   15    2    8     -1.56      0.00
   15    2    9     -0.30      0.00
   15    2   10      0.63      0.00
   15    2   11      3.29      0.00
   15    2   12     -0.57      0.00
  -15    3   16      1.50      0.00
  -15    3   15      0.85      0.00
  -15    3   14     -1.94      0.00
  -15    3   13      0.17      0.00
  -15    3   12      1.95      0.00
  -15    3   11     -1.08      0.00
  -15    3   10     -4.33      0.00
  -15    3    9      0.43      0.00
  -15    3    8      2.20      0.00
  -15    3    7     -0.08      0.00
  -15    3    6      0.09      0.00
  -15    3    5     -4.92      0.00
  -15    3    4      1.70      0.00
  -15    3    3     -3.33      0.00
  -15    3    2     -6.25      0.00
  -15    3    1      2.25      0.00
   15    3    0     -5.38      0.00
   15    3    1      0.56      0.00
   15    3    2     -0.79      0.00
   15    3    3    -10.62      0.00
   15    3    4      2.22      0.00
   15    3    5     -0.97      0.00
   15    3    6      4.77      0.00
   15    3    7      1.45      0.00
   15    3    8     -3.10      0.00
   15    3    9      0.91      0.00
   15    3   10      0.23      0.00
   15    3   11      0.77      0.00
   15    3   12      1.72      0.00
  -15    4   15      2.85      0.00
  -15    4   14      1.43      0.00
  -15    4   13      0.58      0.00
  -15    4   12     -0.71      0.00
  -15    4   11      0.76      0.00
  -15    4   10      0.49      0.00
  -15    4    9      0.19      0.00
  -15    4    8      1.17      0.00
  -15    4    7     -0.84      0.00
  -15    4    6      2.49      0.00
  -15    4    5     -3.95      0.00
  -15    4    4      1.50      0.00
  -15    4    3     -5.11      0.00
  -15    4    2      5.50      0.00
  -15    4    1      1.94      0.00
   15    4    0     11.07      0.00
   15    4    1      2.23      0.00
   15    4    2     -0.81      0.00
   15    4    3      3.29      0.00
   15    4    4      0.71      0.00
   15    4    5      5.12      0.00
   15    4    6      4.54      0.00
   15    4    7      3.98      0.00
   15    4    8      0.66      0.00
   15    4    9     -1.23      0.00
   15    4   10     -1.51      0.00
   15    4   11     -1.48      0.00
   15    4   12      2.00      0.00
  -15    5   15      0.30      0.00
  -15    5   14      1.78      0.00
  -15    5   13      1.05      0.00
  -15    5   12     -1.39      0.00
  -15    5   11     -0.15      0.00
  -15    5   10      2.55      0.00
  -15    5    9      1.95      0.00
  -15    5    8     -1.66      0.00
  -15    5    7      1.20      0.00
  -15    5    6     -0.79      0.00
  -15    5    5      0.28      0.00
  -15    5    4     -5.26      0.00
  -15    5    3      0.01      0.00
  -15    5    2      6.52      0.00
  -15    5    1      4.07      0.00
   15    5    0      1.91      0.00
   15    5    1     -2.96      0.00
   15    5    2      1.10      0.00
   15    5    3      1.86      0.00
   15    5    4      2.05      0.00
   15    5    5      1.80      0.00
   15    5    6      1.19      0.00
   15    5    7      1.89      0.00
   15    5    8      3.11      0.00
   15    5    9     -3.29      0.00
   15    5   10     -0.55      0.00
   15    5   11      0.21      0.00
  -15    6   15     -0.05      0.00
  -15    6   14     -1.07      0.00
  -15    6   13     -1.00      0.00
  -15    6   12      1.50      0.00
  -15    6   11     -1.37      0.00
  -15    6   10      0.24      0.00
  -15    6    9      1.97      0.00
  -15    6    8      3.11      0.00
  -15    6    7     -2.46      0.00
  -15    6    6     -1.11      0.00
  -15    6    5     -1.19      0.00
  -15    6    4     -1.94      0.00
  -15    6    3      7.36      0.00
  -15    6    2      0.90      0.00
  -15    6    1      2.63      0.00
   15    6    0     -5.23      0.00
   15    6    1      1.73      0.00
   15    6    2      2.02      0.00
   15    6    3     -1.77      0.00
   15    6    4      2.26      0.00
   15    6    5     -2.37      0.00
   15    6    6      2.33      0.00
   15    6    7     -1.32      0.00
   15    6    8     -0.52      0.00
   15    6    9      1.73      0.00
   15    6   10      0.81      0.00
   15    6   11      1.17      0.00
  -15    7   15     -0.64      0.00
  -15    7   14      0.09      0.00
  -15    7   13      0.51      0.00
  -15    7   12     -1.44      0.00
  -15    7   11      2.12      0.00
  -15    7   10      0.02      0.00
  -15    7    9      0.12      0.00
  -15    7    8      2.24      0.00
  -15    7    7      1.30      0.00
  -15    7    6     -5.63      0.00
  -15    7    5      1.66      0.00
  -15    7    4      5.42      0.00
  -15    7    3      4.51      0.00
  -15    7    2      1.36      0.00
  -15    7    1     -1.37      0.00
   15    7    0      1.69      0.00
   15    7    1      4.44      0.00
   15    7    2      3.26      0.00
   15    7    3      2.95      0.00
   15    7    4     -3.56      0.00
   15    7    5      2.80      0.00
   15    7    6     -1.85      0.00
   15    7    7     -0.07      0.00
   15    7    8     -1.05      0.00
   15    7    9      1.49      0.00
   15    7   10      2.91      0.00
   15    7   11      1.45      0.00
  -15    8   14      1.30      0.00
  -15    8   13      0.31      0.00
  -15    8   12      0.58      0.00
  -15    8   11     -0.25      0.00
  -15    8   10      1.47      0.00
  -15    8    9      1.72      0.00
  -15    8    8     -4.63      0.00
  -15    8    7      0.70      0.00
  -15    8    6      1.32      0.00
  -15    8    5     -0.12      0.00
  -15    8    4      6.66      0.00
  -15    8    3      0.07      0.00
  -15    8    2      0.93      0.00
  -15    8    1     -1.06      0.00
   15    8    0      2.67      0.00
   15    8    1      2.04      0.00
   15    8    2      1.22      0.00
   15    8    3      1.49      0.00
   15    8    4      1.04      0.00
   15    8    5     -1.38      0.00
   15    8    6     -0.61      0.00
   15    8    7     -0.27      0.00
   15    8    8      0.05      0.00
   15    8    9      1.56      0.00
   15    8   10     -0.09      0.00
  -15    9   14     -3.32      0.00
  -15    9   13     -1.05      0.00
  -15    9   12      1.10      0.00
  -15    9   11     -0.34      0.00
  -15    9   10      1.46      0.00
  -15    9    9     -2.83      0.00
  -15    9    8     -0.29      0.00
  -15    9    7     -5.30      0.00
  -15    9    6      5.23      0.00
  -15    9    5      3.57      0.00
  -15    9    4     -2.04      0.00
  -15    9    3      0.73      0.00
  -15    9    2     -0.46      0.00
  -15    9    1      1.99      0.00
   15    9    0     -0.06      0.00
   15    9    1     -2.69      0.00
   15    9    2     -1.87      0.00
   15    9    3      0.45      0.00
   15    9    4      1.19      0.00
   15    9    5     -1.39      0.00
   15    9    6     -0.24      0.00
   15    9    7      2.60      0.00
   15    9    8      0.53      0.00
   15    9    9     -0.86      0.00
   15    9   10      1.57      0.00
  -15   10   13     -3.00      0.00
  -15   10   12     -0.98      0.00
  -15   10   11      2.45      0.00
  -15   10   10     -2.08      0.00
  -15   10    9     -1.65      0.00
  -15   10    8     -0.48      0.00
  -15   10    7      0.07      0.00
  -15   10    6      0.98      0.00
  -15   10    5      2.00      0.00
  -15   10    4     -0.91      0.00
  -15   10    3     -1.49      0.00
  -15   10    2      3.68      0.00
  -15   10    1     -0.58      0.00
   15   10    0     -0.59      0.00
   15   10    1     -2.49      0.00
   15   10    2      0.92      0.00
   15   10    3     -2.31      0.00
   15   10    4      0.21      0.00
   15   10    5      0.48      0.00
   15   10    6      2.91      0.00
   15   10    7     -0.05      0.00
   15   10    8      1.74      0.00
   15   10    9      1.66      0.00
  -15   11   12     -1.70      0.00
  -15   11   11     -2.05      0.00
  -15   11   10     -1.12      0.00
  -15   11    9      0.40      0.00
  -15   11    8     -2.76      0.00
  -15   11    7      6.70      0.00
  -15   11    6     -2.41      0.00
  -15   11    5     -3.01      0.00
  -15   11    4      1.12      0.00
  -15   11    3      1.53      0.00
  -15   11    2     -0.44      0.00
  -15   11    1      1.62      0.00
   15   11    0     -0.53      0.00
   15   11    1      2.68      0.00
   15   11    2     -2.22      0.00
   15   11    3      0.51      0.00
   15   11    4     -0.71      0.00
   15   11    5      2.84      0.00
   15   11    6     -0.61      0.00
   15   11    7     -0.30      0.00
   15   11    8      1.94      0.00
  -15   12   11     -3.04      0.00
  -15   12   10     -2.05      0.00
  -15   12    9     -0.38      0.00
  -15   12    8      3.13      0.00
  -15   12    7     -1.83      0.00
  -15   12    6     -0.50      0.00
  -15   12    5     -1.04      0.00
  -15   12    4     -4.15      0.00
  -15   12    3      2.22      0.00
  -15   12    2     -0.53      0.00
  -15   12    1      0.54      0.00
   15   12    0      2.27      0.00
   15   12    1     -0.31      0.00
   15   12    2     -1.06      0.00
   15   12    3     -0.44      0.00
   15   12    4      0.36      0.00
   15   12    5     -0.77      0.00
   15   12    6     -0.53      0.00
   15   12    7      0.93      0.00
   15   12    8     -3.49      0.00
  -15   13   10      0.89      0.00
  -15   13    9     -0.08      0.00
  -15   13    8      2.95      0.00
  -15   13    7     -4.08      0.00
  -15   13    6     -1.47      0.00
  -15   13    5     -2.76      0.00
  -15   13    4      1.99      0.00
  -15   13    3     -3.72      0.00
  -15   13    2      1.80      0.00
  -15   13    1      2.13      0.00
   15   13    0      0.71      0.00
   15   13    1     -1.23      0.00
   15   13    2      0.34      0.00
   15   13    3     -1.58      0.00
   15   13    4     -1.66      0.00
   15   13    5     -1.34      0.00
   15   13    6      1.28      0.00
  -15   14    9      4.24      0.00
  -15   14    8     -0.96      0.00
  -15   14    7     -0.50      0.00
  -15   14    6     -2.25      0.00
  -15   14    5      0.00      0.00
  -15   14    4      0.03      0.00
  -15   14    3      1.64      0.00
  -15   14    2      0.15      0.00
  -15   14    1     -1.28      0.00
   15   14    0      1.50      0.00
   15   14    1      0.98      0.00
   15   14    2      0.26      0.00
   15   14    3     -1.20      0.00
   15   14    4     -0.92      0.00
   15   14    5     -0.29      0.00
  -15   15    7      2.68      0.00
  -15   15    6     -0.12      0.00
  -15   15    5      2.29      0.00
  -15   15    4     -0.46      0.00
  -15   15    3      1.23      0.00
  -15   15    2     -2.59      0.00
  -15   15    1     -1.81      0.00
   15   15    0      1.23      0.00
   15   15    1      2.31      0.00
   15   15    2     -0.26      0.00
   15   15    3      0.18      0.00
   15   15    4     -0.05      0.00
  -15   16    5      0.44      0.00
  -15   16    4      1.61      0.00
  -15   16    3     -4.29      0.00
  -15   16    2     -1.44      0.00
  -15   16    1     -1.85      0.00
   15   16    0     -2.17      0.00
   15   16    1      0.24      0.00
  -16    0   14     -1.98      0.00
  -16    0   12     -1.17      0.00
  -16    0   10      2.51      0.00
  -16    0    8      3.34      0.00
  -16    0    6     -1.24      0.00
  -16    0    4      2.45      0.00
  -16    0    2      5.47      0.00
   16    0    0     16.72      0.00
   16    0    2      5.82      0.00
   16    0    4      5.68      0.00
   16    0    6      8.13      0.00
   16    0    8      0.45      0.00
   16    0   10     -1.68      0.00
  -16    1   15      0.31      0.00
  -16    1   14     -0.22      0.00
  -16    1   13     -1.46      0.00
  -16    1   12      0.91      0.00
  -16    1   11      0.68      0.00
  -16    1   10     -1.42      0.00
  -16    1    9      2.57      0.00
  -16    1    8      1.53      0.00
  -16    1    7     -0.35      0.00
  -16    1    6     -0.59      0.00
  -16    1    5     -2.89      0.00
  -16    1    4      4.59      0.00
  -16    1    3     -0.86      0.00
  -16    1    2     -1.57      0.00
  -16    1    1      6.27      0.00
   16    1    0      5.72      0.00
   16    1    1      2.85      0.00
   16    1    2     11.95      0.00
   16    1    3     -3.89      0.00
   16    1    4     -4.65      0.00
   16    1    5      1.81      0.00
   16    1    6      0.29      0.00
   16    1    7      1.33      0.00
   16    1    8      0.01      0.00
   16    1    9     -1.62      0.00
   16    1   10      2.04      0.00
   16    1   11     -0.71      0.00
  -16    2   15     -2.39      0.00
  -16    2   14      0.68      0.00
  -16    2   13     -1.30      0.00
  -16    2   12     -0.33      0.00
  -16    2   11     -0.69      0.00
  -16    2   10      0.97      0.00
  -16    2    9     -0.48      0.00
  -16    2    8     -1.23      0.00
  -16    2    7     -0.90      0.00
  -16    2    6     -2.05      0.00
  -16    2    5      2.00      0.00
  -16    2    4     -7.27      0.00
  -16    2    3      5.33      0.00
  -16    2    2      0.28      0.00
  -16    2    1     -0.83      0.00
   16    2    0     -6.41      0.00
   16    2    1      9.95      0.00
   16    2    2     -8.34      0.00
   16    2    3      0.02      0.00
   16    2    4     -7.10      0.00
   16    2    5     -4.01      0.00
   16    2    6     -3.62      0.00
   16    2    7      0.60      0.00
   16    2    8      0.52      0.00
   16    2    9      0.70      0.00
   16    2   10     -0.39      0.00
   16    2   11      0.77      0.00
  -16    3   15     -0.42      0.00
  -16    3   14     -2.18      0.00
  -16    3   13      0.99      0.00
  -16    3   12     -2.63      0.00
  -16    3   11      0.62      0.00
  -16    3   10      0.18      0.00
  -16    3    9     -0.96      0.00
  -16    3    8     -2.21      0.00
  -16    3    7     -1.01      0.00
  -16    3    6     -1.59      0.00
  -16    3    5      0.17      0.00
  -16    3    4     -2.36      0.00
  -16    3    3      0.43      0.00
  -16    3    2      3.57      0.00
  -16    3    1     -2.82      0.00
   16    3    0      8.15      0.00
   16    3    1     -4.35      0.00
   16    3    2     -0.16      0.00
   16    3    3      2.70      0.00
   16    3    4      2.03      0.00
   16    3    5     -2.43      0.00
   16    3    6     -0.93      0.00
   16    3    7      1.37      0.00
   16    3    8      2.97      0.00
   16    3    9      3.08      0.00
   16    3   10     -2.27      0.00
   16    3   11     -0.06      0.00
  -16    4   15     -0.54      0.00
  -16    4   14     -0.81      0.00
  -16    4   13      0.03      0.00
  -16    4   12      2.67      0.00
  -16    4   11     -1.76      0.00
  -16    4   10      1.48      0.00
  -16    4    9     -0.23      0.00
  -16    4    8     -1.12      0.00
  -16    4    7     -1.90      0.00
  -16    4    6      2.45      0.00
  -16    4    5     -5.51      0.00
  -16    4    4      7.71      0.00
  -16    4    3     -5.02      0.00
  -16    4    2     -2.49      0.00
  -16    4    1     -8.80      0.00
   16    4    0     -2.95      0.00
   16    4    1      3.41      0.00
   16    4    2      6.11      0.00
   16    4    3      6.58      0.00
   16    4    4      5.85      0.00
   16    4    5      5.46      0.00
   16    4    6      0.74      0.00
   16    4    7      3.51      0.00
   16    4    8      1.46      0.00
   16    4    9      1.10      0.00
   16    4   10      1.50      0.00
   16    4   11     -1.62      0.00
  -16    5   15      1.00      0.00
  -16    5   14      0.80      0.00
  -16    5   13     -0.63      0.00
  -16    5   12      0.64      0.00
  -16    5   11      3.85      0.00
  -16    5   10     -2.73      0.00
  -16    5    9     -0.36      0.00
  -16    5    8     -0.45      0.00
  -16    5    7      0.57      0.00
  -16    5    6     -2.38      0.00
  -16    5    5      3.90      0.00
  -16    5    4     -0.09      0.00
  -16    5    3      1.11      0.00
  -16    5    2    -11.06      0.00
  -16    5    1     -7.95      0.00
   16    5    0      0.37      0.00
   16    5    1     -0.28      0.00
   16    5    2      3.38      0.00
   16    5    3      2.06      0.00
   16    5    4      6.49      0.00
   16    5    5      2.81      0.00
   16    5    6      5.25      0.00
   16    5    7     -2.96      0.00
   16    5    8      0.57      0.00
   16    5    9     -0.14      0.00
   16    5   10      1.38      0.00
   16    5   11      0.80      0.00
  -16    6   14      0.67      0.00
  -16    6   13     -0.21      0.00
  -16    6   12     -0.51      0.00
  -16    6   11     -1.74      0.00
  -16    6   10      0.97      0.00
  -16    6    9     -2.80      0.00
  -16    6    8     -0.52      0.00
  -16    6    7     -1.36      0.00
  -16    6    6      0.28      0.00
  -16    6    5      4.14      0.00
  -16    6    4     -1.95      0.00
  -16    6    3     -3.50      0.00
  -16    6    2     -4.34      0.00
  -16    6    1     -1.33      0.00
   16    6    0     -1.93      0.00
   16    6    1     -3.33      0.00
   16    6    2     -0.64      0.00
   16    6    3     -0.88      0.00
   16    6    4      2.31      0.00
   16    6    5      2.33      0.00
   16    6    6     -0.01      0.00
   16    6    7     -0.75      0.00
   16    6    8     -1.43      0.00
   16    6    9     -1.48      0.00
   16    6   10      0.51      0.00
  -16    7   14     -0.47      0.00
  -16    7   13      1.49      0.00
  -16    7   12     -1.64      0.00
  -16    7   11     -0.21      0.00
  -16    7   10     -0.20      0.00
  -16    7    9      0.77      0.00
  -16    7    8     -2.19      0.00
  -16    7    7      0.29      0.00
  -16    7    6      4.59      0.00
  -16    7    5     -1.13      0.00
  -16    7    4     -3.28      0.00
  -16    7    3     -3.61      0.00
  -16    7    2     -0.96      0.00
  -16    7    1      2.17      0.00
   16    7    0      2.55      0.00
   16    7    1      1.83      0.00
   16    7    2     -1.68      0.00
   16    7    3      2.49      0.00
   16    7    4     -0.81      0.00
   16    7    5      1.00      0.00
   16    7    6     -1.81      0.00
   16    7    7      0.90      0.00
   16    7    8     -1.44      0.00
   16    7    9     -0.86      0.00
   16    7   10     -3.07      0.00
  -16    8   14     -1.00      0.00
  -16    8   13     -1.16      0.00
  -16    8   12      3.13      0.00
  -16    8   11      1.95      0.00
  -16    8   10     -1.48      0.00
  -16    8    9     -0.06      0.00
  -16    8    8      2.20      0.00
  -16    8    7      4.30      0.00
  -16    8    6     -1.01      0.00
  -16    8    5      0.04      0.00
  -16    8    4     -1.74      0.00
  -16    8    3     -2.24      0.00
  -16    8    2      0.72      0.00
  -16    8    1     -3.48      0.00
   16    8    0      2.66      0.00
   16    8    1      3.91      0.00
   16    8    2      0.53      0.00
   16    8    3      1.86      0.00
   16    8    4     -1.66      0.00
   16    8    5     -0.37      0.00
   16    8    6     -1.21      0.00
   16    8    7      0.39      0.00
   16    8    8     -0.79      0.00
   16    8    9     -1.03      0.00
   16    8   10     -1.81      0.00
  -16    9   13      0.83      0.00
  -16    9   12      0.57      0.00
  -16    9   11     -0.91      0.00
  -16    9   10      1.95      0.00
  -16    9    9     -0.84      0.00
  -16    9    8      2.32      0.00
  -16    9    7      1.35      0.00
  -16    9    6     -0.13      0.00
  -16    9    5     -3.27      0.00
  -16    9    4      3.30      0.00
  -16    9    3      0.44      0.00
  -16    9    2     -1.72      0.00
  -16    9    1      0.05      0.00
   16    9    0      0.70      0.00
   16    9    1      0.92      0.00
   16    9    2      3.05      0.00
   16    9    3     -3.80      0.00
   16    9    4     -0.23      0.00
   16    9    5     -2.31      0.00
   16    9    6      1.40      0.00
   16    9    7     -2.07      0.00
   16    9    8      0.33      0.00
   16    9    9      0.71      0.00
  -16   10   12      0.06      0.00
  -16   10   11      0.34      0.00
  -16   10   10      1.69      0.00
  -16   10    9      2.82      0.00
  -16   10    8      2.03      0.00
  -16   10    7     -4.73      0.00
  -16   10    6      2.40      0.00
  -16   10    5     -0.54      0.00
  -16   10    4      0.36      0.00
  -16   10    3      3.34      0.00
  -16   10    2      0.30      0.00
  -16   10    1      0.83      0.00
   16   10    0      0.75      0.00
   16   10    1      0.69      0.00
   16   10    2     -0.17      0.00
   16   10    3     -0.33      0.00
   16   10    4     -0.01      0.00
   16   10    5     -1.69      0.00
   16   10    6     -1.63      0.00
   16   10    7     -0.74      0.00
   16   10    8      1.36      0.00
  -16   11   12     -1.87      0.00
  -16   11   11      4.70      0.00
  -16   11   10      1.56      0.00
  -16   11    9      4.15      0.00
  -16   11    8     -3.13      0.00
  -16   11    7      3.41      0.00
  -16   11    6     -3.97      0.00
  -16   11    5      6.98      0.00
  -16   11    4     -0.07      0.00
  -16   11    3     -0.69      0.00
  -16   11    2      4.07      0.00
  -16   11    1      0.31      0.00
   16   11    0      0.58      0.00
   16   11    1     -0.76      0.00
   16   11    2      0.63      0.00
   16   11    3      3.29      0.00
   16   11    4     -0.35      0.00
   16   11    5     -0.71      0.00
   16   11    6     -3.02      0.00
   16   11    7      0.07      0.00
   16   11    8     -3.15      0.00
  -16   12   11     -0.68      0.00
  -16   12   10      2.83      0.00
  -16   12    9     -2.64      0.00
  -16   12    8     -1.30      0.00
  -16   12    7      0.49      0.00
  -16   12    6      3.58      0.00
  -16   12    5      1.74      0.00
  -16   12    4      2.26      0.00
  -16   12    3      1.32      0.00
  -16   12    2     -2.28      0.00
  -16   12    1      2.48      0.00
   16   12    0     -1.94      0.00
   16   12    1      0.54      0.00
   16   12    2      1.35      0.00
   16   12    3      1.65      0.00
   16   12    4     -0.09      0.00
   16   12    5     -0.34      0.00
   16   12    6     -0.87      0.00
   16   12    7     -3.06      0.00
  -16   13    9     -2.54      0.00
  -16   13    8     -0.67      0.00
  -16   13    7     -1.61      0.00
  -16   13    6      5.16      0.00
  -16   13    5     -1.24      0.00
  -16   13    4      1.48      0.00
  -16   13    3      1.15      0.00
  -16   13    2      0.01      0.00
  -16   13    1     -1.28      0.00
   16   13    0     -2.12      0.00
   16   13    1      1.00      0.00
   16   13    2      0.65      0.00
   16   13    3     -0.14      0.00
   16   13    4      0.14      0.00
   16   13    5     -0.27      0.00
  -16   14    8      1.42      0.00
  -16   14    7     -0.27      0.00
  -16   14    6     -0.55      0.00
  -16   14    5      0.69      0.00
  -16   14    4      0.09      0.00
  -16   14    3     -1.16      0.00
  -16   14    2      3.53      0.00
  -16   14    1      0.13      0.00
   16   14    0      2.14      0.00
   16   14    1     -2.34      0.00
   16   14    2     -0.23      0.00
   16   14    3     -0.92      0.00
   16   14    4      0.93      0.00
  -16   15    6     -2.52      0.00
  -16   15    5      1.82      0.00
  -16   15    4     -0.75      0.00
  -16   15    3      2.26      0.00
  -16   15    2     -1.51      0.00
  -16   15    1      3.52      0.00
   16   15    0     -0.86      0.00
   16   15    1     -1.20      0.00
   16   15    2     -2.60      0.00
  -17    0   14      0.15      0.00
  -17    0   12      0.86      0.00
  -17    0   10      1.24      0.00
  -17    0    8     -0.81      0.00
  -17    0    6      5.86      0.00
  -17    0    4      7.90      0.00
  -17    0    2      6.89      0.00
   17    0    0      4.56      0.00
   17    0    2     20.58      0.00
   17    0    4     12.04      0.00
   17    0    6      3.80      0.00
   17    0    8     -0.54      0.00
   17    0   10      2.81      0.00
  -17    1   15     -1.17      0.00
  -17    1   14      1.70      0.00
  -17    1   13      2.20      0.00
  -17    1   12     -0.79      0.00
  -17    1   11      1.39      0.00
  -17    1   10     -0.84      0.00
  -17    1    9      0.20      0.00
  -17    1    8     -1.35      0.00
  -17    1    7      1.93      0.00
  -17    1    6      0.83      0.00
  -17    1    5      3.82      0.00
  -17    1    4     -4.00      0.00
  -17    1    3      4.15      0.00
  -17    1    2     -6.15      0.00
  -17    1    1     -0.52      0.00
   17    1    0      3.87      0.00
   17    1    1      5.82      0.00
   17    1    2     -2.75      0.00
   17    1    3      8.72      0.00
   17    1    4      6.03      0.00
   17    1    5      2.33      0.00
   17    1    6     -2.18      0.00
   17    1    7     -0.91      0.00
   17    1    8     -1.52      0.00
   17    1    9     -1.04      0.00
   17    1   10      0.40      0.00
   17    1   11      0.99      0.00
  -17    2   15     -0.62      0.00
  -17    2   14      1.36      0.00
  -17    2   13     -2.10      0.00
  -17    2   12      3.46      0.00
  -17    2   11     -1.01      0.00
  -17    2   10     -0.73      0.00
  -17    2    9     -1.46      0.00
  -17    2    8      2.57      0.00
  -17    2    7      0.47      0.00
  -17    2    6     -1.25      0.00
  -17    2    5      0.75      0.00
  -17    2    4      0.05      0.00
  -17    2    3     -2.15      0.00
  -17    2    2     -3.23      0.00
  -17    2    1     -1.35      0.00
   17    2    0      0.56      0.00
   17    2    1     -7.03      0.00
   17    2    2     -5.48      0.00
   17    2    3     -0.23      0.00
   17    2    4     -2.46      0.00
   17    2    5      3.39      0.00
   17    2    6     -1.62      0.00
   17    2    7     -2.65      0.00
   17    2    8     -1.24      0.00
   17    2    9     -1.32      0.00
   17    2   10     -2.44      0.00
   17    2   11      3.40      0.00
  -17    3   15     -0.09      0.00
  -17    3   14     -2.68      0.00
  -17    3   13      0.98      0.00
  -17    3   12     -1.25      0.00
  -17    3   11      0.34      0.00
  -17    3   10     -1.77      0.00
  -17    3    9      0.34      0.00
  -17    3    8      0.26      0.00
  -17    3    7      0.55      0.00
  -17    3    6     -0.08      0.00
  -17    3    5     -0.13      0.00
  -17    3    4     -0.05      0.00
  -17    3    3      0.04      0.00
  -17    3    2     -1.36      0.00
  -17    3    1      6.74      0.00
   17    3    0     -8.23      0.00
   17    3    1      2.56      0.00
   17    3    2     -1.91      0.00
   17    3    3     -4.77      0.00
   17    3    4     -0.09      0.00
   17    3    5      2.69      0.00
   17    3    6      5.59      0.00
   17    3    7      2.41      0.00
   17    3    8     -2.35      0.00
   17    3    9     -0.45      0.00
   17    3   10      2.10      0.00
  -17    4   15      1.87      0.00
  -17    4   14     -1.49      0.00
  -17    4   13     -0.44      0.00
  -17    4   12     -0.98      0.00
  -17    4   11      0.04      0.00
  -17    4   10      1.15      0.00
  -17    4    9     -0.62      0.00
  -17    4    8     -0.32      0.00
  -17    4    7     -0.24      0.00
  -17    4    6      2.32      0.00
  -17    4    5     -1.96      0.00
  -17    4    4     -0.44      0.00
  -17    4    3     -6.48      0.00
  -17    4    2      7.73      0.00
  -17    4    1      2.37      0.00
   17    4    0      7.08      0.00
   17    4    1      2.11      0.00
   17    4    2      1.64      0.00
   17    4    3     -0.16      0.00
   17    4    4      0.63      0.00
   17    4    5      4.32      0.00
   17    4    6      5.78      0.00
   17    4    7      3.90      0.00
   17    4    8      1.07      0.00
   17    4    9      0.66      0.00
   17    4   10     -2.78      0.00
  -17    5   14      1.29      0.00
  -17    5   13     -0.02      0.00
  -17    5   12      0.12      0.00
  -17    5   11      0.17      0.00
  -17    5   10      1.80      0.00
  -17    5    9      0.82      0.00
  -17    5    8     -0.36      0.00
  -17    5    7      1.46      0.00
  -17    5    6      0.07      0.00
  -17    5    5     -3.44      0.00
  -17    5    4     -3.43      0.00
  -17    5    3     -1.28      0.00
  -17    5    2      1.39      0.00
  -17    5    1      2.00      0.00
   17    5    0      4.27      0.00
   17    5    1     -3.45      0.00
   17    5    2     -0.17      0.00
   17    5    3     -1.35      0.00
   17    5    4      0.71      0.00
   17    5    5     -1.85      0.00
   17    5    6      1.11      0.00
   17    5    7      2.56      0.00
   17    5    8      2.13      0.00
   17    5    9     -4.28      0.00
   17    5   10     -0.10      0.00
  -17    6   14     -0.11      0.00
  -17    6   13      0.03      0.00
  -17    6   12      1.37      0.00
  -17    6   11     -0.73      0.00
  -17    6   10     -1.71      0.00
  -17    6    9      1.68      0.00
  -17    6    8      2.12      0.00
  -17    6    7     -0.85      0.00
  -17    6    6     -3.64      0.00
  -17    6    5     -1.02      0.00
  -17    6    4     -5.28      0.00
  -17    6    3      6.65      0.00
  -17    6    2     -2.77      0.00
  -17    6    1     -1.20      0.00
   17    6    0     -3.66      0.00
   17    6    1      1.09      0.00
   17    6    2     -2.80      0.00
   17    6    3     -0.90      0.00
   17    6    4     -3.34      0.00
   17    6    5     -2.45      0.00
   17    6    6     -1.98      0.00
   17    6    7     -1.19      0.00
   17    6    8     -0.86      0.00
   17    6    9     -0.31      0.00
   17    6   10     -2.66      0.00
  -17    7   13     -0.43      0.00
  -17    7   12     -1.31      0.00
  -17    7   11     -0.41      0.00
  -17    7   10     -0.39      0.00
  -17    7    9     -0.42      0.00
  -17    7    8     -0.16      0.00
  -17    7    7     -1.68      0.00
  -17    7    6     -3.53      0.00
  -17    7    5     -2.19      0.00
  -17    7    4      2.67      0.00
  -17    7    3     -0.83      0.00
  -17    7    2      1.36      0.00
  -17    7    1     -1.07      0.00
   17    7    0      1.73      0.00
   17    7    1      1.36      0.00
   17    7    2      3.14      0.00
   17    7    3      0.63      0.00
   17    7    4     -1.97      0.00
   17    7    5     -1.84      0.00
   17    7    6     -2.29      0.00
   17    7    7     -1.47      0.00
   17    7    8     -1.44      0.00
   17    7    9      0.02      0.00
  -17    8   13     -0.50      0.00
  -17    8   12     -1.68      0.00
  -17    8   11      1.80      0.00
  -17    8   10      1.49      0.00
  -17    8    9     -0.61      0.00
  -17    8    8     -3.52      0.00
  -17    8    7     -1.49      0.00
  -17    8    6     -1.16      0.00
  -17    8    5     -0.85      0.00
  -17    8    4      0.98      0.00
  -17    8    3     -1.78      0.00
  -17    8    2     -0.47      0.00
  -17    8    1     -0.68      0.00
   17    8    0     -0.37      0.00
   17    8    1      2.91      0.00
   17    8    2      0.57      0.00
   17    8    3      0.65      0.00
   17    8    4     -0.65      0.00
   17    8    5     -0.46      0.00
   17    8    6     -2.09      0.00
   17    8    7     -1.17      0.00
   17    8    8     -0.03      0.00
   17    8    9      1.41      0.00
  -17    9   12      1.97      0.00
  -17    9   11      0.53      0.00
  -17    9   10      1.72      0.00
  -17    9    9     -1.48      0.00
  -17    9    8     -1.42      0.00
  -17    9    7     -3.58      0.00
  -17    9    6      0.23      0.00
  -17    9    5      1.73      0.00
  -17    9    4     -2.24      0.00
  -17    9    3     -1.47      0.00
  -17    9    2     -0.99      0.00
  -17    9    1     -1.56      0.00
   17    9    0      1.47      0.00
   17    9    1     -3.53      0.00
   17    9    2     -2.20      0.00
   17    9    3     -1.59      0.00
   17    9    4      0.69      0.00
   17    9    5     -2.63      0.00
   17    9    6      0.00      0.00
   17    9    7     -0.10      0.00
   17    9    8      1.32      0.00
  -17   10   12      0.25      0.00
  -17   10   11      1.84      0.00
  -17   10   10     -0.25      0.00
  -17   10    9     -0.90      0.00
  -17   10    8     -0.77      0.00
  -17   10    7     -0.70      0.00
  -17   10    6      1.43      0.00
  -17   10    5     -3.12      0.00
  -17   10    4      0.66      0.00
  -17   10    3     -0.76      0.00
  -17   10    2     -0.70      0.00
  -17   10    1     -2.07      0.00
   17   10    0     -1.34      0.00
   17   10    1     -2.00      0.00
   17   10    2     -1.96      0.00
   17   10    3     -1.83      0.00
   17   10    4     -0.48      0.00
   17   10    5     -0.15      0.00
   17   10    6     -0.16      0.00
   17   10    7      1.31      0.00
  -17   11   11     -0.25      0.00
  -17   11   10      0.09      0.00
  -17   11    9      1.18      0.00
  -17   11    8      0.44      0.00
  -17   11    7      3.36      0.00
  -17   11    6     -2.26      0.00
  -17   11    5     -0.88      0.00
  -17   11    4     -1.47      0.00
  -17   11    3      0.05      0.00
  -17   11    2     -1.72      0.00
  -17   11    1     -0.40      0.00
   17   11    0      0.66      0.00
   17   11    1      0.90      0.00
   17   11    2     -0.79      0.00
   17   11    3     -1.02      0.00
   17   11    4     -1.46      0.00
   17   11    5      1.91      0.00
   17   11    6      0.96      0.00
   17   11    7      0.02      0.00
  -17   12   10     -0.48      0.00
  -17   12    9      1.19      0.00
  -17   12    8      2.50      0.00
  -17   12    7      0.21      0.00
  -17   12    6     -1.18      0.00
  -17   12    5      1.06      0.00
  -17   12    4     -2.93      0.00
  -17   12    3     -0.94      0.00
  -17   12    2     -1.55      0.00
  -17   12    1     -1.11      0.00
   17   12    0      0.34      0.00
   17   12    1      2.40      0.00
   17   12    2     -0.62      0.00
   17   12    3     -1.06      0.00
   17   12    4     -1.44      0.00
   17   12    5      0.73      0.00
   17   12    6      0.58      0.00
  -17   13    8      0.81      0.00
  -17   13    7     -1.00      0.00
  -17   13    6      0.09      0.00
  -17   13    5     -1.23      0.00
  -17   13    4      1.57      0.00
  -17   13    3     -2.41      0.00
  -17   13    2     -0.63      0.00
  -17   13    1      0.06      0.00
   17   13    0      1.70      0.00
   17   13    1     -1.28      0.00
   17   13    2      0.17      0.00
   17   13    3     -0.73      0.00
   17   13    4     -0.90      0.00
  -17   14    7     -0.96      0.00
  -17   14    6      0.65      0.00
  -17   14    5     -0.87      0.00
  -17   14    4      0.83      0.00
  -17   14    3      0.40      0.00
  -17   14    2      0.20      0.00
  -17   14    1     -1.53      0.00
   17   14    0     -0.72      0.00
   17   14    1     -1.40      0.00
   17   14    2      0.75      0.00
  -17   15    3      2.22      0.00
  -17   15    2     -2.04      0.00
  -17   15    1     -1.06      0.00
  -18    0   14     -0.68      0.00
  -18    0   12     -0.06      0.00
  -18    0   10      1.40      0.00
  -18    0    8      4.01      0.00
  -18    0    6      0.10      0.00
  -18    0    4      4.80      0.00
  -18    0    2      5.32      0.00
   18    0    0     14.60      0.00
   18    0    2      1.61      0.00
   18    0    4      6.11      0.00
   18    0    6      5.30      0.00
   18    0    8      0.54      0.00
   18    0   10      0.59      0.00
  -18    1   14      0.37      0.00
  -18    1   13      0.20      0.00
  -18    1   12      1.66      0.00
  -18    1   11      0.19      0.00
  -18    1   10     -1.03      0.00
  -18    1    9      2.22      0.00
  -18    1    8     -1.90      0.00
  -18    1    7      0.72      0.00
  -18    1    6      0.39      0.00
  -18    1    5     -1.05      0.00
  -18    1    4      3.32      0.00
  -18    1    3     -0.36      0.00
  -18    1    2      1.33      0.00
  -18    1    1      4.97      0.00
   18    1    0      4.30      0.00
   18    1    1      2.21      0.00
   18    1    2      5.59      0.00
   18    1    3     -2.33      0.00
   18    1    4     -3.37      0.00
   18    1    5      1.56      0.00
   18    1    6      0.56      0.00
   18    1    7      0.56      0.00
   18    1    8     -0.58      0.00
   18    1    9      0.28      0.00
   18    1   10     -0.33      0.00
  -18    2   14      1.12      0.00
  -18    2   13     -0.07      0.00
  -18    2   12      0.09      0.00
  -18    2   11      0.56      0.00
  -18    2   10     -0.11      0.00
  -18    2    9     -0.42      0.00
  -18    2    8     -0.78      0.00
  -18    2    7     -0.38      0.00
  -18    2    6     -0.44      0.00
  -18    2    5      2.53      0.00
  -18    2    4     -8.29      0.00
  -18    2    3      7.64      0.00
  -18    2    2     -1.16      0.00
  -18    2    1      2.44      0.00
   18    2    0     -5.82      0.00
   18    2    1      4.54      0.00
   18    2    2     -2.03      0.00
   18    2    3     -3.19      0.00
   18    2    4     -7.28      0.00
   18    2    5     -2.57      0.00
   18    2    6     -1.92      0.00
   18    2    7     -0.63      0.00
   18    2    8     -0.12      0.00
   18    2    9      1.58      0.00
   18    2   10      2.34      0.00
  -18    3   14     -0.15      0.00
  -18    3   13      0.40      0.00
  -18    3   12      0.89      0.00
  -18    3   11     -1.05      0.00
  -18    3   10      1.12      0.00
  -18    3    9     -1.49      0.00
  -18    3    8      2.03      0.00
  -18    3    7      0.51      0.00
  -18    3    6      0.21      0.00
  -18    3    5     -1.54      0.00
  -18    3    4      2.85      0.00
  -18    3    3     -1.39      0.00
  -18    3    2      6.61      0.00
  -18    3    1     -2.79      0.00
   18    3    0      1.32      0.00
   18    3    1      0.39      0.00
   18    3    2     -3.63      0.00
   18    3    3      1.07      0.00
   18    3    4      0.94      0.00
   18    3    5     -3.06      0.00
   18    3    6     -3.12      0.00
   18    3    7      0.63      0.00
   18    3    8      3.46      0.00
   18    3    9      1.19      0.00
   18    3   10      0.20      0.00
  -18    4   14     -1.43      0.00
  -18    4   13      2.89      0.00
  -18    4   12     -1.01      0.00
  -18    4   11      1.02      0.00
  -18    4   10     -0.58      0.00
  -18    4    9      2.39      0.00
  -18    4    8      0.08      0.00
  -18    4    7      1.67      0.00
  -18    4    6      0.47      0.00
  -18    4    5     -0.57      0.00
  -18    4    4      7.02      0.00
  -18    4    3      2.17      0.00
  -18    4    2     -2.09      0.00
  -18    4    1     -2.00      0.00
   18    4    0      2.06      0.00
   18    4    1     -3.76      0.00
   18    4    2      2.82      0.00
   18    4    3      4.05      0.00
   18    4    4      3.97      0.00
   18    4    5      0.70      0.00
   18    4    6     -1.39      0.00
   18    4    7      0.91      0.00
   18    4    8     -0.54      0.00
   18    4    9      1.77      0.00
  -18    5   14      1.19      0.00
  -18    5   13     -2.55      0.00
  -18    5   12      1.76      0.00
  -18    5   11      0.88      0.00
  -18    5   10      0.14      0.00
  -18    5    9     -0.34      0.00
  -18    5    8      2.10      0.00
  -18    5    7     -0.42      0.00
  -18    5    6     -0.50      0.00
  -18    5    5      3.89      0.00
  -18    5    4      3.81      0.00
  -18    5    3      1.55      0.00
  -18    5    2     -1.94      0.00
  -18    5    1     -2.56      0.00
   18    5    0     -4.08      0.00
   18    5    1      0.69      0.00
   18    5    2     -1.24      0.00
   18    5    3      0.75      0.00
   18    5    4      2.46      0.00
   18    5    5      2.07      0.00
   18    5    6      0.61      0.00
   18    5    7     -4.58      0.00
   18    5    8     -0.90      0.00
   18    5    9     -1.43      0.00
  -18    6   13      0.89      0.00
  -18    6   12     -0.06      0.00
  -18    6   11     -0.29      0.00
  -18    6   10      0.82      0.00
  -18    6    9     -0.15      0.00
  -18    6    8     -1.59      0.00
  -18    6    7      0.11      0.00
  -18    6    6      2.33      0.00
  -18    6    5      2.78      0.00
  -18    6    4     -1.88      0.00
  -18    6    3      0.29      0.00
  -18    6    2     -0.80      0.00
  -18    6    1      2.98      0.00
   18    6    0     -1.22      0.00
   18    6    1     -3.91      0.00
   18    6    2      0.17      0.00
   18    6    3     -2.76      0.00
   18    6    4      0.95      0.00
   18    6    5      2.19      0.00
   18    6    6     -0.33      0.00
   18    6    7     -2.18      0.00
   18    6    8     -2.19      0.00
   18    6    9     -0.71      0.00
  -18    7   13      1.43      0.00
  -18    7   12      0.59      0.00
  -18    7   11      0.95      0.00
  -18    7   10     -1.18      0.00
  -18    7    9     -1.00      0.00
  -18    7    8     -0.65      0.00
  -18    7    7      1.13      0.00
  -18    7    6      3.30      0.00
  -18    7    5     -0.61      0.00
  -18    7    4     -3.07      0.00
  -18    7    3     -0.93      0.00
  -18    7    2      0.13      0.00
  -18    7    1      1.26      0.00
   18    7    0     -0.84      0.00
   18    7    1     -0.23      0.00
   18    7    2     -2.06      0.00
   18    7    3      0.72      0.00
   18    7    4      1.16      0.00
   18    7    5     -0.23      0.00
   18    7    6      0.99      0.00
   18    7    7      1.04      0.00
   18    7    8     -0.57      0.00
  -18    8   12      2.26      0.00
  -18    8   11     -1.16      0.00
  -18    8   10     -1.77      0.00
  -18    8    9     -1.12      0.00
  -18    8    8      0.88      0.00
  -18    8    7      2.44      0.00
  -18    8    6     -2.14      0.00
  -18    8    5     -1.22      0.00
  -18    8    4     -0.23      0.00
  -18    8    3     -3.30      0.00
  -18    8    2      1.36      0.00
  -18    8    1     -1.35      0.00
   18    8    0      0.93      0.00
   18    8    1      0.73      0.00
   18    8    2     -1.23      0.00
   18    8    3      1.07      0.00
   18    8    4     -2.67      0.00
   18    8    5      1.33      0.00
   18    8    6     -0.99      0.00
   18    8    7      1.81      0.00
   18    8    8      1.05      0.00
  -18    9   12     -1.83      0.00
  -18    9   11     -1.10      0.00
  -18    9   10     -0.35      0.00
  -18    9    9     -0.25      0.00
  -18    9    8      1.56      0.00
  -18    9    7     -1.63      0.00
  -18    9    6     -2.00      0.00
  -18    9    5     -3.12      0.00
  -18    9    4      0.06      0.00
  -18    9    3      0.40      0.00
  -18    9    2     -2.13      0.00
  -18    9    1      0.94      0.00
   18    9    0      0.75      0.00
   18    9    1      0.67      0.00
   18    9    2      2.11      0.00
   18    9    3     -3.17      0.00
   18    9    4     -0.94      0.00
   18    9    5     -2.51      0.00
   18    9    6      1.38      0.00
   18    9    7     -0.61      0.00
  -18   10   11      0.01      0.00
  -18   10   10      1.18      0.00
  -18   10    9      3.27      0.00
  -18   10    8     -0.42      0.00
  -18   10    7     -3.34      0.00
  -18   10    6     -0.35      0.00
  -18   10    5     -0.79      0.00
  -18   10    4     -1.62      0.00
  -18   10    3      1.09      0.00
  -18   10    2      0.87      0.00
  -18   10    1     -0.88      0.00
   18   10    0      0.61      0.00
   18   10    1      2.54      0.00
   18   10    2      0.44      0.00
   18   10    3      0.99      0.00
   18   10    4     -0.43      0.00
   18   10    5     -0.83      0.00
   18   10    6      0.22      0.00
  -18   11   10      3.09      0.00
  -18   11    9      1.19      0.00
  -18   11    8     -1.83      0.00
  -18   11    7      0.26      0.00
  -18   11    6     -2.48      0.00
  -18   11    5      1.93      0.00
  -18   11    4      0.20      0.00
  -18   11    3     -1.20      0.00
  -18   11    2      0.71      0.00
  -18   11    1     -0.01      0.00
   18   11    0      2.52      0.00
   18   11    1     -0.52      0.00
   18   11    2      1.83      0.00
   18   11    3      1.65      0.00
   18   11    4      1.67      0.00
   18   11    5      1.25      0.00
  -18   12    9     -1.10      0.00
  -18   12    8     -3.08      0.00
  -18   12    7     -1.77      0.00
  -18   12    6      0.27      0.00
  -18   12    5      0.36      0.00
  -18   12    4     -0.25      0.00
  -18   12    3     -0.29      0.00
  -18   12    2     -2.37      0.00
  -18   12    1     -1.75      0.00
   18   12    0     -2.20      0.00
   18   12    1      0.39      0.00
   18   12    2     -0.27      0.00
   18   12    3      2.91      0.00
   18   12    4      0.53      0.00
  -18   13    7     -3.88      0.00
  -18   13    6      1.61      0.00
  -18   13    5     -2.68      0.00
  -18   13    4      0.94      0.00
  -18   13    3     -1.43      0.00
  -18   13    2     -2.78      0.00
  -18   13    1     -2.02      0.00
   18   13    0     -0.45      0.00
   18   13    1     -1.87      0.00
   18   13    2      1.70      0.00
   18   13    3     -0.39      0.00
  -18   14    5      1.96      0.00
  -18   14    4     -2.67      0.00
  -18   14    3     -2.01      0.00
  -18   14    2      0.01      0.00
  -18   14    1     -2.00      0.00
   18   14    0      0.65      0.00
  -19    0   14     -1.75      0.00
  -19    0   12     -0.84      0.00
  -19    0   10     -1.17      0.00
  -19    0    8     -0.81      0.00
  -19    0    6      2.43      0.00
  -19    0    4     -1.39      0.00
  -19    0    2      1.88      0.00
   19    0    0      1.59      0.00
   19    0    2     12.14      0.00
   19    0    4      3.35      0.00
   19    0    6      2.77      0.00
   19    0    8     -0.76      0.00
  -19    1   14      2.73      0.00
  -19    1   13      0.12      0.00
  -19    1   12      2.74      0.00
  -19    1   11     -0.61      0.00
  -19    1   10      0.50      0.00
  -19    1    9     -1.52      0.00
  -19    1    8      0.36      0.00
  -19    1    7      0.47      0.00
  -19    1    6     -1.14      0.00
  -19    1    5     -0.74      0.00
  -19    1    4      1.53      0.00
  -19    1    3     -1.17      0.00
  -19    1    2     -2.30      0.00
  -19    1    1     -1.51      0.00
   19    1    0      1.30      0.00
   19    1    1      1.63      0.00
   19    1    2     -1.46      0.00
   19    1    3      2.73      0.00
   19    1    4      3.13      0.00
   19    1    5      0.21      0.00
   19    1    6     -2.00      0.00
   19    1    7     -1.35      0.00
   19    1    8     -0.82      0.00
   19    1    9     -0.21      0.00
  -19    2   14     -0.07      0.00
  -19    2   13     -0.27      0.00
  -19    2   12      1.26      0.00
  -19    2   11     -0.01      0.00
  -19    2   10     -1.98      0.00
  -19    2    9      1.59      0.00
  -19    2    8     -1.46      0.00
  -19    2    7      0.01      0.00
  -19    2    6     -2.83      0.00
  -19    2    5      0.59      0.00
  -19    2    4     -1.12      0.00
  -19    2    3      1.58      0.00
  -19    2    2     -4.69      0.00
  -19    2    1      1.57      0.00
   19    2    0     -0.32      0.00
   19    2    1     -5.10      0.00
   19    2    2     -8.30      0.00
   19    2    3     -1.13      0.00
   19    2    4     -0.53      0.00
   19    2    5      0.41      0.00
   19    2    6     -3.66      0.00
   19    2    7     -3.09      0.00
   19    2    8     -0.48      0.00
   19    2    9     -4.33      0.00
  -19    3   14     -1.22      0.00
  -19    3   13     -0.53      0.00
  -19    3   12     -1.76      0.00
  -19    3   11     -0.25      0.00
  -19    3   10      0.67      0.00
  -19    3    9     -1.84      0.00
  -19    3    8      0.71      0.00
  -19    3    7     -3.34      0.00
  -19    3    6      1.13      0.00
  -19    3    5     -0.48      0.00
  -19    3    4     -1.54      0.00
  -19    3    3     -2.08      0.00
  -19    3    2      0.74      0.00
  -19    3    1      3.32      0.00
   19    3    0     -6.32      0.00
   19    3    1     -1.27      0.00
   19    3    2     -3.28      0.00
   19    3    3     -3.87      0.00
   19    3    4     -2.65      0.00
   19    3    5      1.27      0.00
   19    3    6      2.16      0.00
   19    3    7      0.62      0.00
   19    3    8     -5.16      0.00
   19    3    9     -0.88      0.00
  -19    4   13      0.97      0.00
  -19    4   12     -1.25      0.00
  -19    4   11      1.31      0.00
  -19    4   10      0.73      0.00
  -19    4    9     -0.38      0.00
  -19    4    8     -0.30      0.00
  -19    4    7      0.43      0.00
  -19    4    6      0.92      0.00
  -19    4    5     -0.88      0.00
  -19    4    4     -0.87      0.00
  -19    4    3     -5.99      0.00
  -19    4    2      5.82      0.00
  -19    4    1      0.74      0.00
   19    4    0      2.10      0.00
   19    4    1      1.09      0.00
   19    4    2      0.87      0.00
   19    4    3     -2.89      0.00
   19    4    4     -1.03      0.00
   19    4    5      1.66      0.00
   19    4    6      4.73      0.00
   19    4    7      0.63      0.00
   19    4    8     -0.01      0.00
   19    4    9     -0.78      0.00
  -19    5   13      0.56      0.00
  -19    5   12      0.74      0.00
  -19    5   11     -0.74      0.00
  -19    5   10      0.16      0.00
  -19    5    9      1.50      0.00
  -19    5    8      0.21      0.00
  -19    5    7      3.74      0.00
  -19    5    6     -0.77      0.00
  -19    5    5     -1.95      0.00
  -19    5    4     -1.55      0.00
  -19    5    3      2.42      0.00
  -19    5    2      0.50      0.00
  -19    5    1      1.79      0.00
   19    5    0      3.95      0.00
   19    5    1     -1.90      0.00
   19    5    2     -1.14      0.00
   19    5    3     -1.61      0.00
   19    5    4     -0.53      0.00
   19    5    5     -0.89      0.00
   19    5    6     -0.29      0.00
   19    5    7      3.38      0.00
   19    5    8      1.68      0.00
  -19    6   13     -2.67      0.00
  -19    6   12      0.88      0.00
  -19    6   11     -2.74      0.00
  -19    6   10     -1.54      0.00
  -19    6    9      1.26      0.00
  -19    6    8      2.99      0.00
  -19    6    7     -0.73      0.00
  -19    6    6     -1.07      0.00
  -19    6    5     -0.65      0.00
  -19    6    4     -0.17      0.00
  -19    6    3      7.48      0.00
  -19    6    2     -0.33      0.00
  -19    6    1      0.74      0.00
   19    6    0     -0.51      0.00
   19    6    1     -1.43      0.00
   19    6    2     -1.45      0.00
   19    6    3     -1.20      0.00
   19    6    4     -1.97      0.00
   19    6    5     -2.57      0.00
   19    6    6      0.30      0.00
   19    6    7      0.65      0.00
   19    6    8      0.55      0.00
  -19    7   12     -4.40      0.00
  -19    7   11      0.65      0.00
  -19    7   10      1.90      0.00
  -19    7    9      1.63      0.00
  -19    7    8     -1.49      0.00
  -19    7    7     -0.78      0.00
  -19    7    6     -0.54      0.00
  -19    7    5      0.74      0.00
  -19    7    4      3.44      0.00
  -19    7    3      0.79      0.00
  -19    7    2      3.06      0.00
  -19    7    1      0.65      0.00
   19    7    0     -1.76      0.00
   19    7    1      1.65      0.00
   19    7    2      1.06      0.00
   19    7    3      1.25      0.00
   19    7    4     -1.60      0.00
   19    7    5     -1.25      0.00
   19    7    6     -0.55      0.00
   19    7    7     -0.39      0.00
  -19    8   12      0.12      0.00
  -19    8   11      3.64      0.00
  -19    8   10      3.07      0.00
  -19    8    9      0.48      0.00
  -19    8    8     -0.08      0.00
  -19    8    7     -1.66      0.00
  -19    8    6     -0.31      0.00
  -19    8    5      2.38      0.00
  -19    8    4      0.58      0.00
  -19    8    3     -1.70      0.00
  -19    8    2      1.48      0.00
  -19    8    1      0.58      0.00
   19    8    0      0.52      0.00
   19    8    1      2.38      0.00
   19    8    2      1.80      0.00
   19    8    3      0.88      0.00
   19    8    4     -0.07      0.00
   19    8    5      0.34      0.00
   19    8    6     -3.48      0.00
   19    8    7      0.13      0.00
  -19    9   11      0.65      0.00
  -19    9   10      3.47      0.00
  -19    9    9     -0.03      0.00
  -19    9    8     -0.92      0.00
  -19    9    7     -1.05      0.00
  -19    9    6      0.81      0.00
  -19    9    5     -1.24      0.00
  -19    9    4     -0.39      0.00
  -19    9    3      0.26      0.00
  -19    9    2     -0.32      0.00
  -19    9    1     -0.21      0.00
   19    9    0      0.95      0.00
   19    9    1     -0.45      0.00
   19    9    2     -0.77      0.00
   19    9    3      0.85      0.00
   19    9    4      1.05      0.00
   19    9    5     -2.40      0.00
   19    9    6      1.89      0.00
  -19   10   10     -0.18      0.00
  -19   10    9      0.90      0.00
  -19   10    8      0.86      0.00
  -19   10    7      0.41      0.00
  -19   10    6      0.05      0.00
  -19   10    5     -2.10      0.00
  -19   10    4      1.28      0.00
  -19   10    3      1.41      0.00
  -19   10    2     -0.08      0.00
  -19   10    1     -0.71      0.00
   19   10    0     -0.07      0.00
   19   10    1     -2.95      0.00
   19   10    2     -0.21      0.00
   19   10    3     -1.21      0.00
   19   10    4      1.03      0.00
   19   10    5      2.38      0.00
  -19   11    9      2.50      0.00
  -19   11    8      1.52      0.00
  -19   11    7      2.64      0.00
  -19   11    6     -0.65      0.00
  -19   11    5      1.48      0.00
  -19   11    4     -0.22      0.00
  -19   11    3      1.20      0.00
  -19   11    2     -0.68      0.00
  -19   11    1     -0.38      0.00
   19   11    0     -0.79      0.00
   19   11    1      0.46      0.00
   19   11    2     -2.27      0.00
   19   11    3     -0.35      0.00
   19   11    4      0.45      0.00
  -19   12    7      1.00      0.00
  -19   12    6     -1.18      0.00
  -19   12    5      3.05      0.00
  -19   12    4     -0.27      0.00
  -19   12    3     -0.91      0.00
  -19   12    2     -0.05      0.00
  -19   12    1      0.02      0.00
   19   12    0      0.25      0.00
   19   12    1      0.54      0.00
   19   12    2      0.66      0.00
   19   12    3     -0.84      0.00
  -19   13    5     -2.49      0.00
  -19   13    4      3.07      0.00
  -19   13    3      0.48      0.00
  -19   13    2      0.01      0.00
  -19   13    1      1.99      0.00
   19   13    0      0.26      0.00
  -20    0   12     -1.97      0.00
  -20    0   10     -1.45      0.00
  -20    0    8      0.80      0.00
  -20    0    6     -2.12      0.00
  -20    0    4      2.68      0.00
  -20    0    2      0.46      0.00
   20    0    0      9.49      0.00
   20    0    2      0.39      0.00
   20    0    4      3.32      0.00
   20    0    6      4.26      0.00
   20    0    8      0.25      0.00
  -20    1   13      0.77      0.00
  -20    1   12      1.42      0.00
  -20    1   11     -1.01      0.00
  -20    1   10     -0.52      0.00
  -20    1    9     -0.19      0.00
  -20    1    8     -3.94      0.00
  -20    1    7     -1.09      0.00
  -20    1    6      0.42      0.00
  -20    1    5     -1.71      0.00
  -20    1    4     -1.44      0.00
  -20    1    3     -0.91      0.00
  -20    1    2      0.35      0.00
  -20    1    1      2.00      0.00
   20    1    0      4.85      0.00
   20    1    1      1.67      0.00
   20    1    2      2.90      0.00
   20    1    3     -2.00      0.00
   20    1    4     -1.41      0.00
   20    1    5      1.47      0.00
   20    1    6      0.74      0.00
   20    1    7      0.28      0.00
   20    1    8     -0.88      0.00
  -20    2   13     -2.08      0.00
  -20    2   12      2.06      0.00
  -20    2   11     -1.42      0.00
  -20    2   10     -0.82      0.00
  -20    2    9     -2.75      0.00
  -20    2    8     -1.79      0.00
  -20    2    7     -0.24      0.00
  -20    2    6     -1.11      0.00
  -20    2    5      0.69      0.00
  -20    2    4     -6.16      0.00
  -20    2    3      2.05      0.00
  -20    2    2     -0.11      0.00
  -20    2    1      1.05      0.00
   20    2    0     -5.39      0.00
   20    2    1      3.21      0.00
   20    2    2      0.58      0.00
   20    2    3     -2.91      0.00
   20    2    4     -5.99      0.00
   20    2    5     -0.75      0.00
   20    2    6      0.08      0.00
   20    2    7     -1.46      0.00
   20    2    8     -3.10      0.00
  -20    3   13      2.86      0.00
  -20    3   12     -2.73      0.00
  -20    3   11     -1.66      0.00
  -20    3   10     -2.49      0.00
  -20    3    9     -2.06      0.00
  -20    3    8      0.70      0.00
  -20    3    7     -0.15      0.00
  -20    3    6     -0.69      0.00
  -20    3    5     -1.96      0.00
  -20    3    4      1.66      0.00
  -20    3    3      0.42      0.00
  -20    3    2      0.45      0.00
  -20    3    1     -3.29      0.00
   20    3    0     -0.22      0.00
   20    3    1      2.04      0.00
   20    3    2     -1.99      0.00
   20    3    3      0.66      0.00
   20    3    4     -0.28      0.00
   20    3    5     -2.64      0.00
   20    3    6     -1.79      0.00
   20    3    7      0.77      0.00
   20    3    8      1.69      0.00
  -20    4   13     -2.37      0.00
  -20    4   12     -1.60      0.00
  -20    4   11     -0.15      0.00
  -20    4   10     -2.94      0.00
  -20    4    9      0.78      0.00
  -20    4    8      0.59      0.00
  -20    4    7     -0.71      0.00
  -20    4    6     -0.03      0.00
  -20    4    5     -1.24      0.00
  -20    4    4      5.73      0.00
  -20    4    3     -1.35      0.00
  -20    4    2     -1.38      0.00
  -20    4    1     -4.08      0.00
   20    4    0      2.71      0.00
   20    4    1     -2.64      0.00
   20    4    2      2.24      0.00
   20    4    3      3.57      0.00
   20    4    4      3.13      0.00
   20    4    5     -0.76      0.00
   20    4    6     -1.79      0.00
   20    4    7      1.60      0.00
   20    4    8      1.06      0.00
  -20    5   12     -0.32      0.00
  -20    5   11      0.81      0.00
  -20    5   10      1.83      0.00
  -20    5    9     -1.55      0.00
  -20    5    8      1.04      0.00
  -20    5    7      0.18      0.00
  -20    5    6     -0.02      0.00
  -20    5    5      2.90      0.00
  -20    5    4     -1.06      0.00
  -20    5    3     -0.77      0.00
  -20    5    2     -2.35      0.00
  -20    5    1     -0.60      0.00
   20    5    0     -0.50      0.00
   20    5    1     -0.47      0.00
   20    5    2     -0.24      0.00
   20    5    3      2.02      0.00
   20    5    4      2.21      0.00
   20    5    5      1.55      0.00
   20    5    6     -0.63      0.00
   20    5    7     -3.21      0.00
  -20    6   12      2.02      0.00
  -20    6   11      0.53      0.00
  -20    6   10      1.58      0.00
  -20    6    9     -0.58      0.00
  -20    6    8     -3.06      0.00
  -20    6    7      2.45      0.00
  -20    6    6      2.48      0.00
  -20    6    5      0.18      0.00
  -20    6    4     -3.43      0.00
  -20    6    3     -0.84      0.00
  -20    6    2     -0.78      0.00
  -20    6    1      1.24      0.00
   20    6    0     -2.35      0.00
   20    6    1     -1.08      0.00
   20    6    2      1.27      0.00
   20    6    3     -1.23      0.00
   20    6    4      2.03      0.00
   20    6    5      1.92      0.00
   20    6    6     -0.33      0.00
   20    6    7     -3.58      0.00
  -20    7   11      0.84      0.00
  -20    7   10     -2.19      0.00
  -20    7    9     -1.44      0.00
  -20    7    8     -0.10      0.00
  -20    7    7      0.09      0.00
  -20    7    6      2.11      0.00
  -20    7    5     -0.45      0.00
  -20    7    4     -1.05      0.00
  -20    7    3     -0.09      0.00
  -20    7    2     -1.46      0.00
  -20    7    1      1.13      0.00
   20    7    0     -0.15      0.00
   20    7    1      0.01      0.00
   20    7    2     -0.21      0.00
   20    7    3      2.92      0.00
   20    7    4      1.96      0.00
   20    7    5      0.55      0.00
   20    7    6     -0.12      0.00
  -20    8   11      0.23      0.00
  -20    8   10     -1.85      0.00
  -20    8    9     -0.76      0.00
  -20    8    8      0.06      0.00
  -20    8    7      1.43      0.00
  -20    8    6     -1.60      0.00
  -20    8    5      0.27      0.00
  -20    8    4      0.22      0.00
  -20    8    3     -2.75      0.00
  -20    8    2      1.36      0.00
  -20    8    1     -1.92      0.00
   20    8    0      1.59      0.00
   20    8    1      0.67      0.00
   20    8    2     -0.41      0.00
   20    8    3      2.47      0.00
   20    8    4      0.45      0.00
   20    8    5      1.16      0.00
   20    8    6      0.52      0.00
  -20    9   10     -0.36      0.00
  -20    9    9     -0.10      0.00
  -20    9    8      1.27      0.00
  -20    9    7     -2.13      0.00
  -20    9    6     -1.50      0.00
  -20    9    5     -0.70      0.00
  -20    9    4     -2.08      0.00
  -20    9    3     -0.52      0.00
  -20    9    2     -1.47      0.00
  -20    9    1      1.27      0.00
   20    9    0      0.21      0.00
   20    9    1      0.13      0.00
   20    9    2      1.92      0.00
   20    9    3     -1.69      0.00
   20    9    4     -0.40      0.00
   20    9    5      1.26      0.00
  -20   10    9      0.10      0.00
  -20   10    8     -2.06      0.00
  -20   10    7     -2.08      0.00
  -20   10    6      0.67      0.00
  -20   10    5     -3.39      0.00
  -20   10    4      0.83      0.00
  -20   10    3     -0.38      0.00
  -20   10    2      1.44      0.00
  -20   10    1      0.97      0.00
   20   10    0      0.69      0.00
   20   10    1      1.54      0.00
   20   10    2      0.51      0.00
   20   10    3     -0.90      0.00
   20   10    4      0.78      0.00
  -20   11    7     -0.75      0.00
  -20   11    6     -1.17      0.00
  -20   11    5      2.43      0.00
  -20   11    4     -0.64      0.00
  -20   11    3      1.31      0.00
  -20   11    2      0.47      0.00
  -20   11    1      0.17      0.00
   20   11    0      2.60      0.00
   20   11    1      0.75      0.00
   20   11    2     -0.18      0.00
  -20   12    5      1.24      0.00
  -20   12    4      0.67      0.00
  -20   12    3     -0.52      0.00
  -20   12    2     -1.48      0.00
  -20   12    1     -4.48      0.00
   20   12    0     -1.42      0.00
  -21    0   12     -1.47      0.00
  -21    0   10     -1.86      0.00
  -21    0    8      1.39      0.00
  -21    0    6      2.35      0.00
  -21    0    4      1.54      0.00
  -21    0    2      3.34      0.00
   21    0    0      3.14      0.00
   21    0    2     11.90      0.00
   21    0    4      0.98      0.00
   21    0    6      1.81      0.00
  -21    1   12      1.27      0.00
  -21    1   11     -1.00      0.00
  -21    1   10      2.38      0.00
  -21    1    9     -0.45      0.00
  -21    1    8      1.53      0.00
  -21    1    7      0.52      0.00
  -21    1    6     -2.61      0.00
  -21    1    5      0.50      0.00
  -21    1    4      1.11      0.00
  -21    1    3      0.78      0.00
  -21    1    2     -1.24      0.00
  -21    1    1      1.29      0.00
   21    1    0     -0.91      0.00
   21    1    1      3.05      0.00
   21    1    2      0.77      0.00
   21    1    3      1.36      0.00
   21    1    4      2.67      0.00
   21    1    5      0.13      0.00
   21    1    6     -1.29      0.00
   21    1    7     -1.31      0.00
  -21    2   12      1.55      0.00
  -21    2   11     -0.27      0.00
  -21    2   10      0.12      0.00
  -21    2    9      3.25      0.00
  -21    2    8     -1.73      0.00
  -21    2    7      0.69      0.00
  -21    2    6     -2.54      0.00
  -21    2    5     -0.72      0.00
  -21    2    4     -0.37      0.00
  -21    2    3      0.64      0.00
  -21    2    2     -2.00      0.00
  -21    2    1      1.72      0.00
   21    2    0      2.24      0.00
   21    2    1     -4.58      0.00
   21    2    2     -8.34      0.00
   21    2    3      0.98      0.00
   21    2    4      0.57      0.00
   21    2    5      0.65      0.00
   21    2    6     -2.65      0.00
   21    2    7     -1.02      0.00
  -21    3   12     -0.54      0.00
  -21    3   11      0.66      0.00
  -21    3   10      1.39      0.00
  -21    3    9     -0.78      0.00
  -21    3    8      2.69      0.00
  -21    3    7     -3.09      0.00
  -21    3    6      1.13      0.00
  -21    3    5     -1.20      0.00
  -21    3    4     -2.56      0.00
  -21    3    3     -0.68      0.00
  -21    3    2     -0.53      0.00
  -21    3    1      2.39      0.00
   21    3    0     -3.02      0.00
   21    3    1     -1.84      0.00
   21    3    2     -3.79      0.00
   21    3    3     -2.43      0.00
   21    3    4     -0.41      0.00
   21    3    5      1.61      0.00
   21    3    6      0.56      0.00
   21    3    7      0.72      0.00
  -21    4   12     -0.52      0.00
  -21    4   11      2.06      0.00
  -21    4   10     -1.52      0.00
  -21    4    9      1.19      0.00
  -21    4    8     -0.03      0.00
  -21    4    7      1.29      0.00
  -21    4    6     -0.40      0.00
  -21    4    5     -1.23      0.00
  -21    4    4     -0.41      0.00
  -21    4    3     -4.41      0.00
  -21    4    2      2.96      0.00
  -21    4    1     -2.53      0.00
   21    4    0     -0.22      0.00
   21    4    1      1.34      0.00
   21    4    2      1.48      0.00
   21    4    3     -2.78      0.00
   21    4    4      0.16      0.00
   21    4    5      1.42      0.00
   21    4    6      3.57      0.00
  -21    5   11     -1.95      0.00
  -21    5   10     -1.65      0.00
  -21    5    9     -0.49      0.00
  -21    5    8      0.58      0.00
  -21    5    7      2.45      0.00
  -21    5    6     -0.97      0.00
  -21    5    5     -1.09      0.00
  -21    5    4     -1.36      0.00
  -21    5    3      0.46      0.00
  -21    5    2     -1.20      0.00
  -21    5    1     -0.72      0.00
   21    5    0      4.73      0.00
   21    5    1      0.55      0.00
   21    5    2     -1.27      0.00
   21    5    3     -0.48      0.00
   21    5    4      0.09      0.00
   21    5    5      0.24      0.00
   21    5    6     -0.44      0.00
  -21    6   11     -2.44      0.00
  -21    6   10     -0.40      0.00
  -21    6    9     -0.57      0.00
  -21    6    8      1.70      0.00
  -21    6    7     -0.83      0.00
  -21    6    6     -0.94      0.00
  -21    6    5     -2.16      0.00
  -21    6    4     -0.42      0.00
  -21    6    3      2.28      0.00
  -21    6    2     -3.11      0.00
  -21    6    1     -0.60      0.00
   21    6    0      0.75      0.00
   21    6    1     -0.94      0.00
   21    6    2      0.72      0.00
   21    6    3     -1.62      0.00
   21    6    4     -0.83      0.00
   21    6    5     -1.13      0.00
   21    6    6      0.39      0.00
  -21    7   10      2.44      0.00
  -21    7    9      1.62      0.00
  -21    7    8     -1.17      0.00
  -21    7    7     -1.34      0.00
  -21    7    6     -1.70      0.00
  -21    7    5     -0.08      0.00
  -21    7    4     -0.46      0.00
  -21    7    3     -1.43      0.00
  -21    7    2      0.12      0.00
  -21    7    1     -0.97      0.00
   21    7    0     -1.36      0.00
   21    7    1      1.74      0.00
   21    7    2      0.07      0.00
   21    7    3      1.72      0.00
   21    7    4     -2.18      0.00
   21    7    5     -0.50      0.00
  -21    8    9      2.13      0.00
  -21    8    8     -0.17      0.00
  -21    8    7     -1.94      0.00
  -21    8    6      0.53      0.00
  -21    8    5      0.84      0.00
  -21    8    4     -1.35      0.00
  -21    8    3     -2.71      0.00
  -21    8    2      0.14      0.00
  -21    8    1     -0.73      0.00
   21    8    0     -0.24      0.00
   21    8    1      2.08      0.00
   21    8    2      1.81      0.00
   21    8    3     -0.31      0.00
   21    8    4     -0.53      0.00
  -21    9    8      0.57      0.00
  -21    9    7      1.37      0.00
  -21    9    6      0.10      0.00
  -21    9    5     -2.08      0.00
  -21    9    4     -1.17      0.00
  -21    9    3     -0.58      0.00
  -21    9    2     -2.10      0.00
  -21    9    1     -0.15      0.00
   21    9    0      2.01      0.00
   21    9    1      0.86      0.00
   21    9    2      0.46      0.00
   21    9    3     -1.02      0.00
  -21   10    7      0.19      0.00
  -21   10    6     -1.81      0.00
  -21   10    5     -1.35      0.00
  -21   10    4     -0.90      0.00
  -21   10    3     -0.04      0.00
  -21   10    2      0.72      0.00
  -21   10    1     -1.13      0.00
   21   10    0      1.50      0.00
   21   10    1     -0.71      0.00
   21   10    2     -0.89      0.00
  -21   11    5     -1.12      0.00
  -21   11    4      1.88      0.00
  -21   11    3      0.91      0.00
  -21   11    2      0.12      0.00
  -21   11    1      1.80      0.00
   21   11    0     -0.50      0.00
  -22    0   10      0.54      0.00
  -22    0    8      1.04      0.00
  -22    0    6     -1.14      0.00
  -22    0    4      3.60      0.00
  -22    0    2      0.77      0.00
   22    0    0      0.23      0.00
   22    0    2     -3.51      0.00
   22    0    4      4.23      0.00
   22    0    6      2.41      0.00
  -22    1   11      0.95      0.00
  -22    1   10      2.11      0.00
  -22    1    9      1.27      0.00
  -22    1    8     -3.49      0.00
  -22    1    7     -0.94      0.00
  -22    1    6      0.60      0.00
  -22    1    5      0.19      0.00
  -22    1    4     -1.45      0.00
  -22    1    3      0.89      0.00
  -22    1    2      0.22      0.00
  -22    1    1      0.41      0.00
   22    1    0      1.56      0.00
   22    1    1     -3.71      0.00
   22    1    2     -2.83      0.00
   22    1    3     -1.90      0.00
   22    1    4     -1.19      0.00
   22    1    5      2.18      0.00
   22    1    6      2.39      0.00
  -22    2   11     -0.03      0.00
  -22    2   10      1.28      0.00
  -22    2    9     -2.50      0.00
  -22    2    8     -0.76      0.00
  -22    2    7     -1.72      0.00
  -22    2    6     -0.58      0.00
  -22    2    5      1.23      0.00
  -22    2    4     -3.22      0.00
  -22    2    3      0.49      0.00
  -22    2    2      0.94      0.00
  -22    2    1      0.68      0.00
   22    2    0     -3.15      0.00
   22    2    1     -1.44      0.00
   22    2    2     -2.00      0.00
   22    2    3     -4.74      0.00
   22    2    4     -4.85      0.00
   22    2    5      1.96      0.00
   22    2    6      1.40      0.00
  -22    3   11     -1.17      0.00
  -22    3   10     -2.48      0.00
  -22    3    9     -0.30      0.00
  -22    3    8      0.53      0.00
  -22    3    7      0.40      0.00
  -22    3    6     -1.89      0.00
  -22    3    5     -2.01      0.00
  -22    3    4      1.81      0.00
  -22    3    3      0.61      0.00
  -22    3    2     -0.18      0.00
  -22    3    1     -0.37      0.00
   22    3    0     -2.10      0.00
   22    3    1      1.81      0.00
   22    3    2     -2.14      0.00
   22    3    3     -2.22      0.00
   22    3    4     -0.88      0.00
   22    3    5     -2.71      0.00
  -22    4   11      0.60      0.00
  -22    4   10     -1.01      0.00
  -22    4    9      1.69      0.00
  -22    4    8      0.61      0.00
  -22    4    7     -0.73      0.00
  -22    4    6      0.27      0.00
  -22    4    5     -2.79      0.00
  -22    4    4      2.92      0.00
  -22    4    3     -0.28      0.00
  -22    4    2      1.05      0.00
  -22    4    1     -1.04      0.00
   22    4    0      3.10      0.00
   22    4    1     -1.05      0.00
   22    4    2      0.81      0.00
   22    4    3      1.53      0.00
   22    4    4     -0.47      0.00
   22    4    5     -2.07      0.00
  -22    5   10      2.36      0.00
  -22    5    9     -1.08      0.00
  -22    5    8     -1.12      0.00
  -22    5    7     -1.27      0.00
  -22    5    6      0.35      0.00
  -22    5    5      3.07      0.00
  -22    5    4     -2.50      0.00
  -22    5    3     -0.33      0.00
  -22    5    2      0.62      0.00
  -22    5    1      0.57      0.00
   22    5    0      1.95      0.00
   22    5    1     -0.71      0.00
   22    5    2     -0.62      0.00
   22    5    3      0.29      0.00
   22    5    4     -0.94      0.00
   22    5    5      0.11      0.00
  -22    6   10      0.78      0.00
  -22    6    9     -2.62      0.00
  -22    6    8     -4.13      0.00
  -22    6    7      1.32      0.00
  -22    6    6      0.81      0.00
  -22    6    5      0.84      0.00
  -22    6    4     -1.38      0.00
  -22    6    3      0.07      0.00
  -22    6    2     -1.82      0.00
  -22    6    1     -0.95      0.00
   22    6    0     -2.78      0.00
   22    6    1     -0.56      0.00
   22    6    2      0.41      0.00
   22    6    3     -2.98      0.00
   22    6    4      0.25      0.00
  -22    7    9     -2.53      0.00
  -22    7    8     -1.26      0.00
  -22    7    7     -1.05      0.00
  -22    7    6      0.65      0.00
  -22    7    5     -1.20      0.00
  -22    7    4      0.92      0.00
  -22    7    3     -1.46      0.00
  -22    7    2     -3.11      0.00
  -22    7    1     -0.39      0.00
   22    7    0      0.15      0.00
   22    7    1     -0.75      0.00
   22    7    2     -1.59      0.00
   22    7    3      1.59      0.00
  -22    8    8     -0.91      0.00
  -22    8    7     -0.99      0.00
  -22    8    6     -1.10      0.00
  -22    8    5      0.53      0.00
  -22    8    4     -1.57      0.00
  -22    8    3     -1.87      0.00
  -22    8    2     -0.32      0.00
  -22    8    1     -3.68      0.00
   22    8    0      1.21      0.00
   22    8    1     -0.19      0.00
   22    8    2     -1.31      0.00
  -22    9    7     -1.26      0.00
  -22    9    6      0.15      0.00
  -22    9    5     -0.02      0.00
  -22    9    4     -1.24      0.00
  -22    9    3     -1.87      0.00
  -22    9    2     -2.87      0.00
  -22    9    1     -0.17      0.00
   22    9    0      1.29      0.00
   22    9    1     -0.89      0.00
  -22   10    4      0.46      0.00
  -22   10    3     -3.33      0.00
  -22   10    2     -0.76      0.00
  -22   10    1      0.26      0.00
  -23    0   10     -1.08      0.00
  -23    0    8      4.29      0.00
  -23    0    6      2.68      0.00
  -23    0    4      0.81      0.00
  -23    0    2      3.65      0.00
   23    0    0     -4.06      0.00
   23    0    2      2.67      0.00
   23    0    4     -1.62      0.00
  -23    1   10      3.15      0.00
  -23    1    9      2.26      0.00
  -23    1    8      2.91      0.00
  -23    1    7      2.12      0.00
  -23    1    6     -3.50      0.00
  -23    1    5      0.40      0.00
  -23    1    4      1.55      0.00
  -23    1    3      1.66      0.00
  -23    1    2     -2.36      0.00
  -23    1    1     -0.53      0.00
   23    1    0      1.45      0.00
   23    1    1     -0.55      0.00
   23    1    2      1.36      0.00
   23    1    3     -2.36      0.00
   23    1    4     -0.76      0.00
  -23    2   10      3.95      0.00
  -23    2    9      2.43      0.00
  -23    2    8     -0.22      0.00
  -23    2    7     -0.06      0.00
  -23    2    6     -1.58      0.00
  -23    2    5     -0.59      0.00
  -23    2    4      0.50      0.00
  -23    2    3      2.40      0.00
  -23    2    2     -3.08      0.00
  -23    2    1     -2.66      0.00
   23    2    0      3.06      0.00
   23    2    1     -1.18      0.00
   23    2    2     -4.24      0.00
   23    2    3     -1.56      0.00
   23    2    4     -1.02      0.00
  -23    3   10     -1.16      0.00
  -23    3    9      0.22      0.00
  -23    3    8      1.14      0.00
  -23    3    7     -1.34      0.00
  -23    3    6      2.24      0.00
  -23    3    5     -1.00      0.00
  -23    3    4     -0.34      0.00
  -23    3    3     -1.76      0.00
  -23    3    2     -0.86      0.00
  -23    3    1     -0.43      0.00
   23    3    0      1.03      0.00
   23    3    1      1.97      0.00
   23    3    2     -3.63      0.00
   23    3    3     -0.87      0.00
   23    3    4     -2.54      0.00
  -23    4    9     -0.19      0.00
  -23    4    8      1.14      0.00
  -23    4    7      3.47      0.00
  -23    4    6     -0.37      0.00
  -23    4    5      1.68      0.00
  -23    4    4     -1.27      0.00
  -23    4    3     -2.41      0.00
  -23    4    2      0.81      0.00
  -23    4    1     -0.61      0.00
   23    4    0      0.59      0.00
   23    4    1      0.57      0.00
   23    4    2      2.22      0.00
   23    4    3     -1.95      0.00
  -23    5    9      0.09      0.00
  -23    5    8      1.46      0.00
  -23    5    7      1.67      0.00
  -23    5    6      1.86      0.00
  -23    5    5     -2.26      0.00
  -23    5    4      2.60      0.00
  -23    5    3     -0.07      0.00
  -23    5    2      1.93      0.00
  -23    5    1      0.44      0.00
   23    5    0      0.32      0.00
   23    5    1      0.48      0.00
   23    5    2      0.14      0.00
   23    5    3     -1.70      0.00
  -23    6    8      1.71      0.00
  -23    6    7     -0.36      0.00
  -23    6    6     -0.90      0.00
  -23    6    5      1.95      0.00
  -23    6    4     -1.21      0.00
  -23    6    3      3.93      0.00
  -23    6    2     -2.40      0.00
  -23    6    1      0.79      0.00
   23    6    0     -1.22      0.00
   23    6    1     -0.58      0.00
   23    6    2     -1.56      0.00
  -23    7    7      0.07      0.00
  -23    7    6     -0.23      0.00
  -23    7    5      0.68      0.00
  -23    7    4      0.07      0.00
  -23    7    3     -3.13      0.00
  -23    7    2     -1.54      0.00
  -23    7    1     -3.70      0.00
   23    7    0     -0.32      0.00
   23    7    1     -2.37      0.00
  -23    8    5     -1.56      0.00
  -23    8    4     -2.48      0.00
  -23    8    3     -3.87      0.00
  -23    8    2     -3.17      0.00
  -23    8    1     -1.32      0.00
   23    8    0     -3.87      0.00
  -24    0    8     -1.72      0.00
  -24    0    6      2.64      0.00
  -24    0    4      1.86      0.00
  -24    0    2      2.64      0.00
   24    0    0      7.39      0.00
   24    0    2     -4.47      0.00
  -24    1    8      0.70      0.00
  -24    1    7     -0.82      0.00
  -24    1    6      1.45      0.00
  -24    1    5      1.29      0.00
  -24    1    4     -1.47      0.00
  -24    1    3     -0.51      0.00
  -24    1    2      1.65      0.00
  -24    1    1      5.47      0.00
   24    1    0      3.71      0.00
   24    1    1     -0.20      0.00
   24    1    2     -0.65      0.00
  -24    2    8      0.88      0.00
  -24    2    7      0.25      0.00
  -24    2    6     -3.24      0.00
  -24    2    5      0.98      0.00
  -24    2    4     -1.45      0.00
  -24    2    3      2.37      0.00
  -24    2    2      1.08      0.00
  -24    2    1      0.48      0.00
   24    2    0     -0.02      0.00
   24    2    1      3.19      0.00
   24    2    2     -1.90      0.00
  -24    3    8      0.39      0.00
  -24    3    7     -1.42      0.00
  -24    3    6      0.45      0.00
  -24    3    5     -3.83      0.00
  -24    3    4      2.87      0.00
  -24    3    3      0.86      0.00
  -24    3    2     -0.41      0.00
  -24    3    1     -2.16      0.00
   24    3    0      0.46      0.00
   24    3    1      0.18      0.00
   24    3    2     -0.34      0.00
  -24    4    7      0.93      0.00
  -24    4    6     -1.36      0.00
  -24    4    5      0.62      0.00
  -24    4    4     -2.15      0.00
  -24    4    3     -2.32      0.00
  -24    4    2     -1.82      0.00
  -24    4    1     -2.32      0.00
   24    4    0     -0.69      0.00
   24    4    1     -2.21      0.00
  -24    5    7     -2.05      0.00
  -24    5    6      0.35      0.00
  -24    5    5     -0.33      0.00
  -24    5    4     -3.37      0.00
  -24    5    3     -3.31      0.00
  -24    5    2      0.61      0.00
  -24    5    1      0.11      0.00
   24    5    0     -0.81      0.00
   24    5    1      1.67      0.00
  -24    6    5     -2.40      0.00
  -24    6    4      1.27      0.00
  -24    6    3      2.27      0.00
  -24    6    2      0.47      0.00
  -24    6    1      3.68      0.00
  -25    0    6      3.23      0.00
  -25    0    4      3.15      0.00
  -25    0    2      0.21      0.00
   25    0    0     -5.13      0.00
  -25    1    6      2.74      0.00
  -25    1    5      1.87      0.00
  -25    1    4      1.58      0.00
  -25    1    3      0.61      0.00
  -25    1    2     -4.38      0.00
  -25    1    1     -2.71      0.00
   25    1    0     -1.52      0.00
  -25    2    6      0.39      0.00
  -25    2    5      1.65      0.00
  -25    2    4     -1.87      0.00
  -25    2    3     -1.01      0.00
  -25    2    2     -1.65      0.00
  -25    2    1     -0.78      0.00
  -25    3    5     -1.48      0.00
  -25    3    4      0.52      0.00
  -25    3    3     -0.42      0.00
  -25    3    2      0.18      0.00
  -25    3    1      1.12      0.00
    1    0    0     25.40      0.00
    2    0    0    161.73      0.00
    4    0    0     98.60      0.00
    7    0    0     38.01      0.00
   26    0    0      4.32      0.00
    1    1    0    -93.54      0.00
   26    1    0      4.84      0.00
    0    2    0     -3.71      0.00
   25    2    0      1.57      0.00
   25    3    0     -0.09      0.00
   25    4    0     -1.33      0.00
   25    5    0      1.76      0.00
   24    6    0      1.46      0.00
   25    6    0      0.69      0.00
   24    7    0     -2.36      0.00
   24    8    0      1.30      0.00
   23    9    0      0.99      0.00
   22   10    0     -0.87      0.00
   22   11    0     -0.30      0.00
   21   12    0     -0.94      0.00
   20   13    0      0.92      0.00
   19   14    0      0.85      0.00
   17   15    0      0.69      0.00
   18   15    0      2.43      0.00
   16   16    0     -0.73      0.00
   17   16    0     -0.04      0.00
   14   17    0      1.70      0.00
   15   17    0      0.57      0.00
   12   18    0     -0.30      0.00
   13   18    0      1.13      0.00
    9   19    0     -1.54      0.00
   10   19    0     -1.87      0.00
   11   19    0      0.55      0.00
    5   20    0     -0.22      0.00
    6   20    0      0.83      0.00
    7   20    0      1.63      0.00
    8   20    0      0.17      0.00
    1   21    0      1.29      0.00
    2   21    0      1.83      0.00
    3   21    0      1.97      0.00
  -26    1    1      2.20      0.00
   -2    1    1     11.41      0.00
    0    1    1    240.30      0.00
   25    1    1      0.03      0.00
  -26    2    1     -1.16      0.00
   25    2    1     -2.46      0.00
  -26    3    1     -1.49      0.00
    0    3    1    -15.80      0.00
   25    3    1     -0.93      0.00
  -25    4    1     -1.76      0.00
   25    4    1      1.79      0.00
  -25    5    1     -1.45      0.00
   25    5    1      0.77      0.00
  -25    6    1     -0.64      0.00
   24    6    1     -2.42      0.00
  -24    7    1      1.50      0.00
   24    7    1     -0.06      0.00
  -24    8    1     -0.42      0.00
   23    8    1      0.17      0.00
  -23    9    1     -3.13      0.00
   23    9    1     -0.47      0.00
  -23   10    1     -0.94      0.00
   22   10    1     -0.19      0.00
  -22   11    1     -0.39      0.00
   21   11    1     -0.23      0.00
  -21   12    1     -0.39      0.00
   20   12    1      0.83      0.00
   21   12    1      0.07      0.00
  -20   13    1     -1.56      0.00
   19   13    1      0.63      0.00
   20   13    1     -1.05      0.00
  -19   14    1     -0.35      0.00
   18   14    1      0.81      0.00
   19   14    1      0.04      0.00
  -18   15    1      1.40      0.00
   17   15    1      1.48      0.00
   18   15    1      0.97      0.00
  -17   16    1     -1.72      0.00
  -16   16    1     -0.73      0.00
   16   16    1     -0.65      0.00
  -15   17    1     -0.60      0.00
  -14   17    1     -0.65      0.00
   14   17    1     -0.76      0.00
   15   17    1     -2.04      0.00
  -13   18    1      1.73      0.00
  -12   18    1     -0.21      0.00
   12   18    1      0.72      0.00
   13   18    1      0.04      0.00
  -11   19    1      0.65      0.00
  -10   19    1      0.36      0.00
    9   19    1      0.86      0.00
   10   19    1     -1.06      0.00
   11   19    1      0.15      0.00
   -8   20    1      2.04      0.00
   -7   20    1      0.80      0.00
   -6   20    1     -1.99      0.00
   -5   20    1     -0.72      0.00
    4   20    1     -0.81      0.00
    5   20    1      0.22      0.00
    6   20    1     -0.48      0.00
    7   20    1     -0.34      0.00
    8   20    1     -1.03      0.00
   -3   21    1     -1.89      0.00
   -2   21    1      0.86      0.00
   -1   21    1      0.60      0.00
    0   21    1     -2.68      0.00
    1   21    1      0.35      0.00
    2   21    1     -1.10      0.00
  -26    0    2      3.13      0.00
   -1    0    2     27.28      0.00
    1    0    2    100.21      0.00
   25    0    2      0.95      0.00
  -26    1    2      1.15      0.00
   25    1    2      0.82      0.00
  -26    2    2     -1.93      0.00
   -1    2    2     17.90      0.00
    1    2    2    -66.24      0.00
   25    2    2     -0.55      0.00
  -26    3    2     -1.68      0.00
   25    3    2     -0.20      0.00
  -25    4    2      1.38      0.00
   24    4    2      2.78      0.00
  -25    5    2     -1.27      0.00
   24    5    2     -2.81      0.00
  -25    6    2     -2.38      0.00
   24    6    2      0.28      0.00
  -24    7    2      2.19      0.00
   23    7    2     -1.20      0.00
  -24    8    2      0.39      0.00
   23    8    2      0.58      0.00
  -23    9    2     -1.94      0.00
   22    9    2     -0.23      0.00
  -23   10    2     -0.83      0.00
   22   10    2     -1.06      0.00
  -22   11    2     -0.03      0.00
   21   11    2     -0.39      0.00
  -21   12    2      0.19      0.00
   20   12    2      1.27      0.00
  -20   13    2     -3.56      0.00
   19   13    2      0.48      0.00
  -19   14    2      2.86      0.00
   18   14    2     -1.30      0.00
  -18   15    2     -2.57      0.00
   17   15    2     -2.56      0.00
  -17   16    2      0.58      0.00
  -16   16    2      1.80      0.00
   15   16    2      0.01      0.00
   16   16    2     -2.17      0.00
  -15   17    2     -2.39      0.00
  -14   17    2      2.01      0.00
   13   17    2      1.14      0.00
   14   17    2      1.16      0.00
  -13   18    2      0.30      0.00
  -12   18    2     -0.86      0.00
   11   18    2     -1.05      0.00
   12   18    2     -0.23      0.00
  -11   19    2      0.48      0.00
  -10   19    2      0.61      0.00
   -9   19    2      0.95      0.00
    8   19    2     -0.26      0.00
    9   19    2     -1.65      0.00
   10   19    2      0.05      0.00
   -8   20    2      0.27      0.00
   -7   20    2     -0.51      0.00
   -6   20    2      1.39      0.00
   -5   20    2     -0.67      0.00
   -4   20    2      0.24      0.00
    3   20    2      0.13      0.00
    4   20    2      1.36      0.00
    5   20    2     -1.46      0.00
    6   20    2     -0.44      0.00
    7   20    2     -0.11      0.00
   -2   21    2     -2.09      0.00
   -1   21    2     -1.28      0.00
    0   21    2     -1.51      0.00
    1   21    2      0.32      0.00
  -26    1    3      0.10      0.00
   24    1    3     -3.87      0.00
  -26    2    3      1.70      0.00
   24    2    3     -2.29      0.00
  -26    3    3     -1.07      0.00
   -1    3    3     21.85      0.00
    0    3    3     54.77      0.00
    1    3    3    -36.49      0.00
   24    3    3      0.11      0.00
  -26    4    3     -2.07      0.00
  -25    4    3      0.03      0.00
   24    4    3     -0.82      0.00
  -25    5    3     -0.77      0.00
   24    5    3      1.62      0.00
  -25    6    3     -0.98      0.00
   23    6    3     -1.00      0.00
  -25    7    3     -1.12      0.00
  -24    7    3      3.16      0.00
   23    7    3      1.22      0.00
  -24    8    3      0.64      0.00
   22    8    3      0.41      0.00
   23    8    3     -1.04      0.00
  -23    9    3     -1.56      0.00
   22    9    3     -1.94      0.00
  -23   10    3     -1.67      0.00
   21   10    3      0.38      0.00
  -22   11    3      0.38      0.00
   20   11    3      1.99      0.00
   21   11    3      0.24      0.00
  -21   12    3      1.15      0.00
   20   12    3      0.92      0.00
  -20   13    3     -0.80      0.00
   19   13    3     -0.09      0.00
  -19   14    3      1.98      0.00
   17   14    3     -2.16      0.00
   18   14    3      0.05      0.00
  -18   15    3     -1.04      0.00
   16   15    3     -0.68      0.00
   17   15    3      0.20      0.00
  -17   16    3     -1.52      0.00
  -16   16    3     -0.37      0.00
   15   16    3      0.57      0.00
  -15   17    3     -0.02      0.00
  -14   17    3      2.36      0.00
   13   17    3      3.32      0.00
   14   17    3     -1.87      0.00
  -13   18    3     -0.62      0.00
  -12   18    3      2.05      0.00
   11   18    3      0.77      0.00
   12   18    3      1.79      0.00
  -11   19    3     -1.60      0.00
  -10   19    3      0.59      0.00
   -9   19    3     -2.32      0.00
    8   19    3      0.36      0.00
    9   19    3      2.39      0.00
   -8   20    3      2.11      0.00
   -7   20    3      0.36      0.00
   -6   20    3      0.06      0.00
   -5   20    3      0.67      0.00
   -4   20    3     -0.48      0.00
   -3   20    3     -0.90      0.00
    1   20    3     -1.82      0.00
    2   20    3     -0.62      0.00
    3   20    3     -2.12      0.00
    4   20    3     -0.95      0.00
    5   20    3      0.30      0.00
    6   20    3     -2.76      0.00
  -26    0    4     -0.57      0.00
   -8    0    4     11.57      0.00
   24    0    4      0.51      0.00
  -26    1    4      2.18      0.00
   24    1    4     -1.19      0.00
  -26    2    4     -0.73      0.00
   24    2    4     -3.73      0.00
  -26    3    4     -0.24      0.00
   24    3    4     -1.38      0.00
  -25    4    4      1.27      0.00
   23    4    4     -1.97      0.00
   24    4    4      1.61      0.00
  -25    5    4     -0.47      0.00
   23    5    4      0.75      0.00
  -25    6    4     -1.67      0.00
   23    6    4      0.19      0.00
  -24    7    4      1.34      0.00
   22    7    4     -0.46      0.00
   23    7    4     -1.72      0.00
  -24    8    4      2.18      0.00
   22    8    4     -0.13      0.00
  -23    9    4     -3.54      0.00
   21    9    4      0.02      0.00
  -23   10    4      0.28      0.00
   21   10    4     -0.08      0.00
  -22   11    4     -3.22      0.00
   20   11    4     -0.72      0.00
  -21   12    4     -0.67      0.00
   19   12    4     -2.50      0.00
  -20   13    4      1.24      0.00
   18   13    4      0.54      0.00
  -19   14    4     -0.26      0.00
   17   14    4     -0.66      0.00
  -18   15    4      0.22      0.00
  -17   15    4     -0.76      0.00
   16   15    4      0.19      0.00
  -17   16    4      1.88      0.00
  -16   16    4      2.60      0.00
   14   16    4     -1.46      0.00
   15   16    4      0.42      0.00
  -15   17    4     -1.91      0.00
  -14   17    4      0.90      0.00
   12   17    4      2.58      0.00
   13   17    4      1.54      0.00
  -13   18    4     -0.95      0.00
  -12   18    4     -0.55      0.00
   10   18    4     -1.99      0.00
   11   18    4      0.82      0.00
  -11   19    4     -0.42      0.00
  -10   19    4      2.67      0.00
   -9   19    4      1.89      0.00
   -8   19    4      1.17      0.00
    6   19    4     -2.34      0.00
    7   19    4     -1.16      0.00
    8   19    4     -1.44      0.00
    9   19    4     -1.25      0.00
   -7   20    4      0.23      0.00
   -6   20    4      1.26      0.00
   -5   20    4     -0.94      0.00
   -4   20    4     -0.55      0.00
   -3   20    4      1.26      0.00
   -2   20    4      1.23      0.00
   -1   20    4      0.45      0.00
    0   20    4      1.00      0.00
    1   20    4     -0.61      0.00
    2   20    4      0.84      0.00
    3   20    4      0.00      0.00
    4   20    4      1.79      0.00
    5   20    4     -0.34      0.00
  -26    1    5     -1.54      0.00
   23    1    5      0.42      0.00
  -26    2    5      1.18      0.00
   23    2    5     -2.73      0.00
  -26    3    5     -1.03      0.00
   23    3    5     -1.23      0.00
  -25    4    5      1.86      0.00
   23    4    5      0.69      0.00
  -25    5    5      1.36      0.00
   -2    5    5     26.67      0.00
   23    5    5     -1.20      0.00
  -25    6    5     -1.65      0.00
   22    6    5     -0.59      0.00
  -24    7    5      2.36      0.00
   22    7    5     -0.93      0.00
  -24    8    5      0.45      0.00
   21    8    5      0.01      0.00
  -23    9    5     -0.94      0.00
   21    9    5     -1.73      0.00
  -23   10    5     -2.12      0.00
  -22   10    5     -2.04      0.00
   20   10    5     -1.79      0.00
  -22   11    5      0.75      0.00
   19   11    5     -0.57      0.00
  -21   12    5      3.24      0.00
   18   12    5     -0.51      0.00
   19   12    5      1.16      0.00
  -20   13    5     -0.90      0.00
   17   13    5     -2.36      0.00
   18   13    5      0.14      0.00
  -19   14    5      1.35      0.00
   16   14    5     -0.50      0.00
   17   14    5     -0.49      0.00
  -18   15    5     -1.83      0.00
  -17   15    5      1.78      0.00
   15   15    5      0.21      0.00
  -16   16    5     -0.83      0.00
   13   16    5      0.09      0.00
   14   16    5      0.63      0.00
  -15   17    5      0.28      0.00
  -14   17    5      0.43      0.00
   11   17    5     -2.21      0.00
   12   17    5     -0.55      0.00
  -13   18    5     -0.94      0.00
  -12   18    5      2.92      0.00
  -11   18    5      0.55      0.00
    9   18    5      0.54      0.00
   10   18    5      1.70      0.00
  -10   19    5      2.52      0.00
   -9   19    5      0.54      0.00
   -8   19    5     -0.05      0.00
   -7   19    5      2.98      0.00
    5   19    5     -2.51      0.00
    6   19    5     -0.02      0.00
    7   19    5     -2.11      0.00
   -6   20    5      0.32      0.00
   -5   20    5      0.74      0.00
   -4   20    5     -1.01      0.00
   -3   20    5      0.42      0.00
   -2   20    5     -0.74      0.00
   -1   20    5      1.38      0.00
    0   20    5      0.61      0.00
    1   20    5      1.08      0.00
    2   20    5     -1.43      0.00
    3   20    5     -0.19      0.00
  -26    0    6     -3.90      0.00
   23    0    6      3.68      0.00
  -26    1    6      0.53      0.00
   23    1    6     -1.41      0.00
  -26    2    6     -0.61      0.00
   23    2    6     -1.90      0.00
  -25    3    6      2.63      0.00
   22    3    6      0.92      0.00
  -25    4    6      1.35      0.00
   22    4    6     -0.49      0.00
  -25    5    6     -0.19      0.00
   22    5    6     -1.94      0.00
  -25    6    6     -0.14      0.00
  -24    6    6     -0.90      0.00
   22    6    6     -0.20      0.00
  -24    7    6     -0.94      0.00
   21    7    6      0.63      0.00
  -24    8    6      1.15      0.00
  -23    8    6      1.73      0.00
   21    8    6     -1.33      0.00
  -23    9    6     -1.56      0.00
   20    9    6     -0.17      0.00
  -22   10    6      0.61      0.00
   19   10    6     -1.77      0.00
  -22   11    6     -1.17      0.00
  -21   11    6     -0.61      0.00
   18   11    6     -1.12      0.00
   19   11    6      1.92      0.00
  -21   12    6     -0.78      0.00
  -20   12    6     -0.52      0.00
   18   12    6      0.34      0.00
  -20   13    6      0.50      0.00
  -19   13    6      2.23      0.00
   16   13    6     -0.83      0.00
   17   13    6      0.78      0.00
  -19   14    6     -1.04      0.00
  -18   14    6     -3.33      0.00
   15   14    6     -1.05      0.00
   16   14    6      0.58      0.00
  -17   15    6     -0.66      0.00
   14   15    6     -1.29      0.00
  -16   16    6      1.89      0.00
  -15   16    6      3.45      0.00
   12   16    6      1.94      0.00
   13   16    6     -0.69      0.00
  -14   17    6     -0.77      0.00
  -13   17    6      1.11      0.00
   10   17    6      0.03      0.00
   11   17    6     -0.48      0.00
  -12   18    6     -1.40      0.00
  -11   18    6      1.04      0.00
  -10   18    6      0.96      0.00
    7   18    6     -1.97      0.00
    8   18    6     -0.03      0.00
    9   18    6     -1.96      0.00
   -9   19    6      2.23      0.00
   -8   19    6     -1.37      0.00
   -7   19    6      0.56      0.00
   -6   19    6     -0.73      0.00
   -5   19    6      0.51      0.00
    2   19    6     -0.83      0.00
    3   19    6      1.36      0.00
    4   19    6     -1.65      0.00
    5   19    6      1.70      0.00
    6   19    6      0.78      0.00
   -3   20    6      3.50      0.00
   -2   20    6     -0.48      0.00
   -1   20    6      1.76      0.00
    0   20    6      0.63      0.00
  -25    1    7      2.50      0.00
   22    1    7      1.11      0.00
  -25    2    7      3.48      0.00
   22    2    7      0.81      0.00
  -25    3    7      0.80      0.00
   22    3    7      0.92      0.00
  -25    4    7      2.05      0.00
   21    4    7     -0.97      0.00
   22    4    7      1.46      0.00
  -25    5    7      0.71      0.00
   21    5    7      1.60      0.00
  -24    6    7      0.20      0.00
   21    6    7      0.10      0.00
  -24    7    7     -1.35      0.00
   20    7    7      0.22      0.00
  -23    8    7     -0.53      0.00
   20    8    7     -0.71      0.00
  -23    9    7      0.45      0.00
   19    9    7     -2.61      0.00
  -22   10    7      0.23      0.00
   18   10    7      0.75      0.00
   19   10    7      2.14      0.00
  -21   11    7     -0.54      0.00
   18   11    7      1.24      0.00
  -20   12    7      0.87      0.00
   17   12    7      0.88      0.00
  -19   13    7     -2.55      0.00
   15   13    7     -2.04      0.00
   16   13    7      0.09      0.00
  -18   14    7      0.19      0.00
   14   14    7     -1.43      0.00
   15   14    7      1.31      0.00
  -17   15    7      1.20      0.00
  -16   15    7      3.12      0.00
   13   15    7     -1.23      0.00
  -15   16    7      0.62      0.00
  -14   16    7      1.22      0.00
   11   16    7      0.47      0.00
   12   16    7     -0.64      0.00
  -13   17    7     -0.32      0.00
  -12   17    7     -0.77      0.00
    9   17    7      1.75      0.00
   10   17    7      0.30      0.00
  -11   18    7     -0.06      0.00
  -10   18    7      0.12      0.00
   -9   18    7      2.30      0.00
    5   18    7      0.32      0.00
    6   18    7      0.93      0.00
    7   18    7      0.11      0.00
    8   18    7      1.26      0.00
   -8   19    7     -0.55      0.00
   -7   19    7      1.59      0.00
   -6   19    7      1.84      0.00
   -5   19    7      1.13      0.00
   -4   19    7      1.93      0.00
   -3   19    7      3.71      0.00
   -2   19    7      1.37      0.00
   -1   19    7     -0.09      0.00
    0   19    7      1.41      0.00
    1   19    7      1.19      0.00
    2   19    7      0.09      0.00
    3   19    7      0.64      0.00
    4   19    7      0.00      0.00
  -25    0    8      1.85      0.00
   21    0    8     -1.47      0.00
  -25    1    8      2.75      0.00
   21    1    8      0.27      0.00
  -25    2    8      1.92      0.00
   21    2    8      0.57      0.00
  -25    3    8      2.44      0.00
   21    3    8     -1.21      0.00
  -25    4    8     -0.21      0.00
  -24    4    8     -1.83      0.00
   21    4    8     -0.20      0.00
  -24    5    8     -0.29      0.00
   20    5    8     -0.63      0.00
  -24    6    8     -1.87      0.00
   20    6    8     -1.70      0.00
  -23    7    8     -0.31      0.00
   19    7    8      0.43      0.00
   20    7    8     -2.42      0.00
  -23    8    8     -1.45      0.00
   19    8    8     -0.18      0.00
  -22    9    8     -0.54      0.00
   18    9    8      1.67      0.00
  -22   10    8     -0.15      0.00
  -21   10    8      1.46      0.00
   17   10    8      0.39      0.00
   18   10    8      0.70      0.00
  -21   11    8     -0.11      0.00
  -20   11    8     -0.93      0.00
   17   11    8      0.86      0.00
  -20   12    8     -0.89      0.00
  -19   12    8      1.49      0.00
   16   12    8     -0.18      0.00
  -19   13    8     -0.11      0.00
  -18   13    8     -1.27      0.00
   14   13    8     -1.11      0.00
   15   13    8      0.33      0.00
  -18   14    8     -1.86      0.00
  -17   14    8      1.09      0.00
   13   14    8      0.60      0.00
   14   14    8      0.65      0.00
  -16   15    8     -1.91      0.00
  -15   15    8     -0.20      0.00
   11   15    8      0.75      0.00
   12   15    8     -0.50      0.00
  -15   16    8      1.93      0.00
  -14   16    8      1.25      0.00
  -13   16    8      0.70      0.00
    9   16    8      1.43      0.00
   10   16    8     -0.64      0.00
   11   16    8      0.03      0.00
  -12   17    8     -0.69      0.00
  -11   17    8      1.59      0.00
    7   17    8     -1.32      0.00
    8   17    8      1.67      0.00
    9   17    8      1.15      0.00
  -10   18    8     -0.14      0.00
   -9   18    8      1.23      0.00
   -8   18    8      0.35      0.00
   -7   18    8      2.04      0.00
   -6   18    8      0.56      0.00
    2   18    8      0.49      0.00
    3   18    8     -0.54      0.00
    4   18    8      1.26      0.00
    5   18    8     -0.63      0.00
    6   18    8      0.53      0.00
   -5   19    8      0.19      0.00
   -4   19    8     -1.32      0.00
   -3   19    8     -0.74      0.00
   -2   19    8     -0.86      0.00
   -1   19    8     -0.63      0.00
    0   19    8     -0.87      0.00
    1   19    8      0.71      0.00
  -25    1    9      1.67      0.00
  -24    1    9      0.09      0.00
   20    1    9     -2.45      0.00
  -25    2    9      1.47      0.00
  -24    2    9     -0.20      0.00
   20    2    9      0.41      0.00
  -24    3    9      0.23      0.00
   20    3    9     -0.02      0.00
  -24    4    9      1.30      0.00
   20    4    9      1.07      0.00
  -24    5    9     -0.97      0.00
   19    5    9     -2.91      0.00
  -23    6    9      0.37      0.00
   19    6    9      0.61      0.00
  -23    7    9      0.95      0.00
   18    7    9      0.51      0.00
   19    7    9      0.62      0.00
  -22    8    9     -1.54      0.00
   18    8    9      1.32      0.00
  -22    9    9     -0.13      0.00
  -21    9    9      0.42      0.00
   17    9    9      0.61      0.00
  -21   10    9      1.96      0.00
   16   10    9     -1.80      0.00
   17   10    9      1.02      0.00
  -20   11    9     -0.11      0.00
   15   11    9     -0.94      0.00
   16   11    9      0.65      0.00
  -19   12    9      1.09      0.00
   14   12    9      1.42      0.00
   15   12    9      0.30      0.00
  -18   13    9     -3.37      0.00
  -17   13    9      1.03      0.00
   13   13    9      0.70      0.00
   14   13    9      0.46      0.00
  -17   14    9      1.63      0.00
  -16   14    9     -2.41      0.00
   12   14    9     -1.23      0.00
  -15   15    9      2.06      0.00
  -14   15    9      0.43      0.00
   10   15    9     -2.16      0.00
   11   15    9      1.39      0.00
  -13   16    9     -0.94      0.00
  -12   16    9     -2.31      0.00
    7   16    9      0.22      0.00
    8   16    9      2.72      0.00
    9   16    9     -0.75      0.00
  -11   17    9      0.14      0.00
  -10   17    9      0.38      0.00
   -9   17    9      1.39      0.00
    4   17    9      0.84      0.00
    5   17    9     -0.32      0.00
    6   17    9     -0.79      0.00
    7   17    9     -0.03      0.00
   -8   18    9      0.41      0.00
   -7   18    9      2.14      0.00
   -6   18    9      0.34      0.00
   -5   18    9      1.93      0.00
   -4   18    9     -0.08      0.00
   -3   18    9     -1.25      0.00
   -2   18    9      1.01      0.00
   -1   18    9      2.11      0.00
    0   18    9     -0.83      0.00
    1   18    9      1.61      0.00
    2   18    9      0.45      0.00
    3   18    9     -0.28      0.00
  -24    0   10     -1.70      0.00
   19    0   10      0.44      0.00
  -24    1   10      0.34      0.00
   19    1   10     -1.49      0.00
  -24    2   10      1.56      0.00
   19    2   10     -0.85      0.00
  -24    3   10      0.44      0.00
   19    3   10     -1.64      0.00
  -24    4   10     -1.16      0.00
  -23    4   10     -2.22      0.00
   18    4   10     -0.66      0.00
   19    4   10     -2.50      0.00
  -23    5   10     -0.46      0.00
   18    5   10      0.81      0.00
  -23    6   10      0.45      0.00
   18    6   10      0.29      0.00
  -22    7   10     -1.97      0.00
   17    7   10      0.62      0.00
  -22    8   10     -1.32      0.00
  -21    8   10      1.04      0.00
   17    8   10      0.45      0.00
  -21    9   10      2.16      0.00
   16    9   10     -1.27      0.00
  -20   10   10      1.23      0.00
   15   10   10     -0.52      0.00
  -19   11   10      1.15      0.00
   14   11   10      0.36      0.00
   15   11   10      1.09      0.00
  -18   12   10      0.95      0.00
   13   12   10     -0.08      0.00
   14   12   10      1.18      0.00
  -17   13   10      1.04      0.00
  -16   13   10     -2.76      0.00
   12   13   10     -0.85      0.00
  -16   14   10     -0.58      0.00
  -15   14   10      1.54      0.00
   10   14   10     -1.20      0.00
   11   14   10      1.51      0.00
  -14   15   10     -1.90      0.00
  -13   15   10     -0.55      0.00
    8   15   10      2.39      0.00
    9   15   10     -1.84      0.00
  -12   16   10     -0.68      0.00
  -11   16   10      0.28      0.00
  -10   16   10      1.98      0.00
    5   16   10      0.84      0.00
    6   16   10      0.27      0.00
    7   16   10      0.63      0.00
   -9   17   10      1.18      0.00
   -8   17   10      0.47      0.00
   -7   17   10      1.74      0.00
   -6   17   10      0.68      0.00
   -5   17   10     -0.10      0.00
   -4   17   10     -0.63      0.00
   -3   17   10     -1.26      0.00
   -2   17   10      0.01      0.00
   -1   17   10      3.10      0.00
    0   17   10      2.03      0.00
    1   17   10      1.85      0.00
    2   17   10      2.24      0.00
    3   17   10     -0.63      0.00
    4   17   10     -1.03      0.00
  -23    1   11      0.77      0.00
   18    1   11      1.83      0.00
  -23    2   11     -0.12      0.00
   18    2   11     -0.45      0.00
  -23    3   11      1.97      0.00
   17    3   11     -1.52      0.00
   18    3   11      1.12      0.00
  -23    4   11      0.18      0.00
   17    4   11      0.28      0.00
  -23    5   11     -1.42      0.00
  -22    5   11      1.94      0.00
   17    5   11     -2.34      0.00
  -22    6   11      0.58      0.00
   16    6   11      0.18      0.00
   17    6   11     -0.01      0.00
  -22    7   11      0.26      0.00
  -21    7   11     -0.02      0.00
   16    7   11     -1.04      0.00
  -21    8   11      2.13      0.00
   15    8   11      1.82      0.00
   16    8   11     -2.36      0.00
  -20    9   11     -1.06      0.00
   14    9   11      0.17      0.00
   15    9   11     -0.14      0.00
  -20   10   11     -1.06      0.00
  -19   10   11      2.77      0.00
   14   10   11     -0.12      0.00
  -19   11   11      1.07      0.00
  -18   11   11      0.83      0.00
   12   11   11     -0.70      0.00
   13   11   11      0.38      0.00
  -17   12   11      1.01      0.00
   11   12   11     -0.82      0.00
   12   12   11     -1.73      0.00
  -16   13   11     -0.17      0.00
  -15   13   11     -0.87      0.00
   10   13   11     -0.85      0.00
   11   13   11      0.70      0.00
  -15   14   11     -0.40      0.00
  -14   14   11     -1.00      0.00
  -13   14   11     -1.38      0.00
    8   14   11      2.94      0.00
    9   14   11     -0.45      0.00
  -13   15   11      0.57      0.00
  -12   15   11      0.02      0.00
  -11   15   11      0.53      0.00
    5   15   11      1.05      0.00
    6   15   11     -0.61      0.00
    7   15   11     -1.03      0.00
  -10   16   11     -1.77      0.00
   -9   16   11      0.62      0.00
   -8   16   11     -1.94      0.00
   -7   16   11     -0.95      0.00
   -6   16   11     -3.10      0.00
    1   16   11      0.02      0.00
    2   16   11      1.21      0.00
    3   16   11     -2.54      0.00
    4   16   11     -1.70      0.00
    5   16   11      0.55      0.00
   -6   17   11      1.70      0.00
   -5   17   11      0.09      0.00
   -4   17   11      0.98      0.00
   -3   17   11      1.22      0.00
   -2   17   11     -0.38      0.00
   -1   17   11      2.07      0.00
    0   17   11      0.38      0.00
  -23    0   12     -1.01      0.00
  -22    0   12     -0.93      0.00
   16    0   12      2.03      0.00
   17    0   12      3.63      0.00
  -23    1   12     -0.72      0.00
  -22    1   12      1.88      0.00
   16    1   12      0.31      0.00
   17    1   12      1.61      0.00
  -23    2   12      2.23      0.00
  -22    2   12      1.69      0.00
   16    2   12     -1.08      0.00
   17    2   12     -1.36      0.00
  -22    3   12     -0.75      0.00
   16    3   12      0.50      0.00
  -22    4   12     -1.22      0.00
   16    4   12      0.07      0.00
  -22    5   12     -0.02      0.00
  -21    5   12      1.89      0.00
   15    5   12     -0.21      0.00
   16    5   12     -0.89      0.00
  -21    6   12     -1.05      0.00
   15    6   12      0.94      0.00
  -21    7   12     -1.64      0.00
  -20    7   12      1.83      0.00
   14    7   12      0.61      0.00
   15    7   12     -0.40      0.00
  -20    8   12     -1.12      0.00
   14    8   12     -0.31      0.00
  -19    9   12      2.74      0.00
   13    9   12     -0.04      0.00
  -18   10   12     -1.70      0.00
   12   10   12     -1.00      0.00
   13   10   12      1.56      0.00
  -17   11   12      0.81      0.00
   11   11   12     -2.25      0.00
   12   11   12     -1.86      0.00
  -16   12   12      1.60      0.00
  -15   12   12     -0.42      0.00
    9   12   12      2.98      0.00
   10   12   12     -0.11      0.00
  -15   13   12     -2.30      0.00
  -14   13   12      1.26      0.00
  -13   13   12     -2.07      0.00
    7   13   12      0.30      0.00
    8   13   12      1.93      0.00
    9   13   12      0.99      0.00
  -13   14   12     -1.43      0.00
  -12   14   12      1.13      0.00
  -11   14   12     -1.63      0.00
    5   14   12     -0.68      0.00
    6   14   12     -0.98      0.00
    7   14   12     -2.36      0.00
  -11   15   12     -2.06      0.00
  -10   15   12     -1.42      0.00
   -9   15   12     -0.78      0.00
   -8   15   12     -1.66      0.00
   -7   15   12     -0.84      0.00
    1   15   12     -0.41      0.00
    2   15   12      0.49      0.00
    3   15   12     -4.17      0.00
    4   15   12     -0.63      0.00
    5   15   12     -1.83      0.00
   -7   16   12     -0.83      0.00
   -6   16   12      0.20      0.00
   -5   16   12     -0.22      0.00
   -4   16   12     -1.09      0.00
   -3   16   12      0.01      0.00
   -2   16   12     -0.76      0.00
   -1   16   12      1.46      0.00
    0   16   12      0.16      0.00
    1   16   12      1.41      0.00
  -22    1   13      0.53      0.00
  -21    1   13      0.40      0.00
   15    1   13     -0.33      0.00
  -22    2   13      0.38      0.00
  -21    2   13     -1.30      0.00
   15    2   13      0.45      0.00
  -21    3   13      0.94      0.00
   15    3   13      1.06      0.00
  -21    4   13      2.45      0.00
   14    4   13      1.36      0.00
   15    4   13      0.63      0.00
  -21    5   13     -0.44      0.00
  -20    5   13     -1.43      0.00
   14    5   13      0.79      0.00
  -20    6   13     -0.30      0.00
   13    6   13     -0.06      0.00
   14    6   13     -0.82      0.00
  -20    7   13     -0.18      0.00
  -19    7   13      0.30      0.00
   13    7   13      1.38      0.00
  -19    8   13     -2.01      0.00
  -18    8   13     -0.05      0.00
   12    8   13      1.36      0.00
   13    8   13     -1.70      0.00
  -18    9   13      0.80      0.00
  -17    9   13     -1.41      0.00
   11    9   13     -1.02      0.00
   12    9   13     -1.55      0.00
  -17   10   13     -1.51      0.00
  -16   10   13     -1.43      0.00
   10   10   13     -0.46      0.00
   11   10   13     -0.83      0.00
  -16   11   13      0.03      0.00
  -15   11   13      1.41      0.00
    8   11   13      2.62      0.00
    9   11   13      1.62      0.00
   10   11   13      1.37      0.00
  -15   12   13     -1.53      0.00
  -14   12   13     -0.18      0.00
  -13   12   13     -1.68      0.00
    7   12   13      0.75      0.00
    8   12   13     -0.69      0.00
  -13   13   13     -1.11      0.00
  -12   13   13      0.52      0.00
  -11   13   13     -3.48      0.00
    4   13   13     -4.54      0.00
    5   13   13     -0.33      0.00
    6   13   13     -1.42      0.00
  -11   14   13     -0.87      0.00
  -10   14   13      0.11      0.00
   -9   14   13     -0.74      0.00
   -8   14   13     -0.18      0.00
   -7   14   13     -1.31      0.00
    0   14   13      3.76      0.00
    1   14   13     -0.92      0.00
    2   14   13      1.91      0.00
    3   14   13     -2.89      0.00
    4   14   13      0.38      0.00
   -7   15   13      0.20      0.00
   -6   15   13      0.31      0.00
   -5   15   13     -1.62      0.00
   -4   15   13     -0.29      0.00
   -3   15   13     -0.94      0.00
   -2   15   13     -0.02      0.00
   -1   15   13     -0.91      0.00
    0   15   13     -0.89      0.00
    1   15   13     -0.60      0.00
  -21    0   14     -0.10      0.00
  -20    0   14     -1.09      0.00
   13    0   14     -1.67      0.00
   14    0   14      0.24      0.00
  -21    1   14     -0.78      0.00
  -20    1   14     -0.89      0.00
   13    1   14      0.36      0.00
   14    1   14      0.83      0.00
  -20    2   14      3.96      0.00
   13    2   14      0.75      0.00
  -20    3   14     -2.76      0.00
   13    3   14     -0.29      0.00
  -20    4   14     -0.37      0.00
  -19    4   14     -0.98      0.00
   12    4   14     -0.35      0.00
   13    4   14     -0.98      0.00
  -19    5   14      0.46      0.00
   12    5   14     -0.06      0.00
   13    5   14     -0.14      0.00
  -19    6   14      0.64      0.00
  -18    6   14      0.22      0.00
   11    6   14      2.82      0.00
   12    6   14     -1.73      0.00
  -18    7   14      0.56      0.00
  -17    7   14      0.88      0.00
   11    7   14     -1.83      0.00
  -18    8   14      0.14      0.00
  -17    8   14     -0.53      0.00
   10    8   14      0.38      0.00
   11    8   14     -0.29      0.00
  -17    9   14     -3.06      0.00
  -16    9   14     -1.26      0.00
    9    9   14      2.45      0.00
   10    9   14     -0.36      0.00
  -16   10   14     -0.09      0.00
  -15   10   14     -0.72      0.00
  -14   10   14     -0.98      0.00
    7   10   14      0.30      0.00
    8   10   14      1.64      0.00
    9   10   14     -0.95      0.00
  -14   11   14      0.10      0.00
  -13   11   14     -2.36      0.00
    6   11   14     -1.31      0.00
    7   11   14      0.05      0.00
  -12   12   14      1.12      0.00
  -11   12   14     -3.02      0.00
  -10   12   14      2.16      0.00
    3   12   14      1.11      0.00
    4   12   14     -2.15      0.00
    5   12   14      0.70      0.00
    6   12   14      0.29      0.00
  -10   13   14      0.93      0.00
   -9   13   14      0.86      0.00
   -8   13   14      0.44      0.00
   -7   13   14     -0.82      0.00
   -6   13   14      0.20      0.00
   -5   13   14      1.53      0.00
   -4   13   14     -1.31      0.00
   -3   13   14      1.74      0.00
   -2   13   14      1.94      0.00
   -1   13   14      1.64      0.00
    0   13   14      2.43      0.00
    1   13   14      1.30      0.00
    2   13   14      2.25      0.00
    3   13   14     -1.19      0.00
   -6   14   14      0.77      0.00
   -5   14   14     -0.40      0.00
   -4   14   14     -0.38      0.00
   -3   14   14      0.09      0.00
   -2   14   14      0.46      0.00
   -1   14   14     -1.30      0.00
  -19    1   15     -1.86      0.00
  -18    1   15     -0.29      0.00
   11    1   15     -0.87      0.00
   12    1   15     -1.53      0.00
  -19    2   15      1.00      0.00
  -18    2   15     -1.06      0.00
   11    2   15      0.14      0.00
   12    2   15     -0.18      0.00
  -19    3   15      0.20      0.00
  -18    3   15     -0.22      0.00
   11    3   15     -1.20      0.00
  -18    4   15      0.88      0.00
   10    4   15     -2.37      0.00
   11    4   15     -2.73      0.00
  -18    5   15      1.03      0.00
  -17    5   15     -1.91      0.00
   10    5   15     -1.68      0.00
   11    5   15      1.26      0.00
  -17    6   15     -0.12      0.00
  -16    6   15     -0.26      0.00
    9    6   15     -2.62      0.00
   10    6   15     -0.15      0.00
  -17    7   15     -0.33      0.00
  -16    7   15     -1.77      0.00
    8    7   15      1.36      0.00
    9    7   15      0.65      0.00
  -16    8   15     -0.21      0.00
  -15    8   15     -1.50      0.00
  -14    8   15     -0.26      0.00
    7    8   15      2.13      0.00
    8    8   15      0.33      0.00
  -15    9   15      1.21      0.00
  -14    9   15     -0.58      0.00
  -13    9   15      1.54      0.00
    6    9   15      2.19      0.00
    7    9   15     -1.08      0.00
  -13   10   15     -0.74      0.00
  -12   10   15     -2.04      0.00
  -11   10   15     -0.38      0.00
    4   10   15      1.70      0.00
    5   10   15      0.34      0.00
    6   10   15     -0.25      0.00
  -12   11   15      0.17      0.00
  -11   11   15     -0.92      0.00
  -10   11   15      0.99      0.00
   -9   11   15     -1.80      0.00
    1   11   15      0.04      0.00
    2   11   15      1.14      0.00
    3   11   15      0.59      0.00
    4   11   15      0.53      0.00
   -9   12   15      0.48      0.00
   -8   12   15      0.02      0.00
   -7   12   15     -2.42      0.00
   -6   12   15      0.16      0.00
   -5   12   15     -1.94      0.00
   -4   12   15     -0.18      0.00
   -3   12   15      1.70      0.00
   -2   12   15     -0.53      0.00
   -1   12   15      0.08      0.00
    0   12   15     -0.85      0.00
    1   12   15     -0.23      0.00
    2   12   15      2.50      0.00
  -17    0   16     -1.87      0.00
  -16    0   16      1.56      0.00
    9    0   16     -0.05      0.00
   10    0   16     -0.67      0.00
  -17    1   16     -0.49      0.00
  -16    1   16     -0.55      0.00
    9    1   16      0.37      0.00
  -17    2   16     -0.24      0.00
  -16    2   16      0.63      0.00
    8    2   16      2.35      0.00
    9    2   16      0.37      0.00
  -17    3   16      1.45      0.00
  -16    3   16     -1.32      0.00
    8    3   16      0.69      0.00
    9    3   16     -0.60      0.00
  -17    4   16     -2.12      0.00
  -16    4   16     -0.74      0.00
  -15    4   16     -1.03      0.00
    8    4   16      0.61      0.00
    9    4   16     -0.48      0.00
  -16    5   16     -0.73      0.00
  -15    5   16      1.52      0.00
    7    5   16      0.84      0.00
    8    5   16     -0.34      0.00
  -15    6   16      0.77      0.00
  -14    6   16     -0.85      0.00
    6    6   16     -0.32      0.00
    7    6   16      0.58      0.00
  -14    7   16      0.94      0.00
  -13    7   16      0.63      0.00
    5    7   16      0.53      0.00
    6    7   16      0.95      0.00
    7    7   16      3.33      0.00
  -13    8   16      0.45      0.00
  -12    8   16      1.17      0.00
  -11    8   16     -1.56      0.00
    3    8   16     -0.08      0.00
    4    8   16     -1.29      0.00
    5    8   16     -0.39      0.00
  -12    9   16     -1.81      0.00
  -11    9   16     -0.31      0.00
  -10    9   16     -0.67      0.00
   -9    9   16      0.82      0.00
    1    9   16      0.33      0.00
    2    9   16      0.79      0.00
    3    9   16     -0.53      0.00
    4    9   16      0.67      0.00
  -10   10   16      0.58      0.00
   -9   10   16     -0.74      0.00
   -8   10   16      3.35      0.00
   -7   10   16      1.24      0.00
   -6   10   16      0.80      0.00
   -5   10   16      2.64      0.00
   -4   10   16     -0.58      0.00
   -3   10   16      0.76      0.00
   -2   10   16      1.08      0.00
   -1   10   16      0.15      0.00
    0   10   16     -0.67      0.00
    1   10   16      0.67      0.00
    2   10   16     -0.45      0.00
   -7   11   16     -3.23      0.00
   -6   11   16      1.24      0.00
   -5   11   16     -3.83      0.00
   -4   11   16      0.85      0.00
   -3   11   16      1.40      0.00
   -2   11   16     -0.73      0.00
   -1   11   16      0.80      0.00
  -15    1   17      0.60      0.00
  -14    1   17     -0.61      0.00
    5    1   17     -0.34      0.00
    6    1   17      1.58      0.00
    7    1   17      0.44      0.00
  -15    2   17     -1.08      0.00
  -14    2   17     -1.77      0.00
  -13    2   17     -0.54      0.00
    5    2   17     -1.11      0.00
    6    2   17     -0.23      0.00
    7    2   17     -1.47      0.00
  -15    3   17     -0.33      0.00
  -14    3   17      1.14      0.00
  -13    3   17      0.40      0.00
    5    3   17     -0.10      0.00
    6    3   17      1.00      0.00
  -14    4   17      0.64      0.00
  -13    4   17      2.97      0.00
  -12    4   17     -1.74      0.00
    4    4   17      1.13      0.00
    5    4   17      1.42      0.00
    6    4   17      0.55      0.00
  -13    5   17     -2.00      0.00
  -12    5   17     -1.60      0.00
  -11    5   17     -1.37      0.00
    3    5   17      0.50      0.00
    4    5   17      2.44      0.00
    5    5   17     -0.31      0.00
  -13    6   17     -0.41      0.00
  -12    6   17      0.08      0.00
  -11    6   17     -0.29      0.00
  -10    6   17     -0.41      0.00
    1    6   17      1.67      0.00
    2    6   17     -0.50      0.00
    3    6   17     -0.85      0.00
    4    6   17     -1.68      0.00
  -11    7   17     -1.23      0.00
  -10    7   17      1.33      0.00
   -9    7   17     -0.92      0.00
   -8    7   17      0.96      0.00
   -7    7   17     -0.27      0.00
   -1    7   17      1.16      0.00
    0    7   17     -0.96      0.00
    1    7   17     -0.93      0.00
    2    7   17     -1.32      0.00
    3    7   17      0.04      0.00
  -10    8   17      0.15      0.00
   -9    8   17      1.15      0.00
   -8    8   17     -1.32      0.00
   -7    8   17      0.64      0.00
   -6    8   17     -0.11      0.00
   -5    8   17     -0.26      0.00
   -4    8   17     -0.32      0.00
   -3    8   17     -0.23      0.00
   -2    8   17      0.65      0.00
   -1    8   17     -0.17      0.00
    0    8   17     -0.72      0.00
    1    8   17      0.55      0.00
   -7    9   17      0.86      0.00
   -6    9   17     -0.46      0.00
   -5    9   17      1.09      0.00
   -4    9   17     -0.47      0.00
   -3    9   17      0.76      0.00
   -2    9   17      0.35      0.00
   -1    9   17     -0.77      0.00
  -12    0   18     -1.21      0.00
  -11    0   18      0.71      0.00
  -10    0   18     -0.11      0.00
   -9    0   18      0.34      0.00
    0    0   18      0.29      0.00
    1    0   18     -0.04      0.00
    2    0   18      0.72      0.00
    3    0   18     -0.52      0.00
  -12    1   18     -1.40      0.00
  -11    1   18      0.75      0.00
  -10    1   18     -1.27      0.00
   -9    1   18      0.35      0.00
    0    1   18     -0.24      0.00
    1    1   18      0.22      0.00
    2    1   18     -0.74      0.00
    3    1   18     -0.72      0.00
  -12    2   18      0.25      0.00
  -11    2   18     -0.54      0.00
  -10    2   18     -0.53      0.00
   -9    2   18      0.88      0.00
   -8    2   18     -0.84      0.00
   -1    2   18      0.65      0.00
    0    2   18      0.16      0.00
    1    2   18      0.06      0.00
    2    2   18      0.15      0.00
    3    2   18     -0.78      0.00
  -11    3   18     -0.01      0.00
  -10    3   18     -0.31      0.00
   -9    3   18     -1.81      0.00
   -8    3   18      0.44      0.00
   -7    3   18     -0.65      0.00
   -6    3   18      1.83      0.00
   -3    3   18      0.27      0.00
   -2    3   18      0.88      0.00
   -1    3   18     -0.07      0.00
    0    3   18     -0.38      0.00
    1    3   18      1.58      0.00
    2    3   18     -1.42      0.00
  -10    4   18     -1.43      0.00
   -9    4   18     -1.06      0.00
   -8    4   18     -0.69      0.00
   -7    4   18     -0.79      0.00
   -6    4   18      0.23      0.00
   -5    4   18     -0.58      0.00
   -4    4   18      1.49      0.00
   -3    4   18     -0.11      0.00
   -2    4   18      0.45      0.00
   -1    4   18     -1.89      0.00
    0    4   18      0.66      0.00
    1    4   18     -0.08      0.00
    2    4   18      1.49      0.00
   -9    5   18      1.03      0.00
   -8    5   18     -0.40      0.00
   -7    5   18      2.83      0.00
   -6    5   18      2.25      0.00
   -5    5   18     -0.09      0.00
   -4    5   18      1.79      0.00
   -3    5   18      0.59      0.00
   -2    5   18     -1.96      0.00
   -1    5   18      0.18      0.00
    0    5   18      1.72      0.00
   -7    6   18      0.82      0.00
   -6    6   18     -1.60      0.00
   -5    6   18      0.10      0.00
   -4    6   18      1.23      0.00
   -3    6   18     -2.59      0.00
   -2    6   18      0.01      0.00
   -1    6   18      0.75      0.00
    0    0    0      0.00      0.00
# SQUEEZE RESULTS (Version = 230318)
# Note: Data are Listed for all Voids in the P1 Unit Cell
# i.e. Centre of Gravity, Solvent Accessible Volume,
# Recovered number of Electrons in the Void and
# Details about the Squeezed Material
loop_
  _platon_squeeze_void_nr
  _platon_squeeze_void_average_x
  _platon_squeeze_void_average_y
  _platon_squeeze_void_average_z
  _platon_squeeze_void_volume
  _platon_squeeze_void_count_electrons
  _platon_squeeze_void_content
   1 -0.004 -0.010 -0.013      1948       500 ' '
# Missing Reflections Below sin(th)/lambda = 0.25
loop_
  _platon_missing_refln_index_h
  _platon_missing_refln_index_k
  _platon_missing_refln_index_l
  _platon_missing_refln_theta
    1    0    0     1.021
    2    0    0     2.042
    4    0    0     4.086
    7    0    0     7.163
    1    1    0     1.619
    0    2    0     2.515
   -2    1    1     2.599
    0    1    1     1.901
    0    3    1     4.035
   -1    0    2     2.856
    1    0    2     3.196
   -1    2    2     3.807
    1    2    2     4.069
   -1    3    3     5.668
    0    3    3     5.713
    1    3    3     5.936
   -8    0    4     9.135
   -2    5    5     9.497
_platon_squeeze_void_probe_radius                  1.20
_platon_squeeze_details
)
TITL 2 in P2(1)/c
CELL   20.2688   16.1961   14.5060     90.00    100.18     90.00
SPGR P21/c
# Solvent Accessible Volume =      1951
# Electrons Found in S.A.V. =       496
# Note: Atoms in Void are Labelled as Cxxx and Qxxx for all Others
C101 0.452 0.265 0.270 !       5.59 eA-3
C102 0.509 0.876 0.141 !       5.19 eA-3
C103 1.005 0.731 0.015 !       4.62 eA-3
C104 0.020 0.829 0.908 !       4.22 eA-3
C105 0.232 0.064 0.006 !       3.72 eA-3
C106 0.998 0.704 0.485 !       3.32 eA-3
C107 0.496 0.314 0.299 !       3.23 eA-3
C108 0.238 0.126 0.942 !       2.79 eA-3
C109 1.000 0.080 0.111 !       2.70 eA-3
C110 0.962 0.200 0.147 !       2.65 eA-3
C111 0.548 0.082 0.871 !       2.57 eA-3
C112 0.433 0.394 0.386 !       2.52 eA-3
C113 0.121 0.437 0.466 !       2.46 eA-3
C114 0.821 0.531 0.491 !       2.39 eA-3
C115 0.289 0.030 0.065 !       2.34 eA-3
C116 0.080 0.249 0.341 !       2.32 eA-3
C117 0.552 0.362 0.348 !       1.57 eA-3
C118 0.481 0.443 0.427 !       1.37 eA-3
C119 0.840 0.844 0.099 !       1.32 eA-3
Q120 0.152 0.019 0.339 !       1.20 eA-3
C121 0.630 0.579 0.460 !       1.18 eA-3
C122 0.955 0.704 0.630 !       1.16 eA-3
C123 0.460 0.783 0.206 !       1.08 eA-3
Q124 0.283 0.482 0.924 !       1.06 eA-3
C125 0.386 0.114 0.017 !       1.06 eA-3
C126 0.390 0.187 0.021 !       1.04 eA-3
C127 0.384 0.279 0.442 !       1.04 eA-3
Q128 0.310 0.985 0.394 !       1.04 eA-3
C129 0.409 0.250 0.541 !       1.00 eA-3
Q130 0.692 0.520 0.059 !       0.97 eA-3
Q131 0.149 0.967 0.398 !       0.97 eA-3
Q132 0.672 0.500 0.078 !       0.93 eA-3
Q133 0.310 0.981 0.443 !       0.92 eA-3
C134 0.606 0.583 0.363 !       0.88 eA-3
Q135 0.985 0.486 0.237 !       0.86 eA-3
C136 0.390 0.042 0.966 !       0.75 eA-3
C137 0.383 0.345 0.361 !       0.73 eA-3
C138 0.470 1.001 0.077 !       0.66 eA-3
Q139 0.947 0.509 0.744 !       0.65 eA-3
Q140 0.846 0.236 0.436 !       0.65 eA-3
C141 0.345 0.375 0.508 !       0.62 eA-3
Q142 0.771 0.155 0.794 !       0.62 eA-3
Q143 0.214 0.188 0.197 !       0.61 eA-3
C144 0.698 0.685 0.588 !       0.61 eA-3
C145 0.572 0.479 0.407 !       0.59 eA-3
C146 0.615 0.894 0.078 !       0.58 eA-3
Q147 0.816 0.717 0.308 !       0.56 eA-3
C148 0.056 0.340 0.423 !       0.56 eA-3
Q149 0.169 0.530 0.240 !       0.56 eA-3
Q150 0.532 0.534 0.326 !       0.55 eA-3
C151 0.689 0.803 0.017 !       0.55 eA-3
Q152 0.954 0.969 0.841 !       0.55 eA-3
Q153 0.843 0.712 0.324 !       0.55 eA-3
C154 0.364 0.035 0.146 !       0.54 eA-3
Q155 0.585 0.577 0.112 !       0.53 eA-3
C156 0.566 0.544 0.380 !       0.53 eA-3
Q157 0.251 0.392 0.814 !       0.51 eA-3
Q158 0.408 0.953 0.660 !       0.51 eA-3
C159 0.459 0.514 0.445 !       0.51 eA-3
C160 0.570 0.470 0.324 !       0.51 eA-3
)
;
_shelx_fab_checksum              11864
_smtbx_masks_special_details
;
A solvent mask was calculated and 125.3 electrons were
found in a volume of 487.8\%A^3 in 2 void.
This is consistent with the presence of
2[C3H7NO],2[CH4O], 1[H2O] per formula unit
which account for 126.0 electrons.
;
_smtbx_masks_void_probe_radius   1.2
_smtbx_masks_void_truncation_radius 1.2
loop_
_space_group_symop_operation_xyz
'x, y, z'
'-x, y+1/2, -z+1/2'
'-x, -y, -z'
'x, -y-1/2, z-1/2'
loop_
_atom_site_label
_atom_site_type_symbol
_atom_site_fract_x
_atom_site_fract_y
_atom_site_fract_z
_atom_site_U_iso_or_equiv
_atom_site_adp_type
_atom_site_occupancy
_atom_site_site_symmetry_order
_atom_site_calc_flag
_atom_site_refinement_flags_posn
_atom_site_refinement_flags_adp
Co1 Co 0.29883(2) 0.49914(2) 0.91206(2) 0.01130(10) Uani 1 1 d . .
Co2 Co 0.15076(2) 0.50184(2) 0.87074(2) 0.01112(10) Uani 1 1 d . .
C1 C 0.62696(13) 0.34471(17) 0.64184(18) 0.0360(6) Uani 1 1 d . .
C2 C 0.63846(13) 0.40700(17) 0.71008(18) 0.0350(6) Uani 1 1 d . .
C3 C 0.70180(12) 0.43963(17) 0.73906(18) 0.0350(6) Uani 1 1 d . .
H3 H 0.708959 0.482380 0.784573 0.042 Uiso 1 1 calc R U
C4 C 0.75449(13) 0.40889(19) 0.70058(19) 0.0397(7) Uani 1 1 d . .
C5 C 0.74400(15) 0.3480(2) 0.6317(2) 0.0510(8) Uani 1 1 d . .
H5 H 0.780287 0.328445 0.604350 0.061 Uiso 1 1 calc R U
C6 C 0.68111(14) 0.31673(19) 0.6040(2) 0.0456(7) Uani 1 1 d . .
H6 H 0.674238 0.274711 0.557595 0.055 Uiso 1 1 calc R U
C7 C 0.56048(15) 0.30842(18) 0.6133(2) 0.0449(7) Uani 1 1 d . .
H7 H 0.525456 0.326538 0.644189 0.054 Uiso 1 1 calc R U
C8 C 0.59127(13) 0.48634(18) 0.82399(19) 0.0372(7) Uani 1 1 d . .
H8A H 0.604295 0.542289 0.806340 0.045 Uiso 1 1 calc R U
H8B H 0.626161 0.465273 0.875053 0.045 Uiso 1 1 calc R U
C9 C 0.52429(13) 0.48845(16) 0.85440(18) 0.0304(6) Uani 1 1 d . .
C10 C 0.49862(12) 0.56083(16) 0.88431(18) 0.0327(6) Uani 1 1 d . .
H10 H 0.524034 0.610395 0.888273 0.039 Uiso 1 1 calc R U
C11 C 0.43554(12) 0.56032(15) 0.90842(18) 0.0301(6) Uani 1 1 d . .
H11 H 0.418364 0.610458 0.928612 0.036 Uiso 1 1 calc R U
C12 C 0.42381(13) 0.42164(16) 0.87859(19) 0.0354(6) Uani 1 1 d . .
H12 H 0.398096 0.372473 0.877274 0.043 Uiso 1 1 calc R U
C13 C 0.48627(13) 0.41757(17) 0.8539(2) 0.0393(7) Uani 1 1 d . .
H13 H 0.503163 0.366229 0.836516 0.047 Uiso 1 1 calc R U
C14 C 0.83458(14) 0.49352(18) 0.8001(2) 0.0425(7) Uani 1 1 d . .
H14A H 0.816854 0.474441 0.855803 0.051 Uiso 1 1 calc R U
H14B H 0.814611 0.547950 0.780686 0.051 Uiso 1 1 calc R U
C15 C -0.09021(14) 0.49936(17) 0.8216(2) 0.0371(7) Uani 1 1 d . .
C16 C -0.05641(17) 0.5589(3) 0.7847(3) 0.0866(15) Uani 1 1 d . .
H16 H -0.080111 0.600386 0.745965 0.104 Uiso 1 1 calc R U
C17 C 0.01352(16) 0.5595(2) 0.8037(3) 0.0796(14) Uani 1 1 d . .
H17 H 0.036262 0.602253 0.777199 0.095 Uiso 1 1 calc R U
C18 C 0.01537(15) 0.4512(3) 0.8977(3) 0.0731(13) Uani 1 1 d . .
H18 H 0.039851 0.413389 0.940790 0.088 Uiso 1 1 calc R U
C19 C -0.05330(16) 0.4469(3) 0.8829(3) 0.0847(15) Uani 1 1 d . .
H19 H -0.074928 0.407196 0.915522 0.102 Uiso 1 1 calc R U
C20 C 0.22426(13) 0.67221(15) 0.68818(17) 0.0299(6) Uani 1 1 d . .
C21 C 0.28615(12) 0.70314(15) 0.67874(17) 0.0301(6) Uani 1 1 d . .
H21 H 0.325638 0.679798 0.714202 0.036 Uiso 1 1 calc R U
C22 C 0.29122(13) 0.76773(16) 0.61818(17) 0.0300(6) Uani 1 1 d . .
H22 H 0.334027 0.788681 0.612150 0.036 Uiso 1 1 calc R U
C23 C 0.23369(12) 0.80197(15) 0.56617(16) 0.0277(5) Uani 1 1 d . .
C24 C 0.17147(13) 0.76994(16) 0.57429(18) 0.0341(6) Uani 1 1 d . .
H24 H 0.131990 0.792470 0.537919 0.041 Uiso 1 1 calc R U
C25 C 0.16671(13) 0.70526(16) 0.63522(18) 0.0342(6) Uani 1 1 d . .
H25 H 0.124032 0.683568 0.640700 0.041 Uiso 1 1 calc R U
C26 C 0.21934(12) 0.60464(15) 0.75743(16) 0.0276(5) Uani 1 1 d . .
C27 C 0.23802(13) 0.62557(15) 1.00353(17) 0.0288(6) Uani 1 1 d . .
C28 C 0.22418(12) 0.32834(15) 1.09362(17) 0.0278(5) Uani 1 1 d . .
C29 C 0.16397(13) 0.29096(17) 1.10140(19) 0.0380(7) Uani 1 1 d . .
H29 H 0.123488 0.310272 1.064477 0.046 Uiso 1 1 calc R U
C30 C 0.16227(13) 0.27424(17) 0.66247(19) 0.0378(7) Uani 1 1 d . .
H30 H 0.120678 0.299384 0.667346 0.045 Uiso 1 1 calc R U
C31 C 0.22079(12) 0.30297(15) 0.71641(17) 0.0300(6) Uani 1 1 d . .
C32 C 0.28082(13) 0.26544(17) 0.7095(2) 0.0415(7) Uani 1 1 d . .
H32 H 0.321151 0.284539 0.746974 0.050 Uiso 1 1 calc R U
C33 C 0.28278(13) 0.29995(17) 1.1482(2) 0.0403(7) Uani 1 1 d . .
H33 H 0.324375 0.325282 1.143773 0.048 Uiso 1 1 calc R U
C34 C 0.22578(12) 0.39702(15) 1.02536(17) 0.0284(6) Uani 1 1 d . .
C35 C 0.21880(12) 0.37534(15) 0.78052(17) 0.0275(5) Uani 1 1 d . .
N1 N 0.39783(10) 0.49260(11) 0.90454(14) 0.0248(5) Uani 1 1 d . .
N2 N 0.04945(11) 0.50426(12) 0.85618(16) 0.0287(5) Uani 1 1 d . .
O1 O 0.54724(11) 0.25577(13) 0.55176(16) 0.0571(6) Uani 1 1 d . .
O2 O 0.58340(9) 0.43201(13) 0.74479(14) 0.0470(5) Uani 1 1 d . .
O3 O 0.81932(9) 0.43472(14) 0.72494(14) 0.0509(6) Uani 1 1 d . .
O4 O 0.27261(9) 0.57239(11) 0.79741(12) 0.0375(5) Uani 1 1 d . .
O5 O 0.16138(9) 0.58520(12) 0.77097(13) 0.0388(5) Uani 1 1 d . .
O6 O 0.29545(9) 0.60183(11) 0.99217(12) 0.0360(4) Uani 1 1 d . .
O7 O 0.18334(9) 0.59232(11) 0.96716(13) 0.0388(5) Uani 1 1 d . .
O8 O 0.28169(9) 0.42914(11) 1.02149(12) 0.0380(5) Uani 1 1 d . .
O9 O 0.17087(9) 0.41805(11) 0.97709(12) 0.0368(4) Uani 1 1 d . .
O10 O 0.27349(9) 0.39769(11) 0.82920(13) 0.0390(5) Uani 1 1 d . .
O11 O 0.16295(9) 0.40834(11) 0.78177(13) 0.0376(5) Uani 1 1 d . .
loop_
_atom_site_aniso_label
_atom_site_aniso_U_11
_atom_site_aniso_U_22
_atom_site_aniso_U_33
_atom_site_aniso_U_23
_atom_site_aniso_U_13
_atom_site_aniso_U_12
Co1 0.00820(16) 0.01145(16) 0.01440(16) -0.00016(10) 0.00244(11) 0.00012(10)
Co2 0.00832(16) 0.01069(16) 0.01436(16) 0.00043(10) 0.00206(11) -0.00009(10)
C1 0.0310(14) 0.0424(16) 0.0343(14) -0.0047(12) 0.0049(11) 0.0030(12)
C2 0.0253(14) 0.0456(16) 0.0347(14) -0.0022(12) 0.0075(11) 0.0039(12)
C3 0.0235(13) 0.0430(16) 0.0385(15) -0.0080(12) 0.0059(11) 0.0005(12)
C4 0.0216(14) 0.0578(18) 0.0407(15) -0.0054(14) 0.0086(12) 0.0016(12)
C5 0.0338(16) 0.069(2) 0.0538(19) -0.0196(16) 0.0165(14) 0.0054(15)
C6 0.0351(16) 0.0561(19) 0.0459(17) -0.0133(14) 0.0075(13) 0.0025(14)
C7 0.0393(17) 0.0473(18) 0.0468(17) -0.0088(14) 0.0040(14) -0.0018(14)
C8 0.0203(13) 0.0529(18) 0.0379(15) -0.0158(13) 0.0041(11) -0.0018(12)
C9 0.0187(13) 0.0404(15) 0.0312(14) -0.0054(11) 0.0021(11) 0.0010(11)
C10 0.0244(13) 0.0318(14) 0.0430(15) -0.0034(12) 0.0089(11) -0.0037(11)
C11 0.0267(14) 0.0240(13) 0.0404(15) -0.0034(11) 0.0081(11) -0.0004(10)
C12 0.0253(14) 0.0273(14) 0.0538(17) -0.0058(12) 0.0070(12) 0.0002(11)
C13 0.0243(14) 0.0342(15) 0.0605(18) -0.0132(13) 0.0103(13) 0.0045(11)
C14 0.0243(15) 0.058(2) 0.0465(17) -0.0091(14) 0.0102(13) -0.0011(13)
C15 0.0219(14) 0.0506(18) 0.0400(16) -0.0017(13) 0.0084(12) -0.0004(12)
C16 0.0293(19) 0.090(3) 0.137(4) 0.056(3) 0.004(2) 0.0073(19)
C17 0.0274(17) 0.079(3) 0.133(4) 0.060(3) 0.016(2) 0.0021(17)
C18 0.0263(17) 0.097(3) 0.093(3) 0.062(2) 0.0015(17) -0.0041(18)
C19 0.0268(18) 0.113(3) 0.111(3) 0.065(3) 0.0054(19) -0.015(2)
C20 0.0296(14) 0.0296(14) 0.0308(13) 0.0048(11) 0.0060(11) -0.0001(11)
C21 0.0236(13) 0.0341(14) 0.0317(13) 0.0062(11) 0.0024(10) 0.0015(11)
C22 0.0231(13) 0.0337(14) 0.0339(14) 0.0030(11) 0.0068(11) -0.0036(11)
C23 0.0308(14) 0.0263(13) 0.0266(13) 0.0026(10) 0.0069(11) -0.0011(11)
C24 0.0258(14) 0.0375(15) 0.0377(15) 0.0112(12) 0.0021(11) 0.0019(11)
C25 0.0237(13) 0.0367(15) 0.0416(15) 0.0130(12) 0.0036(11) -0.0032(11)
C26 0.0288(14) 0.0279(13) 0.0261(12) 0.0032(10) 0.0045(11) 0.0001(11)
C27 0.0327(15) 0.0257(13) 0.0283(13) -0.0002(10) 0.0063(11) 0.0002(11)
C28 0.0267(13) 0.0268(13) 0.0288(13) 0.0035(10) 0.0017(10) -0.0033(10)
C29 0.0265(14) 0.0396(16) 0.0450(16) 0.0171(13) -0.0017(12) -0.0006(12)
C30 0.0231(14) 0.0408(16) 0.0481(17) -0.0172(13) 0.0027(12) 0.0052(12)
C31 0.0268(14) 0.0280(13) 0.0343(14) -0.0066(11) 0.0028(11) 0.0009(11)
C32 0.0252(14) 0.0455(17) 0.0499(17) -0.0228(14) -0.0040(12) 0.0020(12)
C33 0.0255(14) 0.0411(16) 0.0521(17) 0.0171(14) 0.0009(12) -0.0072(12)
C34 0.0292(14) 0.0282(13) 0.0272(13) 0.0021(10) 0.0031(11) -0.0036(11)
C35 0.0239(13) 0.0291(13) 0.0285(13) -0.0032(10) 0.0021(10) -0.0001(11)
N1 0.0179(11) 0.0284(11) 0.0277(11) -0.0021(8) 0.0026(9) -0.0001(8)
N2 0.0209(11) 0.0307(12) 0.0348(12) 0.0036(9) 0.0051(9) 0.0001(9)
O1 0.0552(14) 0.0501(13) 0.0618(14) -0.0147(11) -0.0007(11) -0.0041(11)
O2 0.0196(9) 0.0715(14) 0.0510(12) -0.0269(11) 0.0090(8) -0.0035(9)
O3 0.0220(10) 0.0773(15) 0.0549(13) -0.0206(11) 0.0109(9) -0.0012(10)
O4 0.0325(10) 0.0419(11) 0.0386(10) 0.0158(9) 0.0082(8) 0.0083(9)
O5 0.0296(10) 0.0424(11) 0.0441(11) 0.0158(9) 0.0062(8) -0.0062(8)
O6 0.0341(10) 0.0328(10) 0.0422(11) -0.0098(8) 0.0096(8) 0.0037(8)
O7 0.0369(11) 0.0356(10) 0.0438(11) -0.0148(9) 0.0071(9) -0.0056(9)
O8 0.0322(11) 0.0406(11) 0.0388(10) 0.0136(8) -0.0004(8) -0.0099(9)
O9 0.0324(10) 0.0380(11) 0.0386(10) 0.0155(8) 0.0023(8) -0.0001(8)
O10 0.0273(10) 0.0368(11) 0.0510(12) -0.0174(9) 0.0016(9) -0.0019(8)
O11 0.0266(10) 0.0386(10) 0.0457(11) -0.0158(9) 0.0008(8) 0.0069(8)
loop_
_atom_type_symbol
_atom_type_description
_atom_type_scat_dispersion_real
_atom_type_scat_dispersion_imag
_atom_type_scat_source
C C 0.0033 0.0016 'International Tables Vol C Tables 4.2.6.8 and 6.1.1.4'
H H 0.0000 0.0000 'International Tables Vol C Tables 4.2.6.8 and 6.1.1.4'
N N 0.0061 0.0033 'International Tables Vol C Tables 4.2.6.8 and 6.1.1.4'
O O 0.0106 0.0060 'International Tables Vol C Tables 4.2.6.8 and 6.1.1.4'
Co Co 0.3494 0.9721 'International Tables Vol C Tables 4.2.6.8 and 6.1.1.4'
loop_
_geom_angle_atom_site_label_1
_geom_angle_atom_site_label_2
_geom_angle_atom_site_label_3
_geom_angle
_geom_angle_site_symmetry_1
_geom_angle_site_symmetry_3
O8 Co1 N1 108.66(8) . .
O8 Co1 O4 155.28(8) . .
N1 Co1 O4 95.99(8) . .
O8 Co1 O6 88.98(7) . .
N1 Co1 O6 101.91(7) . .
O4 Co1 O6 87.71(8) . .
O8 Co1 O10 87.19(8) . .
N1 Co1 O10 94.27(7) . .
O4 Co1 O10 89.19(8) . .
O6 Co1 O10 163.76(7) . .
O8 Co1 Co2 81.89(5) . .
N1 Co1 Co2 165.30(6) . .
O4 Co1 Co2 73.53(5) . .
O6 Co1 Co2 88.18(5) . .
O10 Co1 Co2 75.66(5) . .
O5 Co2 N2 98.44(8) . .
O5 Co2 O11 90.16(9) . .
N2 Co2 O11 100.53(8) . .
O5 Co2 O9 162.63(8) . .
N2 Co2 O9 98.91(8) . .
O11 Co2 O9 87.37(8) . .
O5 Co2 O7 87.06(8) . .
N2 Co2 O7 104.79(8) . .
O11 Co2 O7 154.66(7) . .
O9 Co2 O7 87.84(8) . .
O5 Co2 Co1 85.53(5) . .
N2 Co2 Co1 174.37(6) . .
O11 Co2 Co1 83.38(5) . .
O9 Co2 Co1 77.11(5) . .
O7 Co2 Co1 71.30(5) . .
C6 C1 C2 118.0(2) . .
C6 C1 C7 120.7(3) . .
C2 C1 C7 121.2(2) . .
O2 C2 C3 123.4(2) . .
O2 C2 C1 115.4(2) . .
C3 C2 C1 121.2(2) . .
C4 C3 C2 118.8(3) . .
C4 C3 H3 120.6 . .
C2 C3 H3 120.6 . .
O3 C4 C3 124.2(3) . .
O3 C4 C5 114.9(2) . .
C3 C4 C5 120.9(2) . .
C6 C5 C4 119.4(3) . .
C6 C5 H5 120.3 . .
C4 C5 H5 120.3 . .
C5 C6 C1 121.7(3) . .
C5 C6 H6 119.2 . .
C1 C6 H6 119.2 . .
O1 C7 C1 123.8(3) . .
O1 C7 H7 118.1 . .
C1 C7 H7 118.1 . .
O2 C8 C9 105.7(2) . .
O2 C8 H8A 110.6 . .
C9 C8 H8A 110.6 . .
O2 C8 H8B 110.6 . .
C9 C8 H8B 110.6 . .
H8A C8 H8B 108.7 . .
C13 C9 C10 117.7(2) . .
C13 C9 C8 120.8(2) . .
C10 C9 C8 121.4(2) . .
C9 C10 C11 119.3(2) . .
C9 C10 H10 120.3 . .
C11 C10 H10 120.3 . .
N1 C11 C10 122.9(2) . .
N1 C11 H11 118.6 . .
C10 C11 H11 118.6 . .
N1 C12 C13 122.5(2) . .
N1 C12 H12 118.8 . .
C13 C12 H12 118.8 . .
C12 C13 C9 119.8(2) . .
C12 C13 H13 120.1 . .
C9 C13 H13 120.1 . .
O3 C14 C15 105.8(2) . 1_655
O3 C14 H14A 110.6 . .
C15 C14 H14A 110.6 1_655 .
O3 C14 H14B 110.6 . .
C15 C14 H14B 110.6 1_655 .
H14A C14 H14B 108.7 . .
C16 C15 C19 116.7(3) . .
C16 C15 C14 122.1(3) . 1_455
C19 C15 C14 121.2(3) . 1_455
C15 C16 C17 119.8(3) . .
C15 C16 H16 120.1 . .
C17 C16 H16 120.1 . .
N2 C17 C16 123.5(3) . .
N2 C17 H17 118.3 . .
C16 C17 H17 118.3 . .
N2 C18 C19 124.3(3) . .
N2 C18 H18 117.9 . .
C19 C18 H18 117.9 . .
C15 C19 C18 119.8(3) . .
C15 C19 H19 120.1 . .
C18 C19 H19 120.1 . .
C21 C20 C25 119.7(2) . .
C21 C20 C26 120.0(2) . .
C25 C20 C26 120.3(2) . .
C20 C21 C22 120.6(2) . .
C20 C21 H21 119.7 . .
C22 C21 H21 119.7 . .
C21 C22 C23 119.9(2) . .
C21 C22 H22 120.0 . .
C23 C22 H22 120.0 . .
C22 C23 C24 119.6(2) . .
C22 C23 C27 120.6(2) . 4_575
C24 C23 C27 119.8(2) . 4_575
C25 C24 C23 120.2(2) . .
C25 C24 H24 119.9 . .
C23 C24 H24 119.9 . .
C24 C25 C20 120.0(2) . .
C24 C25 H25 120.0 . .
C20 C25 H25 120.0 . .
O4 C26 O5 125.1(2) . .
O4 C26 C20 117.5(2) . .
O5 C26 C20 117.3(2) . .
O7 C27 O6 125.2(2) . .
O7 C27 C23 116.6(2) . 4_576
O6 C27 C23 118.2(2) . 4_576
C33 C28 C29 119.2(2) . .
C33 C28 C34 120.7(2) . .
C29 C28 C34 120.2(2) . .
C30 C29 C28 120.5(2) 4_566 .
C30 C29 H29 119.7 4_566 .
C28 C29 H29 119.7 . .
C31 C30 C29 120.3(2) . 4_565
C31 C30 H30 119.9 . .
C29 C30 H30 119.9 4_565 .
C32 C31 C30 119.4(2) . .
C32 C31 C35 120.6(2) . .
C30 C31 C35 120.0(2) . .
C31 C32 C33 120.6(2) . 4_565
C31 C32 H32 119.7 . .
C33 C32 H32 119.7 4_565 .
C28 C33 C32 120.1(2) . 4_566
C28 C33 H33 120.0 . .
C32 C33 H33 120.0 4_566 .
O9 C34 O8 125.5(2) . .
O9 C34 C28 116.9(2) . .
O8 C34 C28 117.6(2) . .
O11 C35 O10 125.2(2) . .
O11 C35 C31 117.7(2) . .
O10 C35 C31 117.1(2) . .
C11 N1 C12 117.7(2) . .
C11 N1 Co1 121.30(16) . .
C12 N1 Co1 119.92(16) . .
C17 N2 C18 115.5(3) . .
C17 N2 Co2 121.5(2) . .
C18 N2 Co2 123.01(19) . .
C2 O2 C8 119.7(2) . .
C4 O3 C14 117.8(2) . .
C26 O4 Co1 134.74(17) . .
C26 O5 Co2 119.85(16) . .
C27 O6 Co1 116.57(16) . .
C27 O7 Co2 138.00(17) . .
C34 O8 Co1 123.11(16) . .
C34 O9 Co2 129.96(17) . .
C35 O10 Co1 131.72(17) . .
C35 O11 Co2 122.52(16) . .
loop_
_geom_bond_atom_site_label_1
_geom_bond_atom_site_label_2
_geom_bond_distance
_geom_bond_site_symmetry_2
Co1 O8 2.0300(17) .
Co1 N1 2.031(2) .
Co1 O4 2.0355(17) .
Co1 O6 2.0370(17) .
Co1 O10 2.0469(17) .
Co1 Co2 2.9552(4) .
Co2 O5 2.0183(18) .
Co2 N2 2.027(2) .
Co2 O11 2.0329(17) .
Co2 O9 2.0410(17) .
Co2 O7 2.0527(17) .
C1 C6 1.387(4) .
C1 C2 1.404(4) .
C1 C7 1.461(4) .
C2 O2 1.365(3) .
C2 C3 1.383(4) .
C3 C4 1.382(4) .
C3 H3 0.9500 .
C4 O3 1.365(3) .
C4 C5 1.393(4) .
C5 C6 1.365(4) .
C5 H5 0.9500 .
C6 H6 0.9500 .
C7 O1 1.230(3) .
C7 H7 0.9500 .
C8 O2 1.433(3) .
C8 C9 1.500(4) .
C8 H8A 0.9900 .
C8 H8B 0.9900 .
C9 C13 1.382(4) .
C9 C10 1.383(4) .
C10 C11 1.384(3) .
C10 H10 0.9500 .
C11 N1 1.332(3) .
C11 H11 0.9500 .
C12 N1 1.345(3) .
C12 C13 1.377(4) .
C12 H12 0.9500 .
C13 H13 0.9500 .
C14 O3 1.439(3) .
C14 C15 1.504(4) 1_655
C14 H14A 0.9900 .
C14 H14B 0.9900 .
C15 C16 1.347(4) .
C15 C19 1.356(4) .
C16 C17 1.395(4) .
C16 H16 0.9500 .
C17 N2 1.309(4) .
C17 H17 0.9500 .
C18 N2 1.314(4) .
C18 C19 1.372(4) .
C18 H18 0.9500 .
C19 H19 0.9500 .
C20 C21 1.380(3) .
C20 C25 1.386(3) .
C20 C26 1.501(3) .
C21 C22 1.382(3) .
C21 H21 0.9500 .
C22 C23 1.388(3) .
C22 H22 0.9500 .
C23 C24 1.388(3) .
C23 C27 1.496(3) 4_575
C24 C25 1.385(4) .
C24 H24 0.9500 .
C25 H25 0.9500 .
C26 O4 1.247(3) .
C26 O5 1.265(3) .
C27 O7 1.261(3) .
C27 O6 1.264(3) .
C28 C33 1.385(3) .
C28 C29 1.385(4) .
C28 C34 1.493(3) .
C29 C30 1.383(4) 4_566
C29 H29 0.9500 .
C30 C31 1.381(3) .
C30 H30 0.9500 .
C31 C32 1.380(4) .
C31 C35 1.501(3) .
C32 C33 1.388(4) 4_565
C32 H32 0.9500 .
C33 H33 0.9500 .
C34 O9 1.253(3) .
C34 O8 1.257(3) .
C35 O11 1.255(3) .
C35 O10 1.258(3) .
loop_
_geom_hbond_atom_site_label_D
_geom_hbond_atom_site_label_H
_geom_hbond_atom_site_label_A
_geom_hbond_distance_DH
_geom_hbond_distance_HA
_geom_hbond_distance_DA
_geom_hbond_angle_DHA
_geom_hbond_site_symmetry_A
_geom_hbond_publ_flag
C18 H18 O9 0.95 2.62 3.204(4) 120.5 . yes
C17 H17 O5 0.95 2.57 3.144(4) 119.3 . yes
C12 H12 O10 0.95 2.53 3.029(3) 112.8 . yes
C11 H11 O1 0.95 2.46 3.226(3) 138.0 2_656 yes
C8 H8B O6 0.99 2.52 3.501(3) 172.9 3_667 yes
C18 H18 O9 0.95 2.62 3.204(4) 120.5 . yes
C17 H17 O5 0.95 2.57 3.144(4) 119.3 . yes
C12 H12 O10 0.95 2.53 3.029(3) 112.8 . yes
C11 H11 O1 0.95 2.46 3.226(3) 138.0 2_656 yes
C8 H8B O6 0.99 2.52 3.501(3) 172.9 3_667 yes
C8 H8B O6 0.99 2.52 3.501(3) 172.9 3_667 yes
C11 H11 O1 0.95 2.46 3.226(3) 138.0 2_656 yes
C12 H12 O10 0.95 2.53 3.029(3) 112.8 . yes
C17 H17 O5 0.95 2.57 3.144(4) 119.3 . yes
C18 H18 O9 0.95 2.62 3.204(4) 120.5 . yes
loop_
_geom_torsion_atom_site_label_1
_geom_torsion_atom_site_label_2
_geom_torsion_atom_site_label_3
_geom_torsion_atom_site_label_4
_geom_torsion
_geom_torsion_site_symmetry_1
_geom_torsion_site_symmetry_4
C6 C1 C2 O2 -180.0(3) . .
C7 C1 C2 O2 -1.8(4) . .
C6 C1 C2 C3 -0.1(4) . .
C7 C1 C2 C3 178.1(3) . .
O2 C2 C3 C4 178.9(3) . .
C1 C2 C3 C4 -1.0(4) . .
C2 C3 C4 O3 -178.5(3) . .
C2 C3 C4 C5 2.0(4) . .
O3 C4 C5 C6 178.5(3) . .
C3 C4 C5 C6 -1.9(5) . .
C4 C5 C6 C1 0.8(5) . .
C2 C1 C6 C5 0.2(5) . .
C7 C1 C6 C5 -178.0(3) . .
C6 C1 C7 O1 -4.5(5) . .
C2 C1 C7 O1 177.4(3) . .
O2 C8 C9 C13 39.7(3) . .
O2 C8 C9 C10 -140.7(3) . .
C13 C9 C10 C11 -2.7(4) . .
C8 C9 C10 C11 177.6(2) . .
C9 C10 C11 N1 0.3(4) . .
N1 C12 C13 C9 -0.6(4) . .
C10 C9 C13 C12 2.9(4) . .
C8 C9 C13 C12 -177.5(3) . .
C19 C15 C16 C17 5.8(6) . .
C14 C15 C16 C17 -177.3(4) 1_455 .
C15 C16 C17 N2 0.3(8) . .
C16 C15 C19 C18 -6.1(6) . .
C14 C15 C19 C18 176.9(4) 1_455 .
N2 C18 C19 C15 0.4(7) . .
C25 C20 C21 C22 1.2(4) . .
C26 C20 C21 C22 -177.2(2) . .
C20 C21 C22 C23 -0.1(4) . .
C21 C22 C23 C24 -1.1(4) . .
C21 C22 C23 C27 177.2(2) . 4_575
C22 C23 C24 C25 1.2(4) . .
C27 C23 C24 C25 -177.1(2) 4_575 .
C23 C24 C25 C20 -0.1(4) . .
C21 C20 C25 C24 -1.1(4) . .
C26 C20 C25 C24 177.3(2) . .
C21 C20 C26 O4 -7.6(4) . .
C25 C20 C26 O4 174.1(2) . .
C21 C20 C26 O5 172.1(2) . .
C25 C20 C26 O5 -6.3(4) . .
C33 C28 C29 C30 -0.4(4) . 4_566
C34 C28 C29 C30 178.1(3) . 4_566
C29 C30 C31 C32 -0.7(4) 4_565 .
C29 C30 C31 C35 178.2(3) 4_565 .
C30 C31 C32 C33 0.7(4) . 4_565
C35 C31 C32 C33 -178.2(3) . 4_565
C29 C28 C33 C32 0.3(4) . 4_566
C34 C28 C33 C32 -178.2(3) . 4_566
C33 C28 C34 O9 178.5(3) . .
C29 C28 C34 O9 0.0(4) . .
C33 C28 C34 O8 -1.9(4) . .
C29 C28 C34 O8 179.6(2) . .
C32 C31 C35 O11 178.0(3) . .
C30 C31 C35 O11 -0.9(4) . .
C32 C31 C35 O10 -2.4(4) . .
C30 C31 C35 O10 178.7(3) . .
C10 C11 N1 C12 2.0(4) . .
C10 C11 N1 Co1 -166.1(2) . .
C13 C12 N1 C11 -1.8(4) . .
C13 C12 N1 Co1 166.5(2) . .
C16 C17 N2 C18 -5.9(6) . .
C16 C17 N2 Co2 173.9(4) . .
C19 C18 N2 C17 5.6(6) . .
C19 C18 N2 Co2 -174.2(4) . .
C3 C2 O2 C8 -8.9(4) . .
C1 C2 O2 C8 171.0(2) . .
C9 C8 O2 C2 -169.7(2) . .
C3 C4 O3 C14 4.6(4) . .
C5 C4 O3 C14 -175.9(3) . .
C15 C14 O3 C4 170.8(2) 1_655 .
O5 C26 O4 Co1 -14.8(4) . .
C20 C26 O4 Co1 164.81(17) . .
O4 C26 O5 Co2 4.8(4) . .
C20 C26 O5 Co2 -174.83(16) . .
O7 C27 O6 Co1 -2.2(3) . .
C23 C27 O6 Co1 176.74(16) 4_576 .
O6 C27 O7 Co2 -7.3(4) . .
C23 C27 O7 Co2 173.75(17) 4_576 .
O9 C34 O8 Co1 -17.9(4) . .
C28 C34 O8 Co1 162.56(16) . .
O8 C34 O9 Co2 5.2(4) . .
C28 C34 O9 Co2 -175.22(16) . .
O11 C35 O10 Co1 -9.6(4) . .
C31 C35 O10 Co1 170.88(17) . .
O10 C35 O11 Co2 -3.7(4) . .
C31 C35 O11 Co2 175.87(16) . .
loop_
_smtbx_masks_void_nr
_smtbx_masks_void_average_x
_smtbx_masks_void_average_y
_smtbx_masks_void_average_z
_smtbx_masks_void_volume
_smtbx_masks_void_count_electrons
_smtbx_masks_void_content
1 -0.004 -0.010 -0.013 1948.0 500.0 '2 DMF,2MeOH, H2O'
