#------------------------------------------------------------------------------
#$Date: 2019-11-17 10:50:15 +0200 (Sun, 17 Nov 2019) $
#$Revision: 229434 $
#$URL: file:///home/coder/svn-repositories/cod/cif/7/04/76/7047679.cif $
#------------------------------------------------------------------------------
#
# This file is available in the Crystallography Open Database (COD),
# http://www.crystallography.net/
#
# All data on this site have been placed in the public domain by the
# contributors.
#
data_7047679
loop_
_publ_author_name
'Liu, Yi'
'Zhao, Yue'
'Liu, Xiao-Hui'
'Kang, Yan-Shang'
'Wang, Peng'
'Sun, Wei-Yin'
_publ_section_title
;
 Novel metal-organic frameworks with high stability for selectively
 sensing nitroaromatics.
;
_journal_issue                   43
_journal_name_full
'Dalton transactions (Cambridge, England : 2003)'
_journal_page_first              15399
_journal_page_last               15404
_journal_paper_doi               10.1039/c8dt03551b
_journal_volume                  47
_journal_year                    2018
_chemical_formula_moiety
'C35 H24 N2 O11 Zn2, 2[C3H7NO],1[CH4O], 1[H2O]'
_chemical_formula_sum            'C42 H44 N4 O15 Zn2'
_chemical_formula_weight         975.55
_space_group_crystal_system      monoclinic
_space_group_IT_number           14
_space_group_name_Hall           '-P 2ybc'
_space_group_name_H-M_alt        'P 1 21/c 1'
_symmetry_space_group_name_Hall  '-P 2ybc'
_symmetry_space_group_name_H-M   'P 1 21/c 1'
_atom_sites_solution_hydrogens   geom
_audit_creation_method           SHELXL-2016/6
_audit_update_record
;
2018-09-21 deposited with the CCDC.
2018-10-01 downloaded from the CCDC.
;
_cell_angle_alpha                90
_cell_angle_beta                 99.626(2)
_cell_angle_gamma                90
_cell_formula_units_Z            4
_cell_length_a                   20.228(3)
_cell_length_b                   16.090(2)
_cell_length_c                   14.644(2)
_cell_measurement_reflns_used    7465
_cell_measurement_temperature    153(2)
_cell_measurement_theta_max      27.50
_cell_measurement_theta_min      2.40
_cell_volume                     4699.1(11)
_computing_cell_refinement       'Bruker SMART'
_computing_data_collection       'Bruker SMART'
_computing_data_reduction        'Bruker SAINT'
_computing_molecular_graphics    'Bruker SHELXTL'
_computing_publication_material  'Bruker SHELXTL'
_computing_structure_refinement  'SHELXL-2016/6 (Sheldrick, 2016)'
_computing_structure_solution    'SHELXT 2014/4 (Sheldrick, 2014)'
_diffrn_ambient_temperature      153(2)
_diffrn_measured_fraction_theta_full 0.992
_diffrn_measured_fraction_theta_max 0.992
_diffrn_measurement_device_type  'CCD area detector'
_diffrn_measurement_method       'phi and omega scans'
_diffrn_radiation_type           MoK\a
_diffrn_radiation_wavelength     0.71073
_diffrn_reflns_av_R_equivalents  0.0399
_diffrn_reflns_av_unetI/netI     0.0439
_diffrn_reflns_Laue_measured_fraction_full 0.992
_diffrn_reflns_Laue_measured_fraction_max 0.992
_diffrn_reflns_limit_h_max       24
_diffrn_reflns_limit_h_min       -24
_diffrn_reflns_limit_k_max       17
_diffrn_reflns_limit_k_min       -19
_diffrn_reflns_limit_l_max       16
_diffrn_reflns_limit_l_min       -17
_diffrn_reflns_number            25617
_diffrn_reflns_point_group_measured_fraction_full 0.992
_diffrn_reflns_point_group_measured_fraction_max 0.992
_diffrn_reflns_theta_full        25.010
_diffrn_reflns_theta_max         25.010
_diffrn_reflns_theta_min         1.626
_diffrn_source                   'fine-focus sealed tube'
_exptl_absorpt_coefficient_mu    1.089
_exptl_absorpt_correction_T_max  0.813
_exptl_absorpt_correction_T_min  0.761
_exptl_absorpt_correction_type   multi-scan
_exptl_absorpt_process_details   SADABS
_exptl_crystal_colour            colorless
_exptl_crystal_density_diffrn    1.379
_exptl_crystal_description       block
_exptl_crystal_F_000             2016
_exptl_crystal_size_max          0.260
_exptl_crystal_size_mid          0.240
_exptl_crystal_size_min          0.190
_refine_diff_density_max         0.934
_refine_diff_density_min         -0.486
_refine_diff_density_rms         0.096
_refine_ls_extinction_method     none
_refine_ls_goodness_of_fit_ref   1.002
_refine_ls_hydrogen_treatment    constr
_refine_ls_matrix_type           full
_refine_ls_number_parameters     452
_refine_ls_number_reflns         8212
_refine_ls_number_restraints     0
_refine_ls_restrained_S_all      1.002
_refine_ls_R_factor_all          0.0716
_refine_ls_R_factor_gt           0.0468
_refine_ls_shift/su_max          0.001
_refine_ls_shift/su_mean         0.000
_refine_ls_structure_factor_coef Fsqd
_refine_ls_weighting_details
'w=1/[\s^2^(Fo^2^)+(0.1241P)^2^+3.0454P] where P=(Fo^2^+2Fc^2^)/3'
_refine_ls_weighting_scheme      calc
_refine_ls_wR_factor_gt          0.1550
_refine_ls_wR_factor_ref         0.1893
_reflns_Friedel_coverage         0.000
_reflns_number_gt                5570
_reflns_number_total             8212
_reflns_threshold_expression     'I > 2\s(I)'
_cod_data_source_file            c8dt03551b2.cif
_cod_data_source_block           1
_cod_depositor_comments
'Adding full bibliography for 7047679--7047680.cif.'
_cod_original_cell_volume        4699.0(11)
_cod_database_code               7047679
_shelx_shelxl_version_number     2016/6
_shelx_space_group_comment
;
The symmetry employed for this shelxl refinement is uniquely defined
by the following loop, which should always be used as a source of
symmetry information in preference to the above space-group names.
They are only intended as comments.
;
_shelx_estimated_absorpt_t_min   0.765
_shelx_estimated_absorpt_t_max   0.820
_shelx_res_file
;
TITL 1.res in P2(1)/c
    1.res
    created by SHELXL-2016/6 at 15:39:41 on 25-Jul-2018
CELL 0.71073  20.2276  16.0903  14.6440  90.000  99.626  90.000
ZERR   4.00   0.0028   0.0022   0.0020   0.000   0.002   0.000
LATT 1
SYMM -X, 0.5+Y, 0.5-Z
SFAC C  H  N  O  Zn
UNIT 168 176 16 60 8
L.S. 20
OMIT -3 50.02
OMIT 3 4 0
OMIT 0 12 0
OMIT -7 0 4
OMIT 5 7 0
OMIT 0 8 0
OMIT 1 4 0
OMIT 1 0 0
OMIT -5 0 4
OMIT -6 0 4
OMIT 0 6 0
OMIT 15 1 1
ACTA
BOND $H
ABIN
SIZE .26 .24 .19
FMAP 2
PLAN 40
TEMP -120
WGHT    0.124100    3.045400
FVAR       0.07232   1.19626
MOLE 1
ZN1   5    0.151348    0.498167    0.372690    11.00000    0.01066    0.01265 =
         0.01696   -0.00047    0.00316   -0.00010
ZN2   5    0.299975    0.500813    0.411052    11.00000    0.01020    0.01281 =
         0.01665    0.00023    0.00359   -0.00023
C1    1    0.629405    0.650628    0.140825    11.00000    0.02801    0.03761 =
         0.02874    0.00174    0.00457   -0.00360
C2    1    0.640284    0.589765    0.209337    11.00000    0.01867    0.04096 =
         0.02697    0.00037    0.00510   -0.00172
C3    1    0.702931    0.557366    0.237758    11.00000    0.01927    0.03949 =
         0.03236    0.00800    0.00626   -0.00008
AFIX  43
H3    2    0.709559    0.514932    0.283484    11.00000   -1.20000
AFIX   0
C4    1    0.756916    0.586909    0.199315    11.00000    0.01490    0.05456 =
         0.03725    0.00158    0.00554   -0.00089
C5    1    0.746805    0.647265    0.130510    11.00000    0.02799    0.06864 =
         0.04252    0.02231    0.01297   -0.00567
AFIX  43
H5    2    0.783393    0.666752    0.103362    11.00000   -1.20000
AFIX   0
C6    1    0.683241    0.678685    0.101905    11.00000    0.02875    0.05030 =
         0.03994    0.01537    0.00482    0.00051
AFIX  43
H6    2    0.676286    0.720041    0.054978    11.00000   -1.20000
AFIX   0
C7    1    0.562070    0.687627    0.111596    11.00000    0.03710    0.04673 =
         0.03958    0.00689    0.00201    0.00411
AFIX  43
H7    2    0.526673    0.670800    0.142701    11.00000   -1.20000
AFIX   0
C8    1    0.592752    0.511105    0.323970    11.00000    0.01547    0.04100 =
         0.03395    0.01234    0.00740   -0.00023
AFIX  23
H8A   2    0.627228    0.533165    0.374105    11.00000   -1.20000
H8B   2    0.606165    0.454585    0.307572    11.00000   -1.20000
AFIX   0
C9    1    0.525161    0.509308    0.353940    11.00000    0.01246    0.03153 =
         0.02883    0.00118    0.00233   -0.00045
C10   1    0.487841    0.581238    0.351142    11.00000    0.02060    0.03506 =
         0.05404    0.00669    0.01009   -0.00736
AFIX  43
H10   2    0.504745    0.632372    0.332201    11.00000   -1.20000
AFIX   0
C11   1    0.424711    0.576882    0.376831    11.00000    0.01915    0.02876 =
         0.04601   -0.00054    0.00805   -0.00085
AFIX  43
H11   2    0.398548    0.626121    0.374257    11.00000   -1.20000
AFIX   0
C12   1    0.436734    0.438859    0.409748    11.00000    0.02597    0.02208 =
         0.03429    0.00598    0.01092    0.00280
AFIX  43
H12   2    0.419474    0.388623    0.430444    11.00000   -1.20000
AFIX   0
C13   1    0.500409    0.438471    0.385646    11.00000    0.01896    0.03361 =
         0.04020    0.00719    0.00942    0.00697
AFIX  43
H13   2    0.526387    0.388982    0.391334    11.00000   -1.20000
AFIX   0
C14   1    0.835040    0.502227    0.298320    11.00000    0.01340    0.06729 =
         0.03769    0.00862    0.00611    0.00156
AFIX  23
H14A  2    0.815358    0.447422    0.278752    11.00000   -1.20000
H14B  2    0.816032    0.521508    0.352679    11.00000   -1.20000
AFIX   0
C15   1   -0.089352    0.496153    0.321865    11.00000    0.01214    0.05586 =
         0.03390    0.00600    0.00856    0.00041
C16   1   -0.053979    0.551583    0.381665    11.00000    0.02447    0.05356 =
         0.07114   -0.02791    0.00904    0.00861
AFIX  43
H16   2   -0.076638    0.592325    0.411818    11.00000   -1.20000
AFIX   0
C17   1    0.015426    0.547575    0.397749    11.00000    0.01770    0.04907 =
         0.05846   -0.03094    0.00222    0.00111
AFIX  43
H17   2    0.039473    0.585843    0.440290    11.00000   -1.20000
AFIX   0
C18   1    0.014471    0.437081    0.301672    11.00000    0.02786    0.04816 =
         0.07724   -0.03147    0.01129    0.00020
AFIX  43
H18   2    0.038195    0.395241    0.274729    11.00000   -1.20000
AFIX   0
C19   1   -0.054253    0.437193    0.282185    11.00000    0.02638    0.06420 =
         0.07080   -0.02851    0.00790   -0.00633
AFIX  43
H19   2   -0.077335    0.396763    0.241541    11.00000   -1.20000
AFIX   0
C20   1    0.225429    0.326417    0.191301    11.00000    0.01812    0.02550 =
         0.02372   -0.00568    0.00492    0.00229
C21   1    0.167513    0.294439    0.138280    11.00000    0.01753    0.02846 =
         0.03468   -0.01048    0.00487    0.00286
AFIX  43
H21   2    0.125019    0.316691    0.144647    11.00000   -1.20000
AFIX   0
C22   1    0.171434    0.230626    0.076534    11.00000    0.01650    0.02731 =
         0.03240   -0.00846    0.00116   -0.00066
AFIX  43
H22   2    0.131784    0.209373    0.040034    11.00000   -1.20000
AFIX   0
C23   1    0.233359    0.197577    0.067857    11.00000    0.01882    0.02143 =
         0.01793   -0.00433    0.00415    0.00011
C24   1    0.291241    0.229946    0.119986    11.00000    0.02133    0.02517 =
         0.03067   -0.00722    0.00763    0.00241
AFIX  43
H24   2    0.333736    0.208046    0.113060    11.00000   -1.20000
AFIX   0
C25   1    0.287440    0.293177    0.181254    11.00000    0.01596    0.02915 =
         0.02710   -0.00608    0.00023   -0.00298
AFIX  43
H25   2    0.327271    0.314571    0.217167    11.00000   -1.20000
AFIX   0
C26   1    0.221894    0.393475    0.260746    11.00000    0.02207    0.02212 =
         0.02192   -0.00616    0.00638   -0.00200
C27   1    0.236176    0.375798    0.504438    11.00000    0.02834    0.01483 =
         0.02486    0.00194    0.00532   -0.00253
C28   1    0.224588    0.674333    0.590576    11.00000    0.02252    0.01699 =
         0.02549   -0.00620    0.00164    0.00318
C29   1    0.163721    0.709285    0.601629    11.00000    0.02051    0.03207 =
         0.04052   -0.01590    0.00249   -0.00120
AFIX  43
H29   2    0.123179    0.689049    0.566461    11.00000   -1.20000
AFIX   0
C30   1    0.162108    0.773101    0.663388    11.00000    0.02029    0.03292 =
         0.03740   -0.01269    0.00482    0.00260
AFIX  43
H30   2    0.120187    0.796074    0.671370    11.00000   -1.20000
AFIX   0
C31   1    0.220606    0.804503    0.714218    11.00000    0.02185    0.01733 =
         0.02858   -0.00812    0.00181    0.00136
C32   1    0.281434    0.770530    0.703294    11.00000    0.01941    0.04117 =
         0.04239   -0.02343    0.00082   -0.00256
AFIX  43
H32   2    0.321819    0.791852    0.737819    11.00000   -1.20000
AFIX   0
C33   1    0.283701    0.705169    0.641857    11.00000    0.02413    0.03180 =
         0.04532   -0.02088    0.00349    0.00758
AFIX  43
H33   2    0.325591    0.681514    0.634839    11.00000   -1.20000
AFIX   0
C34   1    0.226616    0.605370    0.522250    11.00000    0.02694    0.02589 =
         0.01651   -0.00296    0.00188    0.00382
C35   1    0.218688    0.624019    0.280200    11.00000    0.02500    0.02377 =
         0.01970    0.00529    0.00276    0.00139
N1    3    0.399327    0.506788    0.404862    11.00000    0.01116    0.02131 =
         0.02312    0.00068    0.00049   -0.00080
N2    3    0.049609    0.493668    0.357262    11.00000    0.01437    0.02621 =
         0.02187   -0.00051    0.00507    0.00170
O1    4    0.550011    0.738670    0.049467    11.00000    0.04490    0.05855 =
         0.06088    0.01841   -0.00133    0.00536
O2    4    0.585071    0.564997    0.244156    11.00000    0.01496    0.06786 =
         0.04488    0.02552    0.00958    0.00266
O3    4    0.821245    0.560976    0.224139    11.00000    0.01616    0.06786 =
         0.04736    0.02020    0.01215    0.00169
O4    4    0.275608    0.420954    0.303065    11.00000    0.02732    0.04059 =
         0.03960   -0.02460    0.01040   -0.00627
O5    4    0.164138    0.418034    0.271971    11.00000    0.02403    0.04103 =
         0.03771   -0.02158    0.00009    0.00986
O6    4    0.293772    0.401835    0.495312    11.00000    0.02633    0.03117 =
         0.03858    0.01748    0.00304   -0.00525
O7    4    0.181850    0.405234    0.464925    11.00000    0.02965    0.02942 =
         0.03927    0.01976    0.00616    0.00149
O8    4    0.171260    0.579930    0.479124    11.00000    0.03518    0.03627 =
         0.03639   -0.02129    0.00860   -0.00270
O9    4    0.282878    0.576482    0.514336    11.00000    0.03295    0.04055 =
         0.03865   -0.02249   -0.00322    0.01242
O10   4    0.161984    0.595791    0.288085    11.00000    0.01752    0.03717 =
         0.04559    0.02365    0.00161   -0.00810
O11   4    0.273400    0.597259    0.321968    11.00000    0.02534    0.04222 =
         0.05127    0.03128    0.00166    0.00205
HKLF 4




REM  1.res in P2(1)/c
REM wR2 = 0.1893, GooF = S = 1.002, Restrained GooF = 1.002 for all data
REM R1 = 0.0468 for 5570 Fo > 4sig(Fo) and 0.0716 for all 8212 data
REM 452 parameters refined using 0 restraints

END

WGHT      0.0815      7.3634

REM Highest difference peak  0.934,  deepest hole -0.486,  1-sigma level  0.096
Q1    1   0.2971  0.4541  0.4626  11.00000  0.05    0.93
Q2    1   0.1524  0.4554  0.4208  11.00000  0.05    0.81
Q3    1   0.1642  0.5470  0.3242  11.00000  0.05    0.78
Q4    1   0.2961  0.5446  0.4641  11.00000  0.05    0.77
Q5    1   0.1505  0.5432  0.4289  11.00000  0.05    0.73
Q6    1   0.3084  0.5443  0.3642  11.00000  0.05    0.71
Q7    1   0.3101  0.4543  0.3623  11.00000  0.05    0.70
Q8    1   0.1638  0.4497  0.3303  11.00000  0.05    0.68
Q9    1   0.2796  0.4272  0.5215  11.00000  0.05    0.53
Q10   1   0.1799  0.4311  0.2630  11.00000  0.05    0.50
Q11   1   0.1720  0.6109  0.3176  11.00000  0.05    0.46
Q12   1   0.3030  0.2123  0.1179  11.00000  0.05    0.44
Q13   1   0.2386  0.1702  0.0386  11.00000  0.05    0.44
Q14   1   0.1745  0.3894  0.3036  11.00000  0.05    0.43
Q15   1   0.8188  0.4417  0.2227  11.00000  0.05    0.42
Q16   1   0.1756  0.5703  0.2667  11.00000  0.05    0.41
Q17   1   0.2475  0.6985  0.5949  11.00000  0.05    0.39
Q18   1   0.0104  0.4990  0.3398  11.00000  0.05    0.39
Q19   1   0.1934  0.6922  0.6000  11.00000  0.05    0.38
Q20   1   0.3182  0.6389  0.3265  11.00000  0.05    0.38
Q21   1   0.2521  0.3181  0.1823  11.00000  0.05    0.38
Q22   1   0.3015  0.4157  0.2873  11.00000  0.05    0.38
Q23   1   0.6015  0.5152  0.3035  11.00000  0.05    0.38
Q24   1   0.1867  0.3168  0.1470  11.00000  0.05    0.37
Q25   1   0.4095  0.4856  0.3886  11.00000  0.05    0.37
Q26   1   0.2677  0.3899  0.3341  11.00000  0.05    0.37
Q27   1   0.5273  0.4718  0.3485  11.00000  0.05    0.37
Q28   1   0.2809  0.3931  0.4690  11.00000  0.05    0.36
Q29   1   0.5441  0.5161  0.3402  11.00000  0.05    0.36
Q30   1   0.5237  0.5318  0.3629  11.00000  0.05    0.36
Q31   1   0.3084  0.3811  0.5188  11.00000  0.05    0.35
Q32   1   0.1659  0.2077  0.1019  11.00000  0.05    0.35
Q33   1   0.2433  0.7798  0.7176  11.00000  0.05    0.35
Q34   1   0.2214  0.8272  0.7397  11.00000  0.05    0.35
Q35   1   0.1520  0.3894  0.4126  11.00000  0.05    0.35
Q36   1   0.2290  0.1875  0.0902  11.00000  0.05    0.34
Q37   1   0.2291  0.8317  0.6883  11.00000  0.05    0.34
Q38   1  -0.0507  0.4866  0.2519  11.00000  0.05    0.34
Q39   1   0.4393  0.5007  0.4463  11.00000  0.05    0.34
Q40   1   0.3002  0.7896  0.6914  11.00000  0.05    0.34
;
_shelx_res_checksum              99588
_shelx_fab_file
;
    0    0    2    132.59      0.00
    0    0    4      0.17      0.00
    0    0    6     27.50      0.00
    0    0    8     21.25      0.00
    0    0   10     -2.88      0.00
    0    0   12      5.40      0.00
    0    0   14      3.16      0.00
    0    0   16     -1.15      0.00
    0    0   18      1.56      0.00
    0    1    1   -223.13      0.00
    0    1    2    -47.53      0.00
    0    1    3    -19.91      0.00
    0    1    4     25.47      0.00
    0    1    5      4.43      0.00
    0    1    6    -13.68      0.00
    0    1    7     -9.45      0.00
    0    1    8    -12.61      0.00
    0    1    9     -6.11      0.00
    0    1   10     -4.54      0.00
    0    1   11      1.86      0.00
    0    1   12      2.86      0.00
    0    1   13     -3.02      0.00
    0    1   14     -1.00      0.00
    0    1   15     -0.02      0.00
    0    1   16      5.13      0.00
    0    1   17      0.09      0.00
    0    1   18      1.92      0.00
    0    2    1     39.30      0.00
    0    2    2     65.43      0.00
    0    2    3     12.38      0.00
    0    2    4      0.30      0.00
    0    2    5     -2.56      0.00
    0    2    6    -14.76      0.00
    0    2    7      5.84      0.00
    0    2    8     -3.36      0.00
    0    2    9      7.97      0.00
    0    2   10      3.75      0.00
    0    2   11     -2.78      0.00
    0    2   12     -4.32      0.00
    0    2   13     -4.57      0.00
    0    2   14      0.60      0.00
    0    2   15     -1.05      0.00
    0    2   16      1.26      0.00
    0    2   17     -2.01      0.00
    0    2   18     -0.23      0.00
    0    3    1     41.10      0.00
    0    3    2     -6.05      0.00
    0    3    3    -57.77      0.00
    0    3    4    -19.99      0.00
    0    3    5    -18.14      0.00
    0    3    6     13.96      0.00
    0    3    7     -3.68      0.00
    0    3    8     -1.20      0.00
    0    3    9      0.06      0.00
    0    3   10      0.38      0.00
    0    3   11     -1.49      0.00
    0    3   12      2.59      0.00
    0    3   13      1.52      0.00
    0    3   14      3.55      0.00
    0    3   15     -2.31      0.00
    0    3   16     -2.20      0.00
    0    3   17     -2.08      0.00
    0    3   18     -0.36      0.00
    0    4    1    -18.35      0.00
    0    4    2     -7.67      0.00
    0    4    3     16.40      0.00
    0    4    4     51.85      0.00
    0    4    5     -5.15      0.00
    0    4    6     17.69      0.00
    0    4    7      0.38      0.00
    0    4    8      2.87      0.00
    0    4    9     -0.47      0.00
    0    4   10     -0.68      0.00
    0    4   11      0.77      0.00
    0    4   12      3.99      0.00
    0    4   13      1.50      0.00
    0    4   14      0.23      0.00
    0    4   15     -0.97      0.00
    0    4   16      0.61      0.00
    0    4   17      1.70      0.00
    0    4   18      1.25      0.00
    0    5    1     10.60      0.00
    0    5    2     11.63      0.00
    0    5    3      4.77      0.00
    0    5    4      5.34      0.00
    0    5    5    -12.16      0.00
    0    5    6     -6.97      0.00
    0    5    7     17.39      0.00
    0    5    8      2.17      0.00
    0    5    9     -0.47      0.00
    0    5   10      1.92      0.00
    0    5   11     -3.46      0.00
    0    5   12     -1.17      0.00
    0    5   13     -2.15      0.00
    0    5   14      0.13      0.00
    0    5   15      3.16      0.00
    0    5   16      2.56      0.00
    0    5   17      1.83      0.00
    0    5   18     -1.30      0.00
    0    6    0    -25.49      0.00
    0    6    1     -8.49      0.00
    0    6    3    -33.76      0.00
    0    6    4    -13.40      0.00
    0    6    5     10.61      0.00
    0    6    6    -16.78      0.00
    0    6    7     -8.91      0.00
    0    6    8    -16.17      0.00
    0    6    9     -7.72      0.00
    0    6   10      6.65      0.00
    0    6   11     -1.99      0.00
    0    6   12      2.22      0.00
    0    6   13     -3.10      0.00
    0    6   14     -1.60      0.00
    0    6   15     -3.43      0.00
    0    6   16     -4.56      0.00
    0    6   17     -1.01      0.00
    0    7    1      2.08      0.00
    0    7    2     23.57      0.00
    0    7    3      4.30      0.00
    0    7    4     11.06      0.00
    0    7    5     10.02      0.00
    0    7    6      0.90      0.00
    0    7    7     -0.02      0.00
    0    7    8      7.92      0.00
    0    7    9     10.15      0.00
    0    7   10      2.77      0.00
    0    7   11     -1.14      0.00
    0    7   12      1.82      0.00
    0    7   13     -1.53      0.00
    0    7   14      4.16      0.00
    0    7   15      2.11      0.00
    0    7   16     -0.74      0.00
    0    7   17      3.28      0.00
    0    8    0    -15.57      0.00
    0    8    1     -4.28      0.00
    0    8    2    -13.50      0.00
    0    8    3      1.55      0.00
    0    8    4    -10.52      0.00
    0    8    5    -16.80      0.00
    0    8    6      1.67      0.00
    0    8    7      9.67      0.00
    0    8    8     -1.33      0.00
    0    8    9      2.77      0.00
    0    8   10    -18.28      0.00
    0    8   11      1.05      0.00
    0    8   12      0.44      0.00
    0    8   13     -0.26      0.00
    0    8   14      1.66      0.00
    0    8   15      1.60      0.00
    0    8   16     -2.33      0.00
    0    8   17      2.84      0.00
    0    9    1     22.89      0.00
    0    9    2    -13.87      0.00
    0    9    3     17.51      0.00
    0    9    4      4.52      0.00
    0    9    5      8.21      0.00
    0    9    6      5.53      0.00
    0    9    7      2.22      0.00
    0    9    8    -11.60      0.00
    0    9    9      6.46      0.00
    0    9   10     -2.43      0.00
    0    9   11      9.08      0.00
    0    9   12     -0.72      0.00
    0    9   13     -1.41      0.00
    0    9   14     -2.78      0.00
    0    9   15     -0.28      0.00
    0    9   16     -2.10      0.00
    0   10    1      9.95      0.00
    0   10    2    -12.04      0.00
    0   10    3      5.19      0.00
    0   10    4     -2.48      0.00
    0   10    5      1.46      0.00
    0   10    6     -1.61      0.00
    0   10    7     -9.24      0.00
    0   10    8      1.50      0.00
    0   10    9      2.19      0.00
    0   10   10      6.46      0.00
    0   10   11     -1.63      0.00
    0   10   12     -1.17      0.00
    0   10   13     -0.49      0.00
    0   10   14      0.90      0.00
    0   10   15     -0.52      0.00
    0   10   16      0.54      0.00
    0   11    1     14.67      0.00
    0   11    2     -3.55      0.00
    0   11    3     -3.80      0.00
    0   11    4     -3.35      0.00
    0   11    5     -4.14      0.00
    0   11    6      3.78      0.00
    0   11    7     -2.86      0.00
    0   11    8      8.18      0.00
    0   11    9     -6.81      0.00
    0   11   10     -0.38      0.00
    0   11   11     -7.18      0.00
    0   11   12      0.19      0.00
    0   11   13      0.77      0.00
    0   11   14      3.05      0.00
    0   11   15     -0.99      0.00
    0   12    0    -51.50      0.00
    0   12    1     -1.92      0.00
    0   12    2     -7.26      0.00
    0   12    3     -0.05      0.00
    0   12    4      1.00      0.00
    0   12    5     -3.10      0.00
    0   12    6     -1.02      0.00
    0   12    7      3.43      0.00
    0   12    8     -0.33      0.00
    0   12    9     -0.49      0.00
    0   12   10      1.51      0.00
    0   12   11      3.11      0.00
    0   12   12      1.12      0.00
    0   12   13      0.59      0.00
    0   12   14     -0.18      0.00
    0   12   15     -1.29      0.00
    0   13    1     24.85      0.00
    0   13    2      6.27      0.00
    0   13    3      3.16      0.00
    0   13    4      5.22      0.00
    0   13    5      4.12      0.00
    0   13    6     -1.17      0.00
    0   13    7      3.81      0.00
    0   13    8     -3.98      0.00
    0   13    9      0.95      0.00
    0   13   10     -0.46      0.00
    0   13   11      1.69      0.00
    0   13   12      0.51      0.00
    0   13   13     -0.09      0.00
    0   13   14     -0.57      0.00
    0   14    0      1.68      0.00
    0   14    1     -3.31      0.00
    0   14    2     -6.74      0.00
    0   14    3     -7.59      0.00
    0   14    4     -1.43      0.00
    0   14    5      0.43      0.00
    0   14    6     -0.20      0.00
    0   14    7     -2.06      0.00
    0   14    8      1.10      0.00
    0   14    9     -0.07      0.00
    0   14   10      1.17      0.00
    0   14   11     -2.01      0.00
    0   14   12     -1.26      0.00
    0   14   13     -2.28      0.00
    0   15    1     -4.60      0.00
    0   15    2      1.53      0.00
    0   15    3      0.71      0.00
    0   15    4     -1.80      0.00
    0   15    5     -1.19      0.00
    0   15    6     -0.84      0.00
    0   15    7     -3.02      0.00
    0   15    8      2.97      0.00
    0   15    9     -1.20      0.00
    0   15   10      0.92      0.00
    0   15   11     -2.46      0.00
    0   15   12      1.06      0.00
    0   16    0      4.46      0.00
    0   16    1     -0.37      0.00
    0   16    2      2.55      0.00
    0   16    3      4.40      0.00
    0   16    4      0.05      0.00
    0   16    5      0.19      0.00
    0   16    6     -0.12      0.00
    0   16    7     -0.24      0.00
    0   16    8     -1.01      0.00
    0   16    9     -1.65      0.00
    0   16   10      2.00      0.00
    0   16   11     -1.10      0.00
    0   17    1     -1.72      0.00
    0   17    2     -4.13      0.00
    0   17    3      0.16      0.00
    0   17    4      0.08      0.00
    0   17    5     -0.31      0.00
    0   17    6      1.94      0.00
    0   17    7      2.04      0.00
    0   17    8     -1.01      0.00
    0   17    9     -0.56      0.00
    0   17   10      1.22      0.00
    0   18    0     -2.79      0.00
    0   18    1      5.97      0.00
    0   18    2      1.38      0.00
    0   18    3      1.10      0.00
    0   18    4      0.92      0.00
    0   18    5     -0.51      0.00
    0   18    6     -0.37      0.00
    0   18    7      1.36      0.00
    0   18    8     -0.76      0.00
    0   18    9     -0.15      0.00
    0   19    1     -1.00      0.00
    0   19    2     -3.23      0.00
    0   19    3     -3.09      0.00
    0   19    4      0.74      0.00
    0   19    5      1.57      0.00
    0   19    6     -2.31      0.00
    0   19    7      1.15      0.00
    0   20    0      3.61      0.00
    0   20    1      0.12      0.00
    0   20    2      3.87      0.00
    0   20    3      1.93      0.00
    0   20    4     -0.54      0.00
    0   20    5      0.45      0.00
   -1    0   18      1.11      0.00
   -1    0   16      1.71      0.00
   -1    0   14      0.62      0.00
   -1    0   12      7.71      0.00
   -1    0   10     10.65      0.00
   -1    0    8      3.80      0.00
   -1    0    6     34.30      0.00
   -1    0    4     12.87      0.00
   -1    0    2     50.58      0.00
    1    0    0     31.49      0.00
    1    0    2    118.33      0.00
    1    0    4      7.19      0.00
    1    0    6     29.02      0.00
    1    0    8      6.04      0.00
    1    0   10      7.50      0.00
    1    0   12      2.96      0.00
    1    0   14     -3.54      0.00
    1    0   16     -4.39      0.00
    1    0   18     -2.00      0.00
   -1    1   18     -0.20      0.00
   -1    1   17     -1.52      0.00
   -1    1   16      2.47      0.00
   -1    1   15     -1.94      0.00
   -1    1   14      1.08      0.00
   -1    1   13     -0.13      0.00
   -1    1   12     -5.26      0.00
   -1    1   11     -5.01      0.00
   -1    1   10      6.88      0.00
   -1    1    9     -4.95      0.00
   -1    1    8    -16.29      0.00
   -1    1    7     -2.89      0.00
   -1    1    6    -15.80      0.00
   -1    1    5     -3.78      0.00
   -1    1    4    -23.05      0.00
   -1    1    3    -29.54      0.00
   -1    1    2     37.87      0.00
   -1    1    1      1.24      0.00
    1    1    0     91.67      0.00
    1    1    1     -3.88      0.00
    1    1    2    113.26      0.00
    1    1    3    -32.61      0.00
    1    1    4      1.61      0.00
    1    1    5     -2.87      0.00
    1    1    6    -13.53      0.00
    1    1    7      2.41      0.00
    1    1    8    -19.21      0.00
    1    1    9     -1.51      0.00
    1    1   10      2.08      0.00
    1    1   11     -3.34      0.00
    1    1   12     -3.40      0.00
    1    1   13      2.83      0.00
    1    1   14     -1.24      0.00
    1    1   15      2.07      0.00
    1    1   16      0.96      0.00
    1    1   17      1.06      0.00
    1    1   18      1.11      0.00
   -1    2   18     -0.29      0.00
   -1    2   17     -0.48      0.00
   -1    2   16      2.20      0.00
   -1    2   15     -2.65      0.00
   -1    2   14     -0.41      0.00
   -1    2   13     -0.93      0.00
   -1    2   12     -5.56      0.00
   -1    2   11      0.59      0.00
   -1    2   10     -1.37      0.00
   -1    2    9     -2.26      0.00
   -1    2    8      3.75      0.00
   -1    2    7      8.24      0.00
   -1    2    6    -21.56      0.00
   -1    2    5     34.15      0.00
   -1    2    4     27.25      0.00
   -1    2    3     -1.89      0.00
   -1    2    2     -6.77      0.00
   -1    2    1     -6.35      0.00
    1    2    0    -43.19      0.00
    1    2    1   -172.51      0.00
    1    2    2    -88.88      0.00
    1    2    3    -77.13      0.00
    1    2    4     20.27      0.00
    1    2    5     16.19      0.00
    1    2    6    -28.73      0.00
    1    2    7     13.00      0.00
    1    2    8     -6.66      0.00
    1    2    9     -3.90      0.00
    1    2   10     -2.04      0.00
    1    2   11      0.93      0.00
    1    2   12     -3.03      0.00
    1    2   13      0.05      0.00
    1    2   14     -2.71      0.00
    1    2   15     -0.65      0.00
    1    2   16      2.13      0.00
    1    2   17      0.05      0.00
    1    2   18      0.81      0.00
   -1    3   18      1.65      0.00
   -1    3   17     -0.25      0.00
   -1    3   16      0.54      0.00
   -1    3   15      0.11      0.00
   -1    3   14      0.37      0.00
   -1    3   13      2.31      0.00
   -1    3   12      1.58      0.00
   -1    3   11      5.75      0.00
   -1    3   10     -4.15      0.00
   -1    3    9     -0.57      0.00
   -1    3    8     12.43      0.00
   -1    3    7    -13.79      0.00
   -1    3    6    -25.75      0.00
   -1    3    5    -37.96      0.00
   -1    3    4    -16.34      0.00
   -1    3    3    -11.60      0.00
   -1    3    2     -9.57      0.00
   -1    3    1    -18.67      0.00
    1    3    1     43.20      0.00
    1    3    2    105.20      0.00
    1    3    3     54.25      0.00
    1    3    4     32.78      0.00
    1    3    5     -4.37      0.00
    1    3    6    -16.47      0.00
    1    3    7     -4.81      0.00
    1    3    8     15.91      0.00
    1    3    9      1.01      0.00
    1    3   10      4.27      0.00
    1    3   11      4.23      0.00
    1    3   12     -0.04      0.00
    1    3   13      1.44      0.00
    1    3   14      1.81      0.00
    1    3   15      1.05      0.00
    1    3   16      0.86      0.00
    1    3   17     -0.95      0.00
    1    3   18      0.68      0.00
   -1    4   18      0.28      0.00
   -1    4   17     -0.29      0.00
   -1    4   16     -0.33      0.00
   -1    4   15      2.75      0.00
   -1    4   14      1.86      0.00
   -1    4   13      6.10      0.00
   -1    4   12     -0.14      0.00
   -1    4   11      0.96      0.00
   -1    4   10     -2.78      0.00
   -1    4    9      0.80      0.00
   -1    4    8      8.88      0.00
   -1    4    7     21.28      0.00
   -1    4    6     58.06      0.00
   -1    4    5     26.55      0.00
   -1    4    4     10.84      0.00
   -1    4    3     15.82      0.00
   -1    4    2     29.73      0.00
   -1    4    1     69.76      0.00
    1    4    0     17.98      0.00
    1    4    1     -3.35      0.00
    1    4    2     -6.75      0.00
    1    4    3    -47.34      0.00
    1    4    4    -53.72      0.00
    1    4    5    -10.60      0.00
    1    4    6     29.19      0.00
    1    4    7      3.77      0.00
    1    4    8     10.96      0.00
    1    4    9     -5.56      0.00
    1    4   10     -4.00      0.00
    1    4   11     -3.34      0.00
    1    4   12     -1.21      0.00
    1    4   13      1.58      0.00
    1    4   14      0.71      0.00
    1    4   15     -0.79      0.00
    1    4   16     -2.04      0.00
    1    4   17     -2.98      0.00
    1    4   18      0.04      0.00
   -1    5   18     -2.06      0.00
   -1    5   17     -0.99      0.00
   -1    5   16     -1.94      0.00
   -1    5   15     -2.40      0.00
   -1    5   14     -6.60      0.00
   -1    5   13     -1.84      0.00
   -1    5   12     -4.10      0.00
   -1    5   11     -0.51      0.00
   -1    5   10      3.72      0.00
   -1    5    9     -1.66      0.00
   -1    5    8    -24.45      0.00
   -1    5    7    -17.93      0.00
   -1    5    6    -20.47      0.00
   -1    5    5      3.54      0.00
   -1    5    4    -21.94      0.00
   -1    5    3    -13.70      0.00
   -1    5    2    -45.72      0.00
   -1    5    1     -0.83      0.00
    1    5    0     28.22      0.00
    1    5    1     -1.76      0.00
    1    5    2    -11.89      0.00
    1    5    3     14.36      0.00
    1    5    4     24.28      0.00
    1    5    5     29.07      0.00
    1    5    7     -6.31      0.00
    1    5    8    -11.41      0.00
    1    5    9     -0.51      0.00
    1    5   10      4.84      0.00
    1    5   11     -0.29      0.00
    1    5   12      4.36      0.00
    1    5   13     -1.45      0.00
    1    5   14     -1.51      0.00
    1    5   15      0.27      0.00
    1    5   16      1.93      0.00
    1    5   17      0.52      0.00
   -1    6   17      1.25      0.00
   -1    6   16      1.72      0.00
   -1    6   15      2.54      0.00
   -1    6   14     -0.51      0.00
   -1    6   13     -1.21      0.00
   -1    6   12      1.29      0.00
   -1    6   11     -3.46      0.00
   -1    6   10      5.36      0.00
   -1    6    9      8.92      0.00
   -1    6    8      6.97      0.00
   -1    6    7      4.22      0.00
   -1    6    6    -26.54      0.00
   -1    6    5      0.85      0.00
   -1    6    4      5.70      0.00
   -1    6    2     -0.12      0.00
   -1    6    1     -3.27      0.00
    1    6    0     -9.78      0.00
    1    6    1    -28.62      0.00
    1    6    2      1.79      0.00
    1    6    3     -1.36      0.00
    1    6    4     10.54      0.00
    1    6    5    -28.77      0.00
    1    6    6    -32.07      0.00
    1    6    7     -8.04      0.00
    1    6    8     -2.61      0.00
    1    6    9      0.95      0.00
    1    6   10      5.29      0.00
    1    6   11     -7.66      0.00
    1    6   12      5.08      0.00
    1    6   13     -6.01      0.00
    1    6   14     -0.74      0.00
    1    6   15      1.11      0.00
    1    6   16     -0.54      0.00
    1    6   17     -2.34      0.00
   -1    7   17     -1.68      0.00
   -1    7   16     -1.41      0.00
   -1    7   15      0.94      0.00
   -1    7   14      2.20      0.00
   -1    7   13     -0.12      0.00
   -1    7   12      6.21      0.00
   -1    7   11     -4.07      0.00
   -1    7   10     -6.22      0.00
   -1    7    9     -5.41      0.00
   -1    7    8      1.62      0.00
   -1    7    7     13.37      0.00
   -1    7    6     10.70      0.00
   -1    7    5     -7.72      0.00
   -1    7    4     -1.95      0.00
   -1    7    3     -3.59      0.00
   -1    7    2      0.12      0.00
   -1    7    1      1.31      0.00
    1    7    0     10.89      0.00
    1    7    1     -2.23      0.00
    1    7    2     26.39      0.00
    1    7    3    -20.17      0.00
    1    7    4     11.28      0.00
    1    7    5     -6.74      0.00
    1    7    6     17.25      0.00
    1    7    7     15.70      0.00
    1    7    8      5.69      0.00
    1    7    9     -2.76      0.00
    1    7   10      0.18      0.00
    1    7   11     -4.92      0.00
    1    7   12      5.74      0.00
    1    7   13     -1.76      0.00
    1    7   14      2.30      0.00
    1    7   15      0.64      0.00
    1    7   16     -1.18      0.00
    1    7   17      0.35      0.00
   -1    8   17      1.84      0.00
   -1    8   16      1.41      0.00
   -1    8   15     -1.19      0.00
   -1    8   14      0.74      0.00
   -1    8   13     -0.86      0.00
   -1    8   12     -0.20      0.00
   -1    8   11      3.38      0.00
   -1    8   10     -2.06      0.00
   -1    8    9      5.15      0.00
   -1    8    8    -14.04      0.00
   -1    8    7      0.32      0.00
   -1    8    6      8.41      0.00
   -1    8    5     -2.36      0.00
   -1    8    4      2.96      0.00
   -1    8    3     -8.56      0.00
   -1    8    2     -7.86      0.00
   -1    8    1     26.72      0.00
    1    8    0     -7.95      0.00
    1    8    1      0.42      0.00
    1    8    2      0.88      0.00
    1    8    3     -9.70      0.00
    1    8    4      4.97      0.00
    1    8    5      0.09      0.00
    1    8    6      4.89      0.00
    1    8    7     -3.31      0.00
    1    8    8     -9.30      0.00
    1    8    9      7.25      0.00
    1    8   10     -1.58      0.00
    1    8   11      4.58      0.00
    1    8   12     -3.07      0.00
    1    8   13      0.41      0.00
    1    8   14      0.92      0.00
    1    8   15     -0.84      0.00
    1    8   16      1.11      0.00
    1    8   17      3.50      0.00
   -1    9   16      0.00      0.00
   -1    9   15     -2.67      0.00
   -1    9   14      0.97      0.00
   -1    9   13      1.65      0.00
   -1    9   12     -5.86      0.00
   -1    9   11      4.62      0.00
   -1    9   10     -0.91      0.00
   -1    9    9     11.62      0.00
   -1    9    8     -1.53      0.00
   -1    9    7      2.08      0.00
   -1    9    6     -2.27      0.00
   -1    9    5      3.57      0.00
   -1    9    4      4.67      0.00
   -1    9    3      5.75      0.00
   -1    9    2    -12.86      0.00
   -1    9    1     17.34      0.00
    1    9    0     10.92      0.00
    1    9    1     12.07      0.00
    1    9    2     -9.53      0.00
    1    9    3      5.60      0.00
    1    9    4     -4.80      0.00
    1    9    5     -1.18      0.00
    1    9    6     -5.17      0.00
    1    9    7      1.76      0.00
    1    9    8     -3.62      0.00
    1    9    9      5.79      0.00
    1    9   10     -9.22      0.00
    1    9   11      3.68      0.00
    1    9   12     -6.22      0.00
    1    9   13      3.82      0.00
    1    9   14      1.43      0.00
    1    9   15     -0.35      0.00
    1    9   16     -1.38      0.00
   -1   10   16      1.91      0.00
   -1   10   15     -1.12      0.00
   -1   10   14      1.61      0.00
   -1   10   13     -0.06      0.00
   -1   10   12     -1.98      0.00
   -1   10   11      0.52      0.00
   -1   10   10     -4.00      0.00
   -1   10    9     -9.65      0.00
   -1   10    8      2.38      0.00
   -1   10    7     -8.14      0.00
   -1   10    6     -2.87      0.00
   -1   10    5     -3.88      0.00
   -1   10    4      1.61      0.00
   -1   10    3      7.73      0.00
   -1   10    2     -2.53      0.00
   -1   10    1     -4.80      0.00
    1   10    0     -2.24      0.00
    1   10    1    -13.46      0.00
    1   10    2      0.79      0.00
    1   10    3      7.58      0.00
    1   10    4      2.81      0.00
    1   10    5      6.67      0.00
    1   10    6      3.18      0.00
    1   10    7     -0.08      0.00
    1   10    8      2.99      0.00
    1   10    9     -5.06      0.00
    1   10   10      1.47      0.00
    1   10   11      4.95      0.00
    1   10   12      0.47      0.00
    1   10   13     -2.27      0.00
    1   10   14     -1.97      0.00
    1   10   15     -1.92      0.00
    1   10   16     -0.23      0.00
   -1   11   15     -2.10      0.00
   -1   11   14      0.78      0.00
   -1   11   13     -2.22      0.00
   -1   11   12      2.02      0.00
   -1   11   11      0.35      0.00
   -1   11   10      4.92      0.00
   -1   11    9     -3.03      0.00
   -1   11    8     11.64      0.00
   -1   11    7     -1.42      0.00
   -1   11    6      6.80      0.00
   -1   11    5     -4.96      0.00
   -1   11    4     -2.70      0.00
   -1   11    3     -0.81      0.00
   -1   11    2      6.43      0.00
   -1   11    1     -9.93      0.00
    1   11    0      3.26      0.00
    1   11    1     -9.63      0.00
    1   11    2     11.91      0.00
    1   11    3      1.65      0.00
    1   11    4     -6.97      0.00
    1   11    5     -2.68      0.00
    1   11    6     -2.29      0.00
    1   11    7     -6.05      0.00
    1   11    8      6.07      0.00
    1   11    9     -4.23      0.00
    1   11   10      3.16      0.00
    1   11   11     -3.00      0.00
    1   11   12      2.14      0.00
    1   11   13     -1.96      0.00
    1   11   14      4.00      0.00
    1   11   15     -1.34      0.00
   -1   12   15     -0.83      0.00
   -1   12   14     -0.04      0.00
   -1   12   13      1.34      0.00
   -1   12   12      1.27      0.00
   -1   12   11     -1.84      0.00
   -1   12   10     -0.21      0.00
   -1   12    9     -0.22      0.00
   -1   12    8     -1.83      0.00
   -1   12    7      0.46      0.00
   -1   12    6     -0.08      0.00
   -1   12    5      2.08      0.00
   -1   12    4     -6.18      0.00
   -1   12    3     -2.52      0.00
   -1   12    2     -2.03      0.00
   -1   12    1      2.16      0.00
    1   12    0      9.42      0.00
    1   12    1      4.45      0.00
    1   12    2     -5.79      0.00
    1   12    3      0.73      0.00
    1   12    4    -10.23      0.00
    1   12    5      3.46      0.00
    1   12    6     -0.19      0.00
    1   12    7      1.55      0.00
    1   12    8      0.93      0.00
    1   12    9      3.72      0.00
    1   12   10      0.38      0.00
    1   12   11     -2.10      0.00
    1   12   12      0.45      0.00
    1   12   13     -1.40      0.00
    1   12   14      2.50      0.00
    1   12   15     -3.15      0.00
   -1   13   14     -1.55      0.00
   -1   13   13      0.83      0.00
   -1   13   12     -0.61      0.00
   -1   13   11     -0.17      0.00
   -1   13   10      0.97      0.00
   -1   13    9      2.44      0.00
   -1   13    8     -4.29      0.00
   -1   13    7      2.22      0.00
   -1   13    6     -1.27      0.00
   -1   13    5      8.73      0.00
   -1   13    4      1.72      0.00
   -1   13    3      7.47      0.00
   -1   13    2     -5.04      0.00
   -1   13    1      2.38      0.00
    1   13    0     -6.83      0.00
    1   13    1     -0.29      0.00
    1   13    2    -13.24      0.00
    1   13    3      7.78      0.00
    1   13    4      0.76      0.00
    1   13    5      4.93      0.00
    1   13    6      0.09      0.00
    1   13    7      2.87      0.00
    1   13    8     -4.71      0.00
    1   13    9      0.82      0.00
    1   13   10     -1.96      0.00
    1   13   11      1.18      0.00
    1   13   12      1.06      0.00
    1   13   13     -0.37      0.00
    1   13   14      1.42      0.00
   -1   14   13      1.37      0.00
   -1   14   12     -0.93      0.00
   -1   14   11     -1.31      0.00
   -1   14   10     -0.90      0.00
   -1   14    9     -1.34      0.00
   -1   14    8      1.36      0.00
   -1   14    7     -2.07      0.00
   -1   14    6     -3.46      0.00
   -1   14    5     -3.49      0.00
   -1   14    4     -1.31      0.00
   -1   14    3      1.88      0.00
   -1   14    2     -3.22      0.00
   -1   14    1     -1.89      0.00
    1   14    0     -1.29      0.00
    1   14    1     10.10      0.00
    1   14    2      2.02      0.00
    1   14    3      3.32      0.00
    1   14    4      2.16      0.00
    1   14    5     -2.39      0.00
    1   14    6      0.11      0.00
    1   14    7     -1.99      0.00
    1   14    8     -0.55      0.00
    1   14    9     -0.88      0.00
    1   14   10     -0.57      0.00
    1   14   11      0.93      0.00
    1   14   12     -0.77      0.00
    1   14   13     -0.69      0.00
   -1   15   13     -0.22      0.00
   -1   15   12     -0.10      0.00
   -1   15   11      2.05      0.00
   -1   15   10      1.05      0.00
   -1   15    9     -2.15      0.00
   -1   15    8      2.67      0.00
   -1   15    7      0.09      0.00
   -1   15    6      1.01      0.00
   -1   15    5     -2.71      0.00
   -1   15    4     -2.58      0.00
   -1   15    3     -1.19      0.00
   -1   15    2      0.61      0.00
   -1   15    1      0.06      0.00
    1   15    0     -4.41      0.00
    1   15    1     -3.22      0.00
    1   15    2     -2.04      0.00
    1   15    3     -3.94      0.00
    1   15    4     -1.63      0.00
    1   15    5     -4.61      0.00
    1   15    6      1.30      0.00
    1   15    7     -0.43      0.00
    1   15    8      2.51      0.00
    1   15    9      0.04      0.00
    1   15   10     -0.77      0.00
    1   15   11      1.31      0.00
    1   15   12     -1.12      0.00
   -1   16   12      0.26      0.00
   -1   16   11      0.74      0.00
   -1   16   10     -0.18      0.00
   -1   16    9      0.75      0.00
   -1   16    8      0.30      0.00
   -1   16    7      0.74      0.00
   -1   16    6     -0.76      0.00
   -1   16    5      2.98      0.00
   -1   16    4      1.16      0.00
   -1   16    3      0.40      0.00
   -1   16    2     -0.32      0.00
   -1   16    1     -1.19      0.00
    1   16    0      3.21      0.00
    1   16    1      1.99      0.00
    1   16    2      2.64      0.00
    1   16    3     -0.45      0.00
    1   16    4      1.56      0.00
    1   16    5      0.92      0.00
    1   16    6     -0.11      0.00
    1   16    7     -0.27      0.00
    1   16    8     -1.51      0.00
    1   16    9      2.19      0.00
    1   16   10     -0.53      0.00
    1   16   11      0.91      0.00
   -1   17   10     -2.34      0.00
   -1   17    9      0.91      0.00
   -1   17    8     -2.42      0.00
   -1   17    7     -0.05      0.00
   -1   17    6     -1.22      0.00
   -1   17    5      3.66      0.00
   -1   17    4      0.39      0.00
   -1   17    3     -1.38      0.00
   -1   17    2      0.13      0.00
   -1   17    1      2.08      0.00
    1   17    0     -0.68      0.00
    1   17    1      0.37      0.00
    1   17    2      1.53      0.00
    1   17    3      0.16      0.00
    1   17    4      0.71      0.00
    1   17    5      1.96      0.00
    1   17    6     -0.19      0.00
    1   17    7      1.26      0.00
    1   17    8     -2.18      0.00
    1   17    9      0.79      0.00
    1   17   10     -1.76      0.00
   -1   18    9      1.12      0.00
   -1   18    8      0.02      0.00
   -1   18    7      0.83      0.00
   -1   18    6     -2.93      0.00
   -1   18    5     -0.34      0.00
   -1   18    4     -1.45      0.00
   -1   18    3      2.98      0.00
   -1   18    2      1.49      0.00
   -1   18    1     -3.61      0.00
    1   18    0     -2.59      0.00
    1   18    1     -3.97      0.00
    1   18    2     -0.97      0.00
    1   18    3      1.29      0.00
    1   18    4     -1.50      0.00
    1   18    5      0.26      0.00
    1   18    6     -1.06      0.00
    1   18    7      0.60      0.00
    1   18    8      0.15      0.00
    1   18    9      0.37      0.00
   -1   19    7      2.52      0.00
   -1   19    6      1.65      0.00
   -1   19    5      2.31      0.00
   -1   19    4     -2.53      0.00
   -1   19    3      2.39      0.00
   -1   19    2      1.27      0.00
   -1   19    1     -2.83      0.00
    1   19    0     -0.63      0.00
    1   19    1     -1.81      0.00
    1   19    2      0.86      0.00
    1   19    3      0.76      0.00
    1   19    4     -0.50      0.00
    1   19    5      1.32      0.00
    1   19    6     -0.08      0.00
    1   19    7      1.15      0.00
   -1   20    5      0.41      0.00
   -1   20    4     -2.37      0.00
   -1   20    3     -1.57      0.00
   -1   20    2     -1.91      0.00
   -1   20    1      2.79      0.00
    1   20    0      4.75      0.00
    1   20    1      2.88      0.00
    1   20    2      0.99      0.00
    1   20    3     -3.48      0.00
    1   20    4     -0.36      0.00
    1   20    5      0.14      0.00
   -2    0   18      0.11      0.00
   -2    0   16     -2.54      0.00
   -2    0   14      1.99      0.00
   -2    0   12      8.59      0.00
   -2    0   10      3.55      0.00
   -2    0    8      8.02      0.00
   -2    0    6     12.40      0.00
   -2    0    4    -47.07      0.00
   -2    0    2    -99.76      0.00
    2    0    0    172.75      0.00
    2    0    4    -44.38      0.00
    2    0    6      8.67      0.00
    2    0    8     33.20      0.00
    2    0   10     -2.00      0.00
    2    0   12     -0.25      0.00
    2    0   14      2.97      0.00
    2    0   16      0.79      0.00
    2    0   18     -0.06      0.00
   -2    1   18     -1.29      0.00
   -2    1   17      1.16      0.00
   -2    1   16      2.70      0.00
   -2    1   15      0.77      0.00
   -2    1   14     -3.04      0.00
   -2    1   13     -2.62      0.00
   -2    1   12     -2.41      0.00
   -2    1   11      0.54      0.00
   -2    1   10     -5.70      0.00
   -2    1    9     -2.53      0.00
   -2    1    8     -5.11      0.00
   -2    1    7     -1.75      0.00
   -2    1    6    -23.89      0.00
   -2    1    5     37.19      0.00
   -2    1    4     49.43      0.00
   -2    1    3     88.77      0.00
   -2    1    2      2.98      0.00
   -2    1    1     10.08      0.00
    2    1    1    -15.18      0.00
    2    1    2      7.46      0.00
    2    1    3     52.42      0.00
    2    1    4     35.83      0.00
    2    1    5     27.80      0.00
    2    1    6     10.10      0.00
    2    1    7     -7.38      0.00
    2    1    8    -12.38      0.00
    2    1    9     -6.52      0.00
    2    1   10     -6.20      0.00
    2    1   11      2.79      0.00
    2    1   12      2.27      0.00
    2    1   13      1.52      0.00
    2    1   14     -1.92      0.00
    2    1   15      0.77      0.00
    2    1   16     -0.64      0.00
    2    1   17      1.24      0.00
    2    1   18     -0.13      0.00
   -2    2   18     -1.13      0.00
   -2    2   17      1.05      0.00
   -2    2   16      0.66      0.00
   -2    2   15      3.41      0.00
   -2    2   14     -0.49      0.00
   -2    2   13     -0.12      0.00
   -2    2   12     -6.75      0.00
   -2    2   11     -0.42      0.00
   -2    2   10     -5.19      0.00
   -2    2    9      7.87      0.00
   -2    2    8     -2.22      0.00
   -2    2    7      7.06      0.00
   -2    2    6    -35.65      0.00
   -2    2    5    -10.72      0.00
   -2    2    4    -66.89      0.00
   -2    2    3    -10.21      0.00
   -2    2    2     -8.65      0.00
   -2    2    1     -1.33      0.00
    2    2    0   -139.37      0.00
    2    2    1     12.30      0.00
    2    2    2    -45.37      0.00
    2    2    3    -43.86      0.00
    2    2    4    -35.96      0.00
    2    2    5    -26.29      0.00
    2    2    6    -17.92      0.00
    2    2    7     -4.02      0.00
    2    2    8    -16.72      0.00
    2    2    9      8.65      0.00
    2    2   10      2.59      0.00
    2    2   11      0.09      0.00
    2    2   12     -5.54      0.00
    2    2   13     -1.26      0.00
    2    2   14     -5.33      0.00
    2    2   15      1.16      0.00
    2    2   16     -2.68      0.00
    2    2   17      0.21      0.00
    2    2   18     -1.22      0.00
   -2    3   18      0.27      0.00
   -2    3   17      0.81      0.00
   -2    3   16     -5.02      0.00
   -2    3   15     -0.16      0.00
   -2    3   14      0.40      0.00
   -2    3   13      5.28      0.00
   -2    3   12      2.90      0.00
   -2    3   11      1.57      0.00
   -2    3   10      0.44      0.00
   -2    3    9      6.28      0.00
   -2    3    8     -8.62      0.00
   -2    3    7      9.71      0.00
   -2    3    6     19.24      0.00
   -2    3    5     12.39      0.00
   -2    3    4    -27.99      0.00
   -2    3    3    -27.11      0.00
   -2    3    2    -11.09      0.00
   -2    3    1     51.27      0.00
    2    3    0     23.18      0.00
    2    3    1     42.41      0.00
    2    3    2      9.09      0.00
    2    3    3    -15.98      0.00
    2    3    4     16.48      0.00
    2    3    5      2.47      0.00
    2    3    6     14.51      0.00
    2    3    7      6.79      0.00
    2    3    8      4.04      0.00
    2    3    9      4.34      0.00
    2    3   10     -0.16      0.00
    2    3   11      0.68      0.00
    2    3   12     -0.65      0.00
    2    3   13      4.75      0.00
    2    3   14     -0.33      0.00
    2    3   15      2.36      0.00
    2    3   16      0.13      0.00
    2    3   17      0.06      0.00
    2    3   18     -0.73      0.00
   -2    4   18      0.87      0.00
   -2    4   17      1.37      0.00
   -2    4   16     -3.63      0.00
   -2    4   15      0.48      0.00
   -2    4   14     -4.15      0.00
   -2    4   13      0.73      0.00
   -2    4   12      2.35      0.00
   -2    4   11      2.19      0.00
   -2    4   10      1.40      0.00
   -2    4    9     -0.27      0.00
   -2    4    8     -7.51      0.00
   -2    4    7      9.88      0.00
   -2    4    6      9.05      0.00
   -2    4    5     19.47      0.00
   -2    4    4     54.23      0.00
   -2    4    3     33.75      0.00
   -2    4    2    -11.83      0.00
   -2    4    1     23.36      0.00
    2    4    0     25.14      0.00
    2    4    1    -22.78      0.00
    2    4    2     25.30      0.00
    2    4    3     38.74      0.00
    2    4    4     33.89      0.00
    2    4    5     -2.09      0.00
    2    4    6     -0.12      0.00
    2    4    7     -3.48      0.00
    2    4    8      5.42      0.00
    2    4    9     -1.85      0.00
    2    4   10     -1.87      0.00
    2    4   11     -0.25      0.00
    2    4   12      0.69      0.00
    2    4   13      4.81      0.00
    2    4   14     -1.03      0.00
    2    4   15      0.85      0.00
    2    4   16      0.23      0.00
    2    4   17      0.33      0.00
    2    4   18     -1.34      0.00
   -2    5   18     -0.09      0.00
   -2    5   17     -0.02      0.00
   -2    5   16      1.45      0.00
   -2    5   15      5.93      0.00
   -2    5   14     -1.41      0.00
   -2    5   13     -2.90      0.00
   -2    5   12     -3.29      0.00
   -2    5   11     -3.45      0.00
   -2    5   10     -1.00      0.00
   -2    5    9     -5.79      0.00
   -2    5    8     -1.41      0.00
   -2    5    7      7.42      0.00
   -2    5    6    -41.55      0.00
   -2    5    5    -24.24      0.00
   -2    5    4    -25.97      0.00
   -2    5    3     -6.29      0.00
   -2    5    2    -29.43      0.00
   -2    5    1     -6.60      0.00
    2    5    0     19.11      0.00
    2    5    1      3.02      0.00
    2    5    2    -12.51      0.00
    2    5    3    -17.43      0.00
    2    5    4    -39.21      0.00
    2    5    6     -5.84      0.00
    2    5    7     14.81      0.00
    2    5    8      3.96      0.00
    2    5    9     -1.24      0.00
    2    5   10      2.60      0.00
    2    5   11     -3.85      0.00
    2    5   12     -1.16      0.00
    2    5   13     -1.43      0.00
    2    5   14     -3.47      0.00
    2    5   15      0.84      0.00
    2    5   16      0.94      0.00
    2    5   17      1.78      0.00
   -2    6   18      1.95      0.00
   -2    6   17     -2.05      0.00
   -2    6   16     -0.08      0.00
   -2    6   15     -0.75      0.00
   -2    6   14      1.06      0.00
   -2    6   13     -1.52      0.00
   -2    6   12      4.13      0.00
   -2    6   11     -2.24      0.00
   -2    6   10     10.27      0.00
   -2    6    9      1.21      0.00
   -2    6    8      7.22      0.00
   -2    6    7      8.90      0.00
   -2    6    6      3.95      0.00
   -2    6    5     35.66      0.00
   -2    6    4      1.55      0.00
   -2    6    3     15.70      0.00
   -2    6    2     19.24      0.00
   -2    6    1     15.09      0.00
    2    6    1     -1.88      0.00
    2    6    2     -8.67      0.00
    2    6    3    -12.57      0.00
    2    6    4     12.11      0.00
    2    6    5     31.87      0.00
    2    6    6      4.33      0.00
    2    6    7     -5.68      0.00
    2    6    8    -14.43      0.00
    2    6    9     -9.74      0.00
    2    6   10      8.50      0.00
    2    6   11     -1.69      0.00
    2    6   12      4.59      0.00
    2    6   13     -1.64      0.00
    2    6   14      1.58      0.00
    2    6   15     -0.77      0.00
    2    6   16     -1.35      0.00
    2    6   17     -2.55      0.00
   -2    7   17      0.14      0.00
   -2    7   16     -0.13      0.00
   -2    7   15     -2.76      0.00
   -2    7   14      3.58      0.00
   -2    7   13     -1.91      0.00
   -2    7   12      4.70      0.00
   -2    7   11     -8.33      0.00
   -2    7   10     -1.20      0.00
   -2    7    9     -4.22      0.00
   -2    7    8     -6.75      0.00
   -2    7    7    -18.37      0.00
   -2    7    6     -6.45      0.00
   -2    7    5     -9.81      0.00
   -2    7    4    -18.25      0.00
   -2    7    3    -20.88      0.00
   -2    7    2     -2.35      0.00
   -2    7    1     -4.33      0.00
    2    7    0     -0.42      0.00
    2    7    1     -7.17      0.00
    2    7    2     19.71      0.00
    2    7    3     -2.18      0.00
    2    7    4     11.53      0.00
    2    7    5    -18.59      0.00
    2    7    6    -14.67      0.00
    2    7    7    -14.58      0.00
    2    7    8      7.10      0.00
    2    7    9      1.93      0.00
    2    7   10      2.39      0.00
    2    7   11     -3.85      0.00
    2    7   12      1.33      0.00
    2    7   13     -4.63      0.00
    2    7   14      3.32      0.00
    2    7   15     -1.38      0.00
    2    7   16     -0.19      0.00
    2    7   17     -1.86      0.00
   -2    8   17      3.14      0.00
   -2    8   16     -1.54      0.00
   -2    8   15     -0.17      0.00
   -2    8   14      1.30      0.00
   -2    8   13     -1.55      0.00
   -2    8   12      3.86      0.00
   -2    8   11      4.38      0.00
   -2    8   10     -4.62      0.00
   -2    8    9      7.75      0.00
   -2    8    8      4.19      0.00
   -2    8    7     15.31      0.00
   -2    8    6     16.24      0.00
   -2    8    5      0.73      0.00
   -2    8    4     11.89      0.00
   -2    8    3      7.16      0.00
   -2    8    2      0.24      0.00
   -2    8    1      1.99      0.00
    2    8    0      4.99      0.00
    2    8    1     -6.45      0.00
    2    8    2      3.01      0.00
    2    8    3      2.06      0.00
    2    8    4      0.92      0.00
    2    8    5    -12.69      0.00
    2    8    6     16.36      0.00
    2    8    7     12.93      0.00
    2    8    8     13.67      0.00
    2    8    9      5.87      0.00
    2    8   10     -9.92      0.00
    2    8   11      2.41      0.00
    2    8   12      0.91      0.00
    2    8   13     -1.14      0.00
    2    8   14      1.96      0.00
    2    8   15     -0.20      0.00
    2    8   16      1.43      0.00
   -2    9   17      1.84      0.00
   -2    9   16     -2.21      0.00
   -2    9   15      2.91      0.00
   -2    9   14     -1.19      0.00
   -2    9   13     -2.61      0.00
   -2    9   12     -3.97      0.00
   -2    9   11      5.67      0.00
   -2    9   10     -6.70      0.00
   -2    9    9      0.36      0.00
   -2    9    8     -9.57      0.00
   -2    9    7     -3.17      0.00
   -2    9    6     -6.22      0.00
   -2    9    5     -6.31      0.00
   -2    9    4      0.80      0.00
   -2    9    3      8.48      0.00
   -2    9    2    -12.59      0.00
   -2    9    1     -0.50      0.00
    2    9    0      9.47      0.00
    2    9    1      6.71      0.00
    2    9    2    -13.42      0.00
    2    9    3      4.76      0.00
    2    9    4     -1.41      0.00
    2    9    5      2.90      0.00
    2    9    6      6.81      0.00
    2    9    7     -8.12      0.00
    2    9    8    -13.09      0.00
    2    9    9     -0.31      0.00
    2    9   10     -5.37      0.00
    2    9   11      6.77      0.00
    2    9   12     -0.70      0.00
    2    9   13      0.34      0.00
    2    9   14     -0.69      0.00
    2    9   15     -0.16      0.00
    2    9   16      0.30      0.00
   -2   10   16     -1.02      0.00
   -2   10   15     -0.22      0.00
   -2   10   14     -0.26      0.00
   -2   10   13     -1.18      0.00
   -2   10   12     -2.35      0.00
   -2   10   11     -0.08      0.00
   -2   10   10      3.75      0.00
   -2   10    9      1.73      0.00
   -2   10    8      6.35      0.00
   -2   10    7     -9.29      0.00
   -2   10    6      2.02      0.00
   -2   10    5      0.29      0.00
   -2   10    4      1.95      0.00
   -2   10    3      8.07      0.00
   -2   10    2      0.90      0.00
   -2   10    1      9.53      0.00
    2   10    0     10.16      0.00
    2   10    1      9.68      0.00
    2   10    2     -0.42      0.00
    2   10    3      1.34      0.00
    2   10    4      3.50      0.00
    2   10    5      0.07      0.00
    2   10    6      2.56      0.00
    2   10    7     -6.90      0.00
    2   10    8      3.04      0.00
    2   10    9      1.71      0.00
    2   10   10      4.41      0.00
    2   10   11     -0.55      0.00
    2   10   12     -1.90      0.00
    2   10   13     -0.31      0.00
    2   10   14      0.42      0.00
    2   10   15     -0.46      0.00
    2   10   16     -1.53      0.00
   -2   11   16      2.43      0.00
   -2   11   15     -0.82      0.00
   -2   11   14      2.84      0.00
   -2   11   13      3.47      0.00
   -2   11   12      2.76      0.00
   -2   11   11     -4.19      0.00
   -2   11   10      0.60      0.00
   -2   11    9     -3.94      0.00
   -2   11    8     10.70      0.00
   -2   11    7     -3.12      0.00
   -2   11    6      9.34      0.00
   -2   11    5     -1.81      0.00
   -2   11    4     -5.62      0.00
   -2   11    3     -9.07      0.00
   -2   11    2     -4.13      0.00
   -2   11    1     -4.28      0.00
    2   11    0    -10.17      0.00
    2   11    1     -5.93      0.00
    2   11    2     -1.71      0.00
    2   11    3     -8.85      0.00
    2   11    4      3.01      0.00
    2   11    5     -6.70      0.00
    2   11    6      1.89      0.00
    2   11    7     -0.37      0.00
    2   11    8      7.38      0.00
    2   11    9     -4.34      0.00
    2   11   10      0.62      0.00
    2   11   11     -3.11      0.00
    2   11   12     -0.30      0.00
    2   11   13      0.22      0.00
    2   11   14      0.58      0.00
    2   11   15      0.53      0.00
   -2   12   15     -0.98      0.00
   -2   12   14     -2.10      0.00
   -2   12   13     -0.07      0.00
   -2   12   12     -0.94      0.00
   -2   12   11      1.00      0.00
   -2   12   10     -0.69      0.00
   -2   12    9     -2.98      0.00
   -2   12    8     -5.37      0.00
   -2   12    7     -1.18      0.00
   -2   12    6     -1.50      0.00
   -2   12    5      1.52      0.00
   -2   12    4     -1.38      0.00
   -2   12    3      2.02      0.00
   -2   12    2      5.02      0.00
   -2   12    1     -3.33      0.00
    2   12    2      2.80      0.00
    2   12    3      3.11      0.00
    2   12    4      3.42      0.00
    2   12    5     -1.85      0.00
    2   12    6     -5.07      0.00
    2   12    7      2.48      0.00
    2   12    8     -2.51      0.00
    2   12    9     -0.31      0.00
    2   12   10     -0.78      0.00
    2   12   11      2.02      0.00
    2   12   12      1.56      0.00
    2   12   13      1.20      0.00
    2   12   14     -0.54      0.00
   -2   13   14     -0.02      0.00
   -2   13   13     -0.43      0.00
   -2   13   12      0.40      0.00
   -2   13   11      3.71      0.00
   -2   13   10      0.65      0.00
   -2   13    9      3.50      0.00
   -2   13    8     -3.36      0.00
   -2   13    7      6.28      0.00
   -2   13    6     -5.27      0.00
   -2   13    5      2.32      0.00
   -2   13    4      1.81      0.00
   -2   13    3      3.07      0.00
   -2   13    2      4.86      0.00
   -2   13    1      5.00      0.00
    2   13    0      5.57      0.00
    2   13    1      9.31      0.00
    2   13    2     -0.46      0.00
    2   13    3     -1.29      0.00
    2   13    4     -1.82      0.00
    2   13    5      6.98      0.00
    2   13    6     -1.93      0.00
    2   13    7      5.86      0.00
    2   13    8     -2.85      0.00
    2   13    9      2.96      0.00
    2   13   10      0.78      0.00
    2   13   11     -0.43      0.00
    2   13   12      1.18      0.00
    2   13   13     -1.22      0.00
    2   13   14     -0.36      0.00
   -2   14   13     -2.66      0.00
   -2   14   12     -0.26      0.00
   -2   14   11     -0.82      0.00
   -2   14   10     -0.62      0.00
   -2   14    9      1.50      0.00
   -2   14    8      1.32      0.00
   -2   14    7      2.03      0.00
   -2   14    6     -0.63      0.00
   -2   14    5      1.80      0.00
   -2   14    4     -0.30      0.00
   -2   14    3     -7.27      0.00
   -2   14    2     -3.65      0.00
   -2   14    1     -2.72      0.00
    2   14    0      5.08      0.00
    2   14    1     -2.26      0.00
    2   14    2     -0.96      0.00
    2   14    3     -2.55      0.00
    2   14    4     -3.06      0.00
    2   14    5      2.95      0.00
    2   14    6     -3.15      0.00
    2   14    7     -0.36      0.00
    2   14    8     -0.34      0.00
    2   14    9     -2.16      0.00
    2   14   10      0.86      0.00
    2   14   11     -3.36      0.00
    2   14   12      0.15      0.00
    2   14   13     -1.58      0.00
   -2   15   13     -0.54      0.00
   -2   15   12      0.95      0.00
   -2   15   11     -1.98      0.00
   -2   15   10     -1.86      0.00
   -2   15    9     -1.03      0.00
   -2   15    8      0.66      0.00
   -2   15    7     -3.28      0.00
   -2   15    6     -0.95      0.00
   -2   15    5      0.68      0.00
   -2   15    4     -2.82      0.00
   -2   15    3      1.28      0.00
   -2   15    2      4.15      0.00
   -2   15    1     -1.06      0.00
    2   15    0     -2.83      0.00
    2   15    1     -6.26      0.00
    2   15    2      2.40      0.00
    2   15    3      1.11      0.00
    2   15    4     -2.23      0.00
    2   15    5      0.38      0.00
    2   15    6     -1.49      0.00
    2   15    7     -1.89      0.00
    2   15    8      1.63      0.00
    2   15    9     -1.53      0.00
    2   15   10      2.45      0.00
    2   15   11     -0.47      0.00
    2   15   12      0.09      0.00
   -2   16   12      1.20      0.00
   -2   16   11     -0.74      0.00
   -2   16   10      1.22      0.00
   -2   16    9      1.49      0.00
   -2   16    8     -1.41      0.00
   -2   16    7      0.51      0.00
   -2   16    6     -0.27      0.00
   -2   16    5      0.96      0.00
   -2   16    4     -3.06      0.00
   -2   16    3      2.54      0.00
   -2   16    2     -2.28      0.00
   -2   16    1     -1.78      0.00
    2   16    0      3.36      0.00
    2   16    1     -2.84      0.00
    2   16    2      1.22      0.00
    2   16    3      2.59      0.00
    2   16    4     -0.27      0.00
    2   16    5     -0.67      0.00
    2   16    6      1.49      0.00
    2   16    7     -0.06      0.00
    2   16    8      0.03      0.00
    2   16    9     -0.25      0.00
    2   16   10     -0.37      0.00
    2   16   11      0.42      0.00
   -2   17   10      1.82      0.00
   -2   17    9     -0.59      0.00
   -2   17    8     -3.72      0.00
   -2   17    7      1.20      0.00
   -2   17    6     -0.84      0.00
   -2   17    5      0.37      0.00
   -2   17    4      2.91      0.00
   -2   17    3      5.47      0.00
   -2   17    2     -3.01      0.00
   -2   17    1     -1.78      0.00
    2   17    0      1.98      0.00
    2   17    1      1.10      0.00
    2   17    2     -0.98      0.00
    2   17    3      2.12      0.00
    2   17    4      0.89      0.00
    2   17    5     -0.56      0.00
    2   17    6      2.98      0.00
    2   17    7     -0.59      0.00
    2   17    8     -1.73      0.00
    2   17    9      2.24      0.00
    2   17   10     -1.78      0.00
   -2   18    9     -2.16      0.00
   -2   18    8      0.93      0.00
   -2   18    7      3.79      0.00
   -2   18    6     -0.32      0.00
   -2   18    5     -1.77      0.00
   -2   18    4     -2.87      0.00
   -2   18    3      0.49      0.00
   -2   18    2     -0.11      0.00
   -2   18    1      5.32      0.00
    2   18    0     -1.68      0.00
    2   18    1      3.47      0.00
    2   18    2     -1.10      0.00
    2   18    3      0.10      0.00
    2   18    4     -1.08      0.00
    2   18    5     -0.77      0.00
    2   18    6      0.55      0.00
    2   18    7      0.66      0.00
    2   18    8     -0.28      0.00
    2   18    9      2.58      0.00
   -2   19    7      1.08      0.00
   -2   19    6     -0.32      0.00
   -2   19    5      2.43      0.00
   -2   19    4      0.95      0.00
   -2   19    3     -0.01      0.00
   -2   19    2     -3.59      0.00
   -2   19    1      2.32      0.00
    2   19    0      1.00      0.00
    2   19    1     -0.88      0.00
    2   19    2     -1.25      0.00
    2   19    3     -1.68      0.00
    2   19    4     -0.04      0.00
    2   19    5      2.44      0.00
    2   19    6     -1.03      0.00
    2   19    7     -0.40      0.00
   -2   20    5     -2.02      0.00
   -2   20    4     -0.41      0.00
   -2   20    3      1.01      0.00
   -2   20    2     -1.38      0.00
   -2   20    1      0.89      0.00
    2   20    0     -0.67      0.00
    2   20    1     -2.00      0.00
    2   20    2      2.09      0.00
    2   20    3      0.98      0.00
    2   20    4     -1.53      0.00
   -3    0   18     -1.71      0.00
   -3    0   16     -0.71      0.00
   -3    0   14     -4.37      0.00
   -3    0   12      4.93      0.00
   -3    0   10      6.50      0.00
   -3    0    8     -8.49      0.00
   -3    0    6      1.09      0.00
   -3    0    4     12.81      0.00
   -3    0    2     27.37      0.00
    3    0    0     38.31      0.00
    3    0    4    -16.84      0.00
    3    0    6      1.11      0.00
    3    0    8      5.25      0.00
    3    0   10      8.83      0.00
    3    0   12      2.26      0.00
    3    0   14      1.69      0.00
    3    0   16     -0.49      0.00
    3    0   18      0.88      0.00
   -3    1   18     -1.39      0.00
   -3    1   17      0.72      0.00
   -3    1   16      0.06      0.00
   -3    1   15      1.44      0.00
   -3    1   14      2.47      0.00
   -3    1   13      1.81      0.00
   -3    1   12     -8.11      0.00
   -3    1   11     -0.17      0.00
   -3    1   10      4.28      0.00
   -3    1    9      2.87      0.00
   -3    1    8    -12.74      0.00
   -3    1    7     15.25      0.00
   -3    1    6    -11.99      0.00
   -3    1    5     28.83      0.00
   -3    1    4     -5.45      0.00
   -3    1    3     10.18      0.00
   -3    1    2    105.48      0.00
   -3    1    1     10.23      0.00
    3    1    0      9.15      0.00
    3    1    1      1.71      0.00
    3    1    2     40.08      0.00
    3    1    4      5.98      0.00
    3    1    5      6.01      0.00
    3    1    6     -6.66      0.00
    3    1    7      9.12      0.00
    3    1    8     -8.51      0.00
    3    1    9     -0.51      0.00
    3    1   10     -3.02      0.00
    3    1   11     -4.01      0.00
    3    1   12     -1.40      0.00
    3    1   13     -1.04      0.00
    3    1   14     -0.17      0.00
    3    1   15     -0.71      0.00
    3    1   16      3.54      0.00
    3    1   17     -0.15      0.00
    3    1   18      0.87      0.00
   -3    2   18     -0.33      0.00
   -3    2   17      1.16      0.00
   -3    2   16     -0.53      0.00
   -3    2   15     -0.91      0.00
   -3    2   14      1.57      0.00
   -3    2   13     -1.93      0.00
   -3    2   12     -6.88      0.00
   -3    2   11      0.18      0.00
   -3    2   10     -8.05      0.00
   -3    2    9      1.85      0.00
   -3    2    8     -7.26      0.00
   -3    2    7      3.46      0.00
   -3    2    6    -46.24      0.00
   -3    2    5      3.25      0.00
   -3    2    4    -55.20      0.00
   -3    2    3    -59.84      0.00
   -3    2    2    -46.79      0.00
   -3    2    1   -106.56      0.00
    3    2    0    -53.04      0.00
    3    2    1    -34.50      0.00
    3    2    2    -97.88      0.00
    3    2    3    -36.49      0.00
    3    2    4     20.66      0.00
    3    2    5      8.65      0.00
    3    2    6     -9.47      0.00
    3    2    7      9.37      0.00
    3    2    8    -11.92      0.00
    3    2    9     -4.26      0.00
    3    2   10     -3.78      0.00
    3    2   11      0.75      0.00
    3    2   12      0.67      0.00
    3    2   13      3.49      0.00
    3    2   14     -1.06      0.00
    3    2   15      0.44      0.00
    3    2   16      1.74      0.00
    3    2   17      1.63      0.00
    3    2   18     -1.02      0.00
   -3    3   18      2.04      0.00
   -3    3   17      0.09      0.00
   -3    3   16     -0.55      0.00
   -3    3   15     -0.76      0.00
   -3    3   14     -1.56      0.00
   -3    3   13     -0.88      0.00
   -3    3   12      6.48      0.00
   -3    3   11      5.44      0.00
   -3    3   10     -4.36      0.00
   -3    3    9      4.08      0.00
   -3    3    8     13.36      0.00
   -3    3    7     14.06      0.00
   -3    3    6      3.70      0.00
   -3    3    5     15.09      0.00
   -3    3    4     43.40      0.00
   -3    3    3     44.42      0.00
   -3    3    2     49.04      0.00
   -3    3    1     18.05      0.00
    3    3    0    -62.63      0.00
    3    3    1     40.94      0.00
    3    3    2     32.53      0.00
    3    3    3     16.23      0.00
    3    3    4      9.58      0.00
    3    3    5    -21.34      0.00
    3    3    6    -16.32      0.00
    3    3    7    -10.38      0.00
    3    3    8      4.36      0.00
    3    3    9      2.86      0.00
    3    3   10      6.99      0.00
    3    3   11      5.51      0.00
    3    3   12     -5.53      0.00
    3    3   13      2.08      0.00
    3    3   14     -4.45      0.00
    3    3   15     -0.84      0.00
    3    3   16     -3.39      0.00
    3    3   17      0.11      0.00
    3    3   18     -1.73      0.00
   -3    4   18      2.08      0.00
   -3    4   17     -2.30      0.00
   -3    4   16      0.37      0.00
   -3    4   15      2.36      0.00
   -3    4   14     -0.16      0.00
   -3    4   13      3.37      0.00
   -3    4   12      3.85      0.00
   -3    4   11      1.04      0.00
   -3    4   10     -1.26      0.00
   -3    4    9    -10.21      0.00
   -3    4    8     -8.64      0.00
   -3    4    7     -4.72      0.00
   -3    4    6     13.56      0.00
   -3    4    5    -13.74      0.00
   -3    4    4     -9.03      0.00
   -3    4    3    -34.86      0.00
   -3    4    2    -15.24      0.00
   -3    4    1      4.67      0.00
    3    4    0      2.01      0.00
    3    4    1     26.87      0.00
    3    4    2     35.43      0.00
    3    4    3     -9.40      0.00
    3    4    4    -13.59      0.00
    3    4    5      8.15      0.00
    3    4    6     26.64      0.00
    3    4    7     11.07      0.00
    3    4    8     13.34      0.00
    3    4    9      3.05      0.00
    3    4   10     -3.68      0.00
    3    4   11      1.32      0.00
    3    4   12     -4.95      0.00
    3    4   13      6.35      0.00
    3    4   14      1.60      0.00
    3    4   15      4.09      0.00
    3    4   16     -1.14      0.00
    3    4   17     -0.02      0.00
   -3    5   18      0.62      0.00
   -3    5   17     -1.97      0.00
   -3    5   16      2.79      0.00
   -3    5   15     -0.03      0.00
   -3    5   14     -0.51      0.00
   -3    5   13     -1.32      0.00
   -3    5   12     -6.29      0.00
   -3    5   11     -3.31      0.00
   -3    5   10     10.55      0.00
   -3    5    9      7.33      0.00
   -3    5    8      1.63      0.00
   -3    5    7     -1.38      0.00
   -3    5    6      6.88      0.00
   -3    5    5     20.52      0.00
   -3    5    4      1.93      0.00
   -3    5    3      7.83      0.00
   -3    5    2      1.67      0.00
   -3    5    1     16.61      0.00
    3    5    0     18.88      0.00
    3    5    1    -17.77      0.00
    3    5    3     -3.89      0.00
    3    5    4      3.53      0.00
    3    5    5      8.13      0.00
    3    5    6     -5.81      0.00
    3    5    7     -5.29      0.00
    3    5    8    -15.39      0.00
    3    5    9     -0.91      0.00
    3    5   10     -6.32      0.00
    3    5   11     -0.33      0.00
    3    5   12      1.19      0.00
    3    5   13     -1.97      0.00
    3    5   14     -3.91      0.00
    3    5   15      1.21      0.00
    3    5   16     -2.54      0.00
    3    5   17      1.36      0.00
   -3    6   18     -0.40      0.00
   -3    6   17     -2.09      0.00
   -3    6   16      0.64      0.00
   -3    6   15     -3.97      0.00
   -3    6   14      1.36      0.00
   -3    6   13     -1.76      0.00
   -3    6   12      1.58      0.00
   -3    6   11     -5.90      0.00
   -3    6   10      1.01      0.00
   -3    6    9     -0.38      0.00
   -3    6    8      4.19      0.00
   -3    6    7     -8.56      0.00
   -3    6    6    -19.84      0.00
   -3    6    5    -13.35      0.00
   -3    6    4     -8.08      0.00
   -3    6    3     14.07      0.00
   -3    6    2      2.46      0.00
   -3    6    1    -13.55      0.00
    3    6    0      0.15      0.00
    3    6    1     -6.03      0.00
    3    6    2     -2.47      0.00
    3    6    3     -0.94      0.00
    3    6    4      9.71      0.00
    3    6    5    -15.72      0.00
    3    6    6    -14.90      0.00
    3    6    7      6.61      0.00
    3    6    8     -4.21      0.00
    3    6    9      6.97      0.00
    3    6   10      3.82      0.00
    3    6   11     -1.99      0.00
    3    6   12      8.09      0.00
    3    6   13     -3.66      0.00
    3    6   14     -0.54      0.00
    3    6   15      3.67      0.00
    3    6   16     -1.20      0.00
    3    6   17      1.45      0.00
   -3    7   17      2.15      0.00
   -3    7   16     -0.80      0.00
   -3    7   15     -0.34      0.00
   -3    7   14      1.75      0.00
   -3    7   13     -1.67      0.00
   -3    7   12      7.83      0.00
   -3    7   11     -1.75      0.00
   -3    7   10     -4.39      0.00
   -3    7    9     -7.63      0.00
   -3    7    8     -2.82      0.00
   -3    7    7      5.76      0.00
   -3    7    6      8.42      0.00
   -3    7    5    -18.05      0.00
   -3    7    4      5.84      0.00
   -3    7    3    -14.19      0.00
   -3    7    2     -2.14      0.00
   -3    7    1    -11.38      0.00
    3    7    0    -16.62      0.00
    3    7    1     -1.24      0.00
    3    7    2      7.65      0.00
    3    7    3    -16.77      0.00
    3    7    4     13.38      0.00
    3    7    5      0.00      0.00
    3    7    6     13.34      0.00
    3    7    7      5.88      0.00
    3    7    8     -4.21      0.00
    3    7    9     -0.86      0.00
    3    7   10     -0.71      0.00
    3    7   11     -6.07      0.00
    3    7   12      1.82      0.00
    3    7   13     -3.23      0.00
    3    7   14      0.59      0.00
    3    7   15     -0.52      0.00
    3    7   16     -0.52      0.00
    3    7   17      0.23      0.00
   -3    8   17      2.83      0.00
   -3    8   16     -1.21      0.00
   -3    8   15      2.71      0.00
   -3    8   14     -1.07      0.00
   -3    8   13     -1.24      0.00
   -3    8   12      0.01      0.00
   -3    8   11      6.00      0.00
   -3    8   10      1.12      0.00
   -3    8    9      9.58      0.00
   -3    8    8     -7.52      0.00
   -3    8    7     13.82      0.00
   -3    8    6     16.35      0.00
   -3    8    5      5.62      0.00
   -3    8    4     23.73      0.00
   -3    8    3    -10.24      0.00
   -3    8    2      0.00      0.00
   -3    8    1     10.09      0.00
    3    8    0     -6.69      0.00
    3    8    1      8.31      0.00
    3    8    2      7.12      0.00
    3    8    3     -0.19      0.00
    3    8    4      1.37      0.00
    3    8    5     -6.47      0.00
    3    8    6     -2.71      0.00
    3    8    7     -9.11      0.00
    3    8    8     -4.52      0.00
    3    8    9      8.27      0.00
    3    8   10     -0.89      0.00
    3    8   11      3.88      0.00
    3    8   12     -1.74      0.00
    3    8   13      3.16      0.00
    3    8   14      1.12      0.00
    3    8   15     -2.11      0.00
    3    8   16      0.86      0.00
   -3    9   17      0.39      0.00
   -3    9   16     -0.78      0.00
   -3    9   15      0.56      0.00
   -3    9   14      0.29      0.00
   -3    9   13      2.47      0.00
   -3    9   12     -9.22      0.00
   -3    9   11      1.26      0.00
   -3    9   10     -7.21      0.00
   -3    9    9      7.13      0.00
   -3    9    8    -11.95      0.00
   -3    9    7     -8.04      0.00
   -3    9    6    -16.12      0.00
   -3    9    5     -5.29      0.00
   -3    9    4     -2.61      0.00
   -3    9    3     -4.27      0.00
   -3    9    2     -1.83      0.00
   -3    9    1     14.32      0.00
    3    9    0     10.27      0.00
    3    9    1      5.81      0.00
    3    9    2     -6.08      0.00
    3    9    3      5.31      0.00
    3    9    4     -6.90      0.00
    3    9    5     -0.40      0.00
    3    9    6      4.97      0.00
    3    9    7      7.33      0.00
    3    9    8      4.38      0.00
    3    9    9      4.25      0.00
    3    9   10     -7.20      0.00
    3    9   11      2.01      0.00
    3    9   12     -6.04      0.00
    3    9   13      2.91      0.00
    3    9   14     -0.15      0.00
    3    9   15      0.42      0.00
    3    9   16      0.40      0.00
   -3   10   16      0.91      0.00
   -3   10   15     -4.78      0.00
   -3   10   14      1.18      0.00
   -3   10   13      2.28      0.00
   -3   10   12     -0.62      0.00
   -3   10   11      4.43      0.00
   -3   10   10     -0.49      0.00
   -3   10    9      2.05      0.00
   -3   10    8     11.22      0.00
   -3   10    7      1.28      0.00
   -3   10    6      5.05      0.00
   -3   10    5      2.68      0.00
   -3   10    4      0.65      0.00
   -3   10    3      9.18      0.00
   -3   10    2      6.87      0.00
   -3   10    1     -2.60      0.00
    3   10    0      3.94      0.00
    3   10    1     -9.89      0.00
    3   10    2      1.43      0.00
    3   10    3      1.77      0.00
    3   10    4      2.65      0.00
    3   10    5      2.37      0.00
    3   10    6      3.63      0.00
    3   10    7     -5.65      0.00
    3   10    8     -1.03      0.00
    3   10    9    -10.60      0.00
    3   10   10      0.84      0.00
    3   10   11      3.82      0.00
    3   10   12      2.07      0.00
    3   10   13     -0.19      0.00
    3   10   14     -1.27      0.00
    3   10   15     -1.56      0.00
   -3   11   16      5.35      0.00
   -3   11   15     -1.59      0.00
   -3   11   14      3.58      0.00
   -3   11   13     -0.97      0.00
   -3   11   12     -0.26      0.00
   -3   11   11     -1.72      0.00
   -3   11   10     -1.79      0.00
   -3   11    9    -11.03      0.00
   -3   11    8      3.33      0.00
   -3   11    7     -5.52      0.00
   -3   11    6      4.42      0.00
   -3   11    5     -6.32      0.00
   -3   11    4     -4.34      0.00
   -3   11    3     -3.20      0.00
   -3   11    2     -0.67      0.00
   -3   11    1    -15.96      0.00
    3   11    0     -0.39      0.00
    3   11    2      7.98      0.00
    3   11    3     -3.90      0.00
    3   11    4      1.42      0.00
    3   11    5     -0.59      0.00
    3   11    6      1.41      0.00
    3   11    7     -7.20      0.00
    3   11    8      9.09      0.00
    3   11    9      0.33      0.00
    3   11   10      6.61      0.00
    3   11   11     -0.65      0.00
    3   11   12     -0.74      0.00
    3   11   13     -2.43      0.00
    3   11   14      1.95      0.00
    3   11   15     -0.57      0.00
   -3   12   15     -3.57      0.00
   -3   12   14     -1.46      0.00
   -3   12   13      0.64      0.00
   -3   12   12     -0.89      0.00
   -3   12   11      2.61      0.00
   -3   12   10      5.61      0.00
   -3   12    9      0.76      0.00
   -3   12    8     -0.51      0.00
   -3   12    7      2.56      0.00
   -3   12    6     -1.00      0.00
   -3   12    5      3.71      0.00
   -3   12    4     -1.41      0.00
   -3   12    3      0.86      0.00
   -3   12    2     -0.21      0.00
   -3   12    1      4.01      0.00
    3   12    0      7.17      0.00
    3   12    1      1.09      0.00
    3   12    2      0.19      0.00
    3   12    3     -0.96      0.00
    3   12    4     -6.43      0.00
    3   12    5     -2.71      0.00
    3   12    6     -1.02      0.00
    3   12    7     -2.29      0.00
    3   12    8      0.72      0.00
    3   12    9      1.95      0.00
    3   12   10     -4.70      0.00
    3   12   11     -1.70      0.00
    3   12   12     -3.19      0.00
    3   12   13      1.80      0.00
    3   12   14      1.31      0.00
   -3   13   14     -0.46      0.00
   -3   13   13      1.94      0.00
   -3   13   12     -2.91      0.00
   -3   13   11     -0.41      0.00
   -3   13   10      1.08      0.00
   -3   13    9      2.92      0.00
   -3   13    8     -1.83      0.00
   -3   13    7      3.01      0.00
   -3   13    6     -4.54      0.00
   -3   13    5      8.26      0.00
   -3   13    4     -1.13      0.00
   -3   13    3      2.20      0.00
   -3   13    2     -5.31      0.00
   -3   13    1      2.29      0.00
    3   13    0      2.97      0.00
    3   13    1     -0.33      0.00
    3   13    2     -5.82      0.00
    3   13    3      6.68      0.00
    3   13    4      2.85      0.00
    3   13    5      2.53      0.00
    3   13    6      3.82      0.00
    3   13    7      2.68      0.00
    3   13    8     -3.56      0.00
    3   13    9      1.06      0.00
    3   13   10     -2.39      0.00
    3   13   11      5.91      0.00
    3   13   12      1.36      0.00
    3   13   13      2.54      0.00
    3   13   14     -2.65      0.00
   -3   14   14      0.52      0.00
   -3   14   13      1.29      0.00
   -3   14   12     -0.21      0.00
   -3   14   11     -0.68      0.00
   -3   14   10     -3.16      0.00
   -3   14    9     -1.59      0.00
   -3   14    8      1.82      0.00
   -3   14    7     -2.46      0.00
   -3   14    6     -0.35      0.00
   -3   14    5     -0.97      0.00
   -3   14    4     -1.18      0.00
   -3   14    3      3.10      0.00
   -3   14    2      2.35      0.00
   -3   14    1      4.54      0.00
    3   14    0      0.50      0.00
    3   14    1      3.37      0.00
    3   14    2     -1.88      0.00
    3   14    3     -0.23      0.00
    3   14    4     -0.38      0.00
    3   14    5     -3.86      0.00
    3   14    6      1.00      0.00
    3   14    7     -0.39      0.00
    3   14    8     -0.15      0.00
    3   14    9     -0.98      0.00
    3   14   10     -0.77      0.00
    3   14   11     -0.06      0.00
    3   14   12     -2.57      0.00
    3   14   13     -0.55      0.00
   -3   15   13     -0.51      0.00
   -3   15   12      0.04      0.00
   -3   15   11      1.23      0.00
   -3   15   10      0.03      0.00
   -3   15    9     -2.40      0.00
   -3   15    8      1.46      0.00
   -3   15    7     -2.63      0.00
   -3   15    6      3.67      0.00
   -3   15    5     -5.27      0.00
   -3   15    4     -3.24      0.00
   -3   15    3     -2.06      0.00
   -3   15    2     -3.90      0.00
   -3   15    1     -2.89      0.00
    3   15    0     -1.67      0.00
    3   15    1      0.03      0.00
    3   15    2     -1.42      0.00
    3   15    3     -1.16      0.00
    3   15    4      0.70      0.00
    3   15    5     -1.49      0.00
    3   15    6     -1.70      0.00
    3   15    7     -0.25      0.00
    3   15    8      1.15      0.00
    3   15    9     -0.17      0.00
    3   15   10      1.09      0.00
    3   15   11     -1.03      0.00
    3   15   12     -0.93      0.00
   -3   16   12      0.42      0.00
   -3   16   11     -0.35      0.00
   -3   16   10      2.93      0.00
   -3   16    9      0.52      0.00
   -3   16    8      0.69      0.00
   -3   16    7     -0.22      0.00
   -3   16    6     -0.02      0.00
   -3   16    5      0.00      0.00
   -3   16    4      3.32      0.00
   -3   16    3      1.40      0.00
   -3   16    2     -0.12      0.00
   -3   16    1     -0.11      0.00
    3   16    0      0.06      0.00
    3   16    1      2.14      0.00
    3   16    2      1.97      0.00
    3   16    3      0.09      0.00
    3   16    4      0.61      0.00
    3   16    5      1.99      0.00
    3   16    6     -1.66      0.00
    3   16    7      1.81      0.00
    3   16    8     -1.00      0.00
    3   16    9      0.07      0.00
    3   16   10      2.08      0.00
    3   16   11     -0.11      0.00
   -3   17   10      0.25      0.00
   -3   17    9     -1.28      0.00
   -3   17    8     -0.14      0.00
   -3   17    7     -0.51      0.00
   -3   17    6     -1.35      0.00
   -3   17    5      2.99      0.00
   -3   17    4      3.43      0.00
   -3   17    3     -2.29      0.00
   -3   17    2      1.05      0.00
   -3   17    1      2.90      0.00
    3   17    0     -0.30      0.00
    3   17    1     -0.58      0.00
    3   17    2      0.33      0.00
    3   17    3      0.19      0.00
    3   17    4     -0.40      0.00
    3   17    5      1.51      0.00
    3   17    6     -0.96      0.00
    3   17    7      0.23      0.00
    3   17    8     -0.14      0.00
    3   17    9     -1.89      0.00
    3   17   10     -0.58      0.00
   -3   18    9     -0.33      0.00
   -3   18    8      1.25      0.00
   -3   18    7     -0.36      0.00
   -3   18    6     -1.54      0.00
   -3   18    5     -1.93      0.00
   -3   18    4     -2.65      0.00
   -3   18    3     -1.23      0.00
   -3   18    2      1.15      0.00
   -3   18    1     -1.96      0.00
    3   18    0     -0.17      0.00
    3   18    1     -2.30      0.00
    3   18    2     -0.72      0.00
    3   18    3      0.42      0.00
    3   18    4     -0.21      0.00
    3   18    5      1.22      0.00
    3   18    6      0.78      0.00
    3   18    7     -1.31      0.00
    3   18    8      3.06      0.00
   -3   19    7      1.97      0.00
   -3   19    6      3.99      0.00
   -3   19    5      2.53      0.00
   -3   19    4      1.13      0.00
   -3   19    3      3.22      0.00
   -3   19    2      2.47      0.00
   -3   19    1     -3.90      0.00
    3   19    0      0.01      0.00
    3   19    1      0.04      0.00
    3   19    2      1.84      0.00
    3   19    3     -1.40      0.00
    3   19    4      0.17      0.00
    3   19    5     -0.76      0.00
    3   19    6      0.58      0.00
   -3   20    5     -2.38      0.00
   -3   20    4     -2.80      0.00
   -3   20    3     -2.92      0.00
   -3   20    2      0.64      0.00
   -3   20    1      0.92      0.00
    3   20    0      2.42      0.00
    3   20    1      0.47      0.00
    3   20    2      1.06      0.00
    3   20    3     -3.19      0.00
    3   20    4      1.58      0.00
   -4    0   18      0.39      0.00
   -4    0   16     -3.61      0.00
   -4    0   14      0.72      0.00
   -4    0   12      6.19      0.00
   -4    0   10      7.16      0.00
   -4    0    8     -6.77      0.00
   -4    0    6     17.19      0.00
   -4    0    4     38.01      0.00
    4    0    0    165.26      0.00
    4    0    2     88.68      0.00
    4    0    6     -9.96      0.00
    4    0    8     29.30      0.00
    4    0   10      9.43      0.00
    4    0   12      0.29      0.00
    4    0   14      5.52      0.00
    4    0   16      0.79      0.00
   -4    1   18     -0.11      0.00
   -4    1   17      0.62      0.00
   -4    1   16      2.38      0.00
   -4    1   15      0.62      0.00
   -4    1   14      2.77      0.00
   -4    1   13     -3.92      0.00
   -4    1   12     -1.61      0.00
   -4    1   11      1.52      0.00
   -4    1   10     -3.95      0.00
   -4    1    9      4.16      0.00
   -4    1    8      4.89      0.00
   -4    1    7      0.05      0.00
   -4    1    6    -36.09      0.00
   -4    1    5     -3.44      0.00
   -4    1    4     13.75      0.00
   -4    1    3     -3.88      0.00
   -4    1    2     -0.99      0.00
   -4    1    1    -63.57      0.00
    4    1    0    -44.80      0.00
    4    1    1    -61.19      0.00
    4    1    2      7.45      0.00
    4    1    5     21.36      0.00
    4    1    6      2.57      0.00
    4    1    7     -2.19      0.00
    4    1    8    -10.86      0.00
    4    1    9     -9.47      0.00
    4    1   10     -5.84      0.00
    4    1   11     -2.21      0.00
    4    1   12      1.03      0.00
    4    1   13     -2.63      0.00
    4    1   14      0.20      0.00
    4    1   15     -2.03      0.00
    4    1   16     -1.54      0.00
    4    1   17      0.68      0.00
   -4    2   18     -0.66      0.00
   -4    2   17     -0.46      0.00
   -4    2   16      1.67      0.00
   -4    2   15      1.19      0.00
   -4    2   14      2.67      0.00
   -4    2   13     -3.50      0.00
   -4    2   12     -3.83      0.00
   -4    2   11     -7.45      0.00
   -4    2   10    -15.15      0.00
   -4    2    9     -0.62      0.00
   -4    2    8      1.88      0.00
   -4    2    7      7.76      0.00
   -4    2    6    -11.68      0.00
   -4    2    5      1.05      0.00
   -4    2    4    -32.73      0.00
   -4    2    3      4.12      0.00
   -4    2    2     21.09      0.00
   -4    2    1    -10.19      0.00
    4    2    0    -39.07      0.00
    4    2    1     22.20      0.00
    4    2    2    -43.51      0.00
    4    2    3    -18.46      0.00
    4    2    4    -31.22      0.00
    4    2    5     -7.13      0.00
    4    2    6     -4.77      0.00
    4    2    7      4.55      0.00
    4    2    8    -12.19      0.00
    4    2    9      6.81      0.00
    4    2   10      2.02      0.00
    4    2   11     -0.70      0.00
    4    2   12      2.30      0.00
    4    2   13     -2.49      0.00
    4    2   14     -0.77      0.00
    4    2   15     -0.04      0.00
    4    2   16     -0.70      0.00
    4    2   17     -0.18      0.00
   -4    3   18      1.49      0.00
   -4    3   17     -0.63      0.00
   -4    3   16     -1.96      0.00
   -4    3   15     -2.39      0.00
   -4    3   14     -1.72      0.00
   -4    3   13      4.11      0.00
   -4    3   12      9.33      0.00
   -4    3   11      4.21      0.00
   -4    3   10     11.05      0.00
   -4    3    9      4.19      0.00
   -4    3    8     -7.09      0.00
   -4    3    7     -2.14      0.00
   -4    3    6     29.56      0.00
   -4    3    5      4.15      0.00
   -4    3    4     -3.13      0.00
   -4    3    3    -18.60      0.00
   -4    3    2      6.85      0.00
   -4    3    1     34.04      0.00
    4    3    0     16.81      0.00
    4    3    1     29.90      0.00
    4    3    2    -14.36      0.00
    4    3    3      0.83      0.00
    4    3    4     15.93      0.00
    4    3    5     -0.07      0.00
    4    3    6     -0.67      0.00
    4    3    7     -0.39      0.00
    4    3    8      0.96      0.00
    4    3    9     -1.88      0.00
    4    3   10      1.03      0.00
    4    3   11     -2.67      0.00
    4    3   12      1.43      0.00
    4    3   13      1.55      0.00
    4    3   14     -0.84      0.00
    4    3   15      1.53      0.00
    4    3   16      2.09      0.00
    4    3   17     -0.95      0.00
   -4    4   18      1.50      0.00
   -4    4   17      1.44      0.00
   -4    4   16      1.03      0.00
   -4    4   15      0.63      0.00
   -4    4   14     -2.30      0.00
   -4    4   13      1.00      0.00
   -4    4   12     -2.56      0.00
   -4    4   11     -1.97      0.00
   -4    4   10      7.28      0.00
   -4    4    9     -5.21      0.00
   -4    4    8     -6.59      0.00
   -4    4    7    -11.16      0.00
   -4    4    6      4.48      0.00
   -4    4    5    -11.47      0.00
   -4    4    4     34.95      0.00
   -4    4    3    -19.82      0.00
   -4    4    2    -21.22      0.00
   -4    4    1      0.87      0.00
    4    4    0    -15.26      0.00
    4    4    1    -18.90      0.00
    4    4    2     22.84      0.00
    4    4    3     35.01      0.00
    4    4    4     23.91      0.00
    4    4    5      6.73      0.00
    4    4    6     -5.50      0.00
    4    4    7     -0.22      0.00
    4    4    8     10.46      0.00
    4    4    9     -1.64      0.00
    4    4   10      3.49      0.00
    4    4   11      0.59      0.00
    4    4   12     -0.18      0.00
    4    4   13      4.57      0.00
    4    4   14     -1.49      0.00
    4    4   15      1.36      0.00
    4    4   16      0.99      0.00
    4    4   17     -1.45      0.00
   -4    5   18     -2.56      0.00
   -4    5   17     -1.64      0.00
   -4    5   16     -1.41      0.00
   -4    5   15      2.29      0.00
   -4    5   14      0.41      0.00
   -4    5   13     -1.23      0.00
   -4    5   12     -4.22      0.00
   -4    5   11     -0.22      0.00
   -4    5   10     -0.33      0.00
   -4    5    9     -2.01      0.00
   -4    5    8     18.03      0.00
   -4    5    7     18.58      0.00
   -4    5    6     -3.92      0.00
   -4    5    5     -3.79      0.00
   -4    5    4     21.29      0.00
   -4    5    3     17.58      0.00
   -4    5    2     15.95      0.00
   -4    5    1      7.00      0.00
    4    5    0      5.22      0.00
    4    5    1     13.91      0.00
    4    5    2      7.97      0.00
    4    5    3    -12.52      0.00
    4    5    4    -39.77      0.00
    4    5    5     -2.32      0.00
    4    5    6     -5.07      0.00
    4    5    7     13.24      0.00
    4    5    8      1.23      0.00
    4    5    9      1.04      0.00
    4    5   10      2.79      0.00
    4    5   11     -3.04      0.00
    4    5   12     -2.74      0.00
    4    5   13     -1.05      0.00
    4    5   14     -2.72      0.00
    4    5   15      0.52      0.00
    4    5   16     -0.18      0.00
    4    5   17      1.53      0.00
   -4    6   18     -0.77      0.00
   -4    6   17      1.09      0.00
   -4    6   16     -3.35      0.00
   -4    6   15     -0.10      0.00
   -4    6   14     -0.01      0.00
   -4    6   13     -2.69      0.00
   -4    6   12      2.22      0.00
   -4    6   11     -3.58      0.00
   -4    6   10     -2.21      0.00
   -4    6    9     -9.09      0.00
   -4    6    8     -6.44      0.00
   -4    6    7    -14.69      0.00
   -4    6    6    -18.91      0.00
   -4    6    5    -16.16      0.00
   -4    6    4    -23.75      0.00
   -4    6    3    -14.82      0.00
   -4    6    2      4.02      0.00
   -4    6    1     -4.45      0.00
    4    6    0     -0.33      0.00
    4    6    1     -6.68      0.00
    4    6    2    -16.45      0.00
    4    6    3    -22.28      0.00
    4    6    4      1.15      0.00
    4    6    5     15.48      0.00
    4    6    6     -1.48      0.00
    4    6    7     -0.75      0.00
    4    6    8    -19.09      0.00
    4    6    9     -8.88      0.00
    4    6   10      1.15      0.00
    4    6   11     -2.84      0.00
    4    6   12      3.52      0.00
    4    6   13     -1.09      0.00
    4    6   14      1.86      0.00
    4    6   15     -0.51      0.00
    4    6   16     -3.12      0.00
    4    6   17     -0.05      0.00
   -4    7   17      5.34      0.00
   -4    7   16     -1.38      0.00
   -4    7   15      1.62      0.00
   -4    7   14      1.64      0.00
   -4    7   13      0.71      0.00
   -4    7   12      5.94      0.00
   -4    7   11     -2.75      0.00
   -4    7   10      6.75      0.00
   -4    7    9      8.42      0.00
   -4    7    8      2.91      0.00
   -4    7    7      5.90      0.00
   -4    7    6     22.30      0.00
   -4    7    5     14.57      0.00
   -4    7    4     10.43      0.00
   -4    7    3    -12.15      0.00
   -4    7    2      5.89      0.00
   -4    7    1     -2.49      0.00
    4    7    0      1.25      0.00
    4    7    1     -9.86      0.00
    4    7    2     13.63      0.00
    4    7    3      7.05      0.00
    4    7    4     26.51      0.00
    4    7    5     -6.52      0.00
    4    7    6     -6.80      0.00
    4    7    7      0.72      0.00
    4    7    8      6.81      0.00
    4    7    9      6.74      0.00
    4    7   10      3.20      0.00
    4    7   11      2.15      0.00
    4    7   12      1.23      0.00
    4    7   13     -2.86      0.00
    4    7   14      3.11      0.00
    4    7   15     -0.17      0.00
    4    7   16     -1.27      0.00
   -4    8   17      3.18      0.00
   -4    8   16     -2.28      0.00
   -4    8   15      1.97      0.00
   -4    8   14     -0.96      0.00
   -4    8   13      1.51      0.00
   -4    8   12     -0.78      0.00
   -4    8   11      1.68      0.00
   -4    8   10     -5.24      0.00
   -4    8    9      2.89      0.00
   -4    8    8    -12.86      0.00
   -4    8    7      0.89      0.00
   -4    8    6     -2.73      0.00
   -4    8    5     -2.78      0.00
   -4    8    4      6.54      0.00
   -4    8    3     -3.61      0.00
   -4    8    2     -2.57      0.00
   -4    8    1     -1.53      0.00
    4    8    0     -5.75      0.00
    4    8    1     -3.53      0.00
    4    8    2     -0.27      0.00
    4    8    3      2.09      0.00
    4    8    4     -7.02      0.00
    4    8    5    -10.57      0.00
    4    8    6      1.30      0.00
    4    8    7      2.89      0.00
    4    8    8      3.22      0.00
    4    8    9      4.17      0.00
    4    8   10    -12.37      0.00
    4    8   11      3.78      0.00
    4    8   12     -2.76      0.00
    4    8   13     -2.46      0.00
    4    8   14      0.26      0.00
    4    8   15     -0.51      0.00
    4    8   16      2.10      0.00
   -4    9   17     -0.08      0.00
   -4    9   16     -3.20      0.00
   -4    9   15      1.41      0.00
   -4    9   14     -3.22      0.00
   -4    9   13     -0.63      0.00
   -4    9   12     -6.07      0.00
   -4    9   11      6.18      0.00
   -4    9   10     -6.26      0.00
   -4    9    9      5.79      0.00
   -4    9    8     -2.47      0.00
   -4    9    7      2.59      0.00
   -4    9    6     -7.76      0.00
   -4    9    5     -5.35      0.00
   -4    9    4     -3.20      0.00
   -4    9    3     12.22      0.00
   -4    9    2     -2.90      0.00
   -4    9    1      5.14      0.00
    4    9    0      0.85      0.00
    4    9    1     16.46      0.00
    4    9    2     -7.35      0.00
    4    9    3      8.77      0.00
    4    9    4     -8.05      0.00
    4    9    5      8.19      0.00
    4    9    6      6.72      0.00
    4    9    7     -3.64      0.00
    4    9    8     -8.58      0.00
    4    9    9      6.55      0.00
    4    9   10     -5.62      0.00
    4    9   11      7.34      0.00
    4    9   12      0.60      0.00
    4    9   13      2.07      0.00
    4    9   14      0.41      0.00
    4    9   15     -0.25      0.00
    4    9   16     -0.04      0.00
   -4   10   16      0.66      0.00
   -4   10   15      1.13      0.00
   -4   10   14      0.99      0.00
   -4   10   13      0.55      0.00
   -4   10   12     -0.79      0.00
   -4   10   11      2.08      0.00
   -4   10   10     -0.38      0.00
   -4   10    9     -0.92      0.00
   -4   10    8      8.53      0.00
   -4   10    7     -3.94      0.00
   -4   10    6      8.92      0.00
   -4   10    5     -1.38      0.00
   -4   10    4     -0.76      0.00
   -4   10    3      9.37      0.00
   -4   10    2     -2.04      0.00
   -4   10    1      2.14      0.00
    4   10    0      2.84      0.00
    4   10    1      9.21      0.00
    4   10    2     -5.03      0.00
    4   10    3      0.75      0.00
    4   10    4      0.21      0.00
    4   10    5     -2.90      0.00
    4   10    6      4.73      0.00
    4   10    7     -1.40      0.00
    4   10    8      1.46      0.00
    4   10    9      1.94      0.00
    4   10   10      1.12      0.00
    4   10   11     -4.43      0.00
    4   10   12     -3.66      0.00
    4   10   13     -1.08      0.00
    4   10   14      0.41      0.00
    4   10   15      0.90      0.00
   -4   11   16      1.65      0.00
   -4   11   15     -2.43      0.00
   -4   11   14      1.01      0.00
   -4   11   13      2.60      0.00
   -4   11   12      0.25      0.00
   -4   11   11     -3.78      0.00
   -4   11   10      0.89      0.00
   -4   11    9     -7.28      0.00
   -4   11    8      3.92      0.00
   -4   11    7     -9.93      0.00
   -4   11    6      8.30      0.00
   -4   11    5     -3.97      0.00
   -4   11    4     -3.01      0.00
   -4   11    3     -6.36      0.00
   -4   11    2     -5.89      0.00
   -4   11    1     -0.58      0.00
    4   11    0     -9.39      0.00
    4   11    1     -8.55      0.00
    4   11    2     -4.75      0.00
    4   11    3     -5.14      0.00
    4   11    4      7.20      0.00
    4   11    5     -7.43      0.00
    4   11    6      1.68      0.00
    4   11    7     -1.46      0.00
    4   11    8      1.12      0.00
    4   11    9     -6.32      0.00
    4   11   10      3.18      0.00
    4   11   11      0.12      0.00
    4   11   12      4.85      0.00
    4   11   13      1.52      0.00
    4   11   14     -0.23      0.00
    4   11   15     -2.34      0.00
   -4   12   15     -0.25      0.00
   -4   12   14     -3.26      0.00
   -4   12   13      2.78      0.00
   -4   12   12     -1.98      0.00
   -4   12   11      2.18      0.00
   -4   12   10      3.41      0.00
   -4   12    9      2.33      0.00
   -4   12    8      1.19      0.00
   -4   12    7      0.82      0.00
   -4   12    6     -1.00      0.00
   -4   12    5      3.74      0.00
   -4   12    4     -0.52      0.00
   -4   12    3      1.37      0.00
   -4   12    2     -1.30      0.00
   -4   12    1     -0.87      0.00
    4   12    1      1.58      0.00
    4   12    2      3.84      0.00
    4   12    3      0.46      0.00
    4   12    4      3.74      0.00
    4   12    5     -1.52      0.00
    4   12    6     -3.88      0.00
    4   12    7      2.35      0.00
    4   12    8     -0.29      0.00
    4   12    9      3.15      0.00
    4   12   10      1.62      0.00
    4   12   11     -0.09      0.00
    4   12   12      0.98      0.00
    4   12   13     -2.34      0.00
    4   12   14      0.13      0.00
   -4   13   14     -1.97      0.00
   -4   13   13      0.44      0.00
   -4   13   12     -1.34      0.00
   -4   13   11      1.22      0.00
   -4   13   10     -3.38      0.00
   -4   13    9      0.62      0.00
   -4   13    8     -3.15      0.00
   -4   13    7      3.37      0.00
   -4   13    6     -7.04      0.00
   -4   13    5      2.00      0.00
   -4   13    4     -0.03      0.00
   -4   13    3      4.37      0.00
   -4   13    2      4.96      0.00
   -4   13    1      3.44      0.00
    4   13    0      5.32      0.00
    4   13    1      5.91      0.00
    4   13    2      3.80      0.00
    4   13    3     -4.45      0.00
    4   13    4     -0.70      0.00
    4   13    5      4.19      0.00
    4   13    6     -1.82      0.00
    4   13    7      3.64      0.00
    4   13    8     -2.91      0.00
    4   13    9      1.78      0.00
    4   13   10     -3.07      0.00
    4   13   11     -4.67      0.00
    4   13   12     -0.64      0.00
    4   13   13     -1.76      0.00
   -4   14   13     -2.30      0.00
   -4   14   12      2.39      0.00
   -4   14   11      0.53      0.00
   -4   14   10      0.15      0.00
   -4   14    9      1.33      0.00
   -4   14    8      1.38      0.00
   -4   14    7      1.37      0.00
   -4   14    6      3.05      0.00
   -4   14    5      0.16      0.00
   -4   14    4      2.69      0.00
   -4   14    3     -5.03      0.00
   -4   14    2      0.93      0.00
   -4   14    1     -3.50      0.00
    4   14    0      1.64      0.00
    4   14    1     -4.57      0.00
    4   14    2      3.63      0.00
    4   14    3     -3.91      0.00
    4   14    4      0.97      0.00
    4   14    5      1.90      0.00
    4   14    6      0.65      0.00
    4   14    7      0.11      0.00
    4   14    8      0.17      0.00
    4   14    9     -0.73      0.00
    4   14   10      2.31      0.00
    4   14   11      1.51      0.00
    4   14   12      3.05      0.00
    4   14   13      2.14      0.00
   -4   15   13     -0.94      0.00
   -4   15   12      2.00      0.00
   -4   15   11     -3.28      0.00
   -4   15   10     -0.54      0.00
   -4   15    9     -1.88      0.00
   -4   15    8     -0.19      0.00
   -4   15    7     -4.06      0.00
   -4   15    6      2.40      0.00
   -4   15    5     -3.58      0.00
   -4   15    4     -1.50      0.00
   -4   15    3     -6.91      0.00
   -4   15    2      1.85      0.00
   -4   15    1     -1.65      0.00
    4   15    0     -2.26      0.00
    4   15    1     -7.69      0.00
    4   15    2      4.08      0.00
    4   15    3     -0.80      0.00
    4   15    4     -2.49      0.00
    4   15    5     -4.41      0.00
    4   15    6     -1.10      0.00
    4   15    7     -3.89      0.00
    4   15    8     -0.99      0.00
    4   15    9     -2.19      0.00
    4   15   10      0.75      0.00
    4   15   11     -1.01      0.00
    4   15   12     -2.49      0.00
   -4   16   12      1.58      0.00
   -4   16   11     -0.52      0.00
   -4   16   10      2.65      0.00
   -4   16    9      1.24      0.00
   -4   16    8      0.48      0.00
   -4   16    7     -0.24      0.00
   -4   16    6     -0.62      0.00
   -4   16    5      0.06      0.00
   -4   16    4      3.30      0.00
   -4   16    3      0.56      0.00
   -4   16    2      3.03      0.00
   -4   16    1     -0.15      0.00
    4   16    0      5.48      0.00
    4   16    1     -2.52      0.00
    4   16    2      0.51      0.00
    4   16    3      2.20      0.00
    4   16    4      0.24      0.00
    4   16    5      1.08      0.00
    4   16    6      3.12      0.00
    4   16    7      1.98      0.00
    4   16    8      0.48      0.00
    4   16    9      2.25      0.00
    4   16   10      0.80      0.00
    4   16   11     -0.22      0.00
   -4   17   10     -0.61      0.00
   -4   17    9     -0.10      0.00
   -4   17    8     -0.98      0.00
   -4   17    7      0.80      0.00
   -4   17    6     -2.55      0.00
   -4   17    5     -1.46      0.00
   -4   17    4      3.86      0.00
   -4   17    3     -0.45      0.00
   -4   17    2     -0.37      0.00
   -4   17    1     -5.66      0.00
    4   17    0      2.52      0.00
    4   17    1      0.72      0.00
    4   17    2     -2.51      0.00
    4   17    3      2.65      0.00
    4   17    4     -0.60      0.00
    4   17    5      2.16      0.00
    4   17    6     -0.68      0.00
    4   17    7      1.50      0.00
    4   17    8     -1.47      0.00
    4   17    9      1.28      0.00
   -4   18    9     -0.68      0.00
   -4   18    8     -0.17      0.00
   -4   18    7      2.12      0.00
   -4   18    6      0.56      0.00
   -4   18    5     -1.39      0.00
   -4   18    4      0.38      0.00
   -4   18    3     -0.76      0.00
   -4   18    2      3.40      0.00
   -4   18    1      2.88      0.00
    4   18    0      0.46      0.00
    4   18    1      3.18      0.00
    4   18    2     -0.35      0.00
    4   18    3      0.78      0.00
    4   18    4     -1.59      0.00
    4   18    5      3.48      0.00
    4   18    6     -2.73      0.00
    4   18    7      0.36      0.00
    4   18    8     -0.52      0.00
   -4   19    7      1.73      0.00
   -4   19    6      1.87      0.00
   -4   19    5      2.14      0.00
   -4   19    4      1.83      0.00
   -4   19    3     -2.30      0.00
   -4   19    2     -1.85      0.00
   -4   19    1      0.51      0.00
    4   19    0     -1.18      0.00
    4   19    1     -0.54      0.00
    4   19    2      0.95      0.00
    4   19    3     -2.17      0.00
    4   19    4     -3.09      0.00
    4   19    5      1.15      0.00
    4   19    6     -2.79      0.00
   -4   20    4      0.42      0.00
   -4   20    3     -0.91      0.00
   -4   20    2      0.78      0.00
   -4   20    1     -0.55      0.00
    4   20    0     -0.17      0.00
    4   20    1     -1.50      0.00
    4   20    2      0.95      0.00
    4   20    3      1.53      0.00
   -5    0   18     -1.09      0.00
   -5    0   16      5.02      0.00
   -5    0   14     -3.39      0.00
   -5    0   12      5.11      0.00
   -5    0   10     20.14      0.00
   -5    0    8     15.96      0.00
   -5    0    6     -4.37      0.00
   -5    0    4      6.56      0.00
   -5    0    2      7.77      0.00
    5    0    0     57.36      0.00
    5    0    2     96.75      0.00
    5    0    6      4.60      0.00
    5    0    8     13.07      0.00
    5    0   10     11.77      0.00
    5    0   12      2.04      0.00
    5    0   14      2.45      0.00
    5    0   16      1.74      0.00
   -5    1   18     -2.56      0.00
   -5    1   17     -0.97      0.00
   -5    1   16     -0.59      0.00
   -5    1   15     -0.13      0.00
   -5    1   14      6.33      0.00
   -5    1   13      1.90      0.00
   -5    1   12     -7.21      0.00
   -5    1   11     -6.58      0.00
   -5    1   10     -0.85      0.00
   -5    1    9    -10.83      0.00
   -5    1    8      0.33      0.00
   -5    1    7     -6.03      0.00
   -5    1    6     -2.86      0.00
   -5    1    5     19.84      0.00
   -5    1    4    -35.46      0.00
   -5    1    3     18.02      0.00
   -5    1    2     47.92      0.00
   -5    1    1      0.36      0.00
    5    1    0     23.11      0.00
    5    1    1    -14.95      0.00
    5    1    2     32.38      0.00
    5    1    3     -6.60      0.00
    5    1    6     -8.00      0.00
    5    1    7     -2.64      0.00
    5    1    8     -0.22      0.00
    5    1    9     -4.11      0.00
    5    1   10     -2.62      0.00
    5    1   11     -3.92      0.00
    5    1   12      1.65      0.00
    5    1   13     -0.92      0.00
    5    1   14      0.67      0.00
    5    1   15     -1.00      0.00
    5    1   16      4.48      0.00
    5    1   17     -0.33      0.00
   -5    2   18      1.10      0.00
   -5    2   17      1.66      0.00
   -5    2   16     -2.51      0.00
   -5    2   15     -2.18      0.00
   -5    2   14      0.72      0.00
   -5    2   13     -0.57      0.00
   -5    2   12     -3.39      0.00
   -5    2   11     -0.32      0.00
   -5    2   10     -4.40      0.00
   -5    2    9     -0.88      0.00
   -5    2    8      3.84      0.00
   -5    2    7     -1.42      0.00
   -5    2    6     -0.34      0.00
   -5    2    5     13.60      0.00
   -5    2    4    -38.75      0.00
   -5    2    3      5.23      0.00
   -5    2    2    -16.67      0.00
   -5    2    1    -20.74      0.00
    5    2    0    -41.27      0.00
    5    2    1    -28.96      0.00
    5    2    2    -85.35      0.00
    5    2    3    -34.62      0.00
    5    2    4    -11.57      0.00
    5    2    5     -4.02      0.00
    5    2    6      5.09      0.00
    5    2    7      5.65      0.00
    5    2    8     -4.70      0.00
    5    2    9     -4.10      0.00
    5    2   10     -4.08      0.00
    5    2   11     -3.27      0.00
    5    2   12      1.61      0.00
    5    2   13      0.27      0.00
    5    2   14     -1.62      0.00
    5    2   15     -2.14      0.00
    5    2   16      0.24      0.00
    5    2   17      1.14      0.00
   -5    3   18      0.58      0.00
   -5    3   17      0.94      0.00
   -5    3   16      2.33      0.00
   -5    3   15      0.12      0.00
   -5    3   14     -3.47      0.00
   -5    3   13      0.57      0.00
   -5    3   12      3.73      0.00
   -5    3   11      5.80      0.00
   -5    3   10      1.07      0.00
   -5    3    9     -0.70      0.00
   -5    3    8      5.96      0.00
   -5    3    7     -9.75      0.00
   -5    3    6     -6.15      0.00
   -5    3    5    -24.10      0.00
   -5    3    4     15.65      0.00
   -5    3    3     -9.17      0.00
   -5    3    2    -20.89      0.00
   -5    3    1     -4.18      0.00
    5    3    0    -17.55      0.00
    5    3    1     48.18      0.00
    5    3    2     22.09      0.00
    5    3    3     26.79      0.00
    5    3    4      4.80      0.00
    5    3    5     -8.37      0.00
    5    3    6     -1.37      0.00
    5    3    7    -12.34      0.00
    5    3    8     -0.01      0.00
    5    3    9      0.34      0.00
    5    3   10     11.58      0.00
    5    3   11      2.01      0.00
    5    3   12     -1.17      0.00
    5    3   13      1.39      0.00
    5    3   14     -0.62      0.00
    5    3   15     -0.25      0.00
    5    3   16     -2.98      0.00
    5    3   17     -0.85      0.00
   -5    4   18     -0.53      0.00
   -5    4   17     -0.71      0.00
   -5    4   16     -0.06      0.00
   -5    4   15      0.67      0.00
   -5    4   14     -1.14      0.00
   -5    4   13      3.38      0.00
   -5    4   12     -0.33      0.00
   -5    4   11      4.68      0.00
   -5    4   10      0.27      0.00
   -5    4    9     -5.85      0.00
   -5    4    8      4.55      0.00
   -5    4    7      0.85      0.00
   -5    4    6     26.50      0.00
   -5    4    5      5.65      0.00
   -5    4    4     47.61      0.00
   -5    4    3     -6.66      0.00
   -5    4    2     15.07      0.00
   -5    4    1     11.04      0.00
    5    4    0     -5.30      0.00
    5    4    1      4.35      0.00
    5    4    3      1.70      0.00
    5    4    4     -3.35      0.00
    5    4    5      8.24      0.00
    5    4    6     10.62      0.00
    5    4    7      1.95      0.00
    5    4    8     12.13      0.00
    5    4    9     -4.19      0.00
    5    4   10      0.16      0.00
    5    4   11     -2.67      0.00
    5    4   12     -2.23      0.00
    5    4   13      2.08      0.00
    5    4   14      1.01      0.00
    5    4   15      3.74      0.00
    5    4   16      0.11      0.00
    5    4   17      0.82      0.00
   -5    5   18     -2.70      0.00
   -5    5   17      0.31      0.00
   -5    5   16     -2.29      0.00
   -5    5   15      0.43      0.00
   -5    5   14      0.90      0.00
   -5    5   13     -1.22      0.00
   -5    5   12     -6.99      0.00
   -5    5   11     -2.33      0.00
   -5    5   10      0.04      0.00
   -5    5    9      5.05      0.00
   -5    5    8      1.03      0.00
   -5    5    7     -9.46      0.00
   -5    5    6     -1.51      0.00
   -5    5    5     -4.69      0.00
   -5    5    4    -15.20      0.00
   -5    5    3     -4.35      0.00
   -5    5    2     11.43      0.00
   -5    5    1     21.92      0.00
    5    5    0     13.88      0.00
    5    5    2    -11.61      0.00
    5    5    3      8.00      0.00
    5    5    4      0.82      0.00
    5    5    5      5.63      0.00
    5    5    6     -5.95      0.00
    5    5    7     -0.16      0.00
    5    5    8      2.47      0.00
    5    5    9     -0.14      0.00
    5    5   10     -2.12      0.00
    5    5   11     -0.11      0.00
    5    5   12      5.15      0.00
    5    5   13     -3.78      0.00
    5    5   14     -1.80      0.00
    5    5   15      1.61      0.00
    5    5   16     -1.65      0.00
    5    5   17     -0.54      0.00
   -5    6   18      0.32      0.00
   -5    6   17      2.74      0.00
   -5    6   16     -0.06      0.00
   -5    6   15     -0.33      0.00
   -5    6   14      2.25      0.00
   -5    6   13     -1.69      0.00
   -5    6   12      2.34      0.00
   -5    6   11     -5.90      0.00
   -5    6   10     -2.08      0.00
   -5    6    9      2.48      0.00
   -5    6    8     -0.19      0.00
   -5    6    7     -3.97      0.00
   -5    6    6     -6.69      0.00
   -5    6    5    -10.21      0.00
   -5    6    4    -23.64      0.00
   -5    6    3      4.96      0.00
   -5    6    2    -13.06      0.00
   -5    6    1     -2.57      0.00
    5    6    0     -5.99      0.00
    5    6    1      4.69      0.00
    5    6    2     -8.88      0.00
    5    6    3     -3.31      0.00
    5    6    4     -4.65      0.00
    5    6    5    -14.81      0.00
    5    6    6     -5.30      0.00
    5    6    7     -1.15      0.00
    5    6    8     -7.35      0.00
    5    6    9      0.15      0.00
    5    6   10     -0.61      0.00
    5    6   11     -6.40      0.00
    5    6   12      7.76      0.00
    5    6   13     -6.72      0.00
    5    6   14      0.80      0.00
    5    6   15      0.28      0.00
    5    6   16      0.42      0.00
   -5    7   17      0.36      0.00
   -5    7   16     -0.44      0.00
   -5    7   15     -0.20      0.00
   -5    7   14      0.21      0.00
   -5    7   13     -0.23      0.00
   -5    7   12     10.41      0.00
   -5    7   11      1.91      0.00
   -5    7   10      3.21      0.00
   -5    7    9     -1.72      0.00
   -5    7    8     -1.23      0.00
   -5    7    7     12.64      0.00
   -5    7    6     12.47      0.00
   -5    7    5      2.78      0.00
   -5    7    4     18.81      0.00
   -5    7    3      3.79      0.00
   -5    7    2     -8.79      0.00
   -5    7    1     -7.08      0.00
    5    7    0     -5.57      0.00
    5    7    1     -2.11      0.00
    5    7    2     -0.91      0.00
    5    7    3    -17.26      0.00
    5    7    4     11.10      0.00
    5    7    5      1.50      0.00
    5    7    6     15.53      0.00
    5    7    7      2.92      0.00
    5    7    8     -5.22      0.00
    5    7    9      2.46      0.00
    5    7   10      4.38      0.00
    5    7   11     -4.65      0.00
    5    7   12      4.73      0.00
    5    7   13     -1.48      0.00
    5    7   14      2.90      0.00
    5    7   15     -2.43      0.00
    5    7   16     -0.16      0.00
   -5    8   17      0.83      0.00
   -5    8   16     -0.58      0.00
   -5    8   15      0.98      0.00
   -5    8   14     -2.93      0.00
   -5    8   13     -2.52      0.00
   -5    8   12     -3.74      0.00
   -5    8   11      0.01      0.00
   -5    8   10     -3.64      0.00
   -5    8    9     -0.90      0.00
   -5    8    8    -13.74      0.00
   -5    8    7     -1.41      0.00
   -5    8    6     -9.57      0.00
   -5    8    5     -7.03      0.00
   -5    8    4     13.22      0.00
   -5    8    3    -10.00      0.00
   -5    8    2     -1.94      0.00
   -5    8    1      6.85      0.00
    5    8    0     -6.73      0.00
    5    8    1     -1.34      0.00
    5    8    2     11.48      0.00
    5    8    3      7.27      0.00
    5    8    4      9.83      0.00
    5    8    5     -0.91      0.00
    5    8    6     -7.74      0.00
    5    8    7     -2.39      0.00
    5    8    8     -2.50      0.00
    5    8    9      6.37      0.00
    5    8   10      0.74      0.00
    5    8   11      1.84      0.00
    5    8   12     -4.11      0.00
    5    8   13      1.80      0.00
    5    8   14      1.14      0.00
    5    8   15     -1.20      0.00
    5    8   16      0.52      0.00
   -5    9   17     -1.30      0.00
   -5    9   16      0.31      0.00
   -5    9   15      0.78      0.00
   -5    9   14      0.89      0.00
   -5    9   13      3.11      0.00
   -5    9   12     -4.45      0.00
   -5    9   11      4.79      0.00
   -5    9   10     -0.53      0.00
   -5    9    9     13.40      0.00
   -5    9    8      3.99      0.00
   -5    9    7      4.74      0.00
   -5    9    6      0.91      0.00
   -5    9    5      2.43      0.00
   -5    9    4      0.58      0.00
   -5    9    3     -0.07      0.00
   -5    9    2      3.41      0.00
   -5    9    1     16.03      0.00
    5    9    0      6.29      0.00
    5    9    1      4.44      0.00
    5    9    2     -3.22      0.00
    5    9    3      4.34      0.00
    5    9    4    -13.40      0.00
    5    9    5     -1.76      0.00
    5    9    6     -8.31      0.00
    5    9    7      9.63      0.00
    5    9    8      2.19      0.00
    5    9    9     -0.62      0.00
    5    9   10     -7.08      0.00
    5    9   11      3.31      0.00
    5    9   12     -3.82      0.00
    5    9   13      1.64      0.00
    5    9   14     -0.90      0.00
    5    9   15     -0.30      0.00
   -5   10   16      2.62      0.00
   -5   10   15     -4.17      0.00
   -5   10   14      2.42      0.00
   -5   10   13     -0.62      0.00
   -5   10   12     -1.16      0.00
   -5   10   11     -3.18      0.00
   -5   10   10     -5.95      0.00
   -5   10    9     -4.05      0.00
   -5   10    8      2.46      0.00
   -5   10    7    -10.06      0.00
   -5   10    6      5.58      0.00
   -5   10    5     -3.89      0.00
   -5   10    4     -4.24      0.00
   -5   10    3      2.52      0.00
   -5   10    2     -0.87      0.00
   -5   10    1     -0.35      0.00
    5   10    0      4.16      0.00
    5   10    1      0.46      0.00
    5   10    2     -1.01      0.00
    5   10    3      1.29      0.00
    5   10    4      0.60      0.00
    5   10    5     11.56      0.00
    5   10    6      3.68      0.00
    5   10    7      1.39      0.00
    5   10    8      0.97      0.00
    5   10    9     -7.58      0.00
    5   10   10      1.62      0.00
    5   10   11      2.66      0.00
    5   10   12      2.10      0.00
    5   10   13     -1.01      0.00
    5   10   14     -0.34      0.00
    5   10   15      0.02      0.00
   -5   11   16      3.30      0.00
   -5   11   15     -4.14      0.00
   -5   11   14      5.25      0.00
   -5   11   13     -2.23      0.00
   -5   11   12      5.27      0.00
   -5   11   11      1.71      0.00
   -5   11   10      3.35      0.00
   -5   11    9     -6.79      0.00
   -5   11    8      6.76      0.00
   -5   11    7     -5.03      0.00
   -5   11    6      7.38      0.00
   -5   11    5     -6.03      0.00
   -5   11    4      0.96      0.00
   -5   11    3     -1.09      0.00
   -5   11    2     -1.01      0.00
   -5   11    1    -10.78      0.00
    5   11    0     -2.84      0.00
    5   11    2     -0.43      0.00
    5   11    3     -7.03      0.00
    5   11    4     -1.66      0.00
    5   11    5      0.94      0.00
    5   11    6     -3.00      0.00
    5   11    7     -7.77      0.00
    5   11    8      5.22      0.00
    5   11    9     -0.92      0.00
    5   11   10      5.37      0.00
    5   11   11     -2.11      0.00
    5   11   12     -1.70      0.00
    5   11   13     -0.87      0.00
    5   11   14      0.66      0.00
   -5   12   15     -2.79      0.00
   -5   12   14      0.82      0.00
   -5   12   13     -3.42      0.00
   -5   12   12     -1.40      0.00
   -5   12   11      0.27      0.00
   -5   12   10      2.42      0.00
   -5   12    9     -3.45      0.00
   -5   12    8      1.27      0.00
   -5   12    7      1.39      0.00
   -5   12    6     -1.83      0.00
   -5   12    5      1.83      0.00
   -5   12    4      1.44      0.00
   -5   12    3     -1.32      0.00
   -5   12    2      1.22      0.00
   -5   12    1     -1.96      0.00
    5   12    0      0.85      0.00
    5   12    1     -0.11      0.00
    5   12    2      3.40      0.00
    5   12    3      5.56      0.00
    5   12    4     -2.83      0.00
    5   12    5      0.06      0.00
    5   12    6     -1.67      0.00
    5   12    7     -1.76      0.00
    5   12    8      0.78      0.00
    5   12    9      1.23      0.00
    5   12   10     -1.33      0.00
    5   12   11      0.99      0.00
    5   12   12     -1.13      0.00
    5   12   13      4.62      0.00
    5   12   14      0.29      0.00
   -5   13   14      1.36      0.00
   -5   13   13      0.73      0.00
   -5   13   12     -0.61      0.00
   -5   13   11     -0.63      0.00
   -5   13   10      2.34      0.00
   -5   13    9      3.62      0.00
   -5   13    8      0.28      0.00
   -5   13    7      2.07      0.00
   -5   13    6     -3.95      0.00
   -5   13    5      6.48      0.00
   -5   13    4      0.51      0.00
   -5   13    3      1.32      0.00
   -5   13    2      4.70      0.00
   -5   13    1      1.87      0.00
    5   13    0      1.08      0.00
    5   13    1      0.59      0.00
    5   13    2     -3.88      0.00
    5   13    3      6.19      0.00
    5   13    4     -2.64      0.00
    5   13    5     -0.84      0.00
    5   13    6      1.99      0.00
    5   13    7      2.79      0.00
    5   13    8     -1.73      0.00
    5   13    9     -1.47      0.00
    5   13   10     -2.07      0.00
    5   13   11      2.24      0.00
    5   13   12     -1.52      0.00
    5   13   13     -0.59      0.00
   -5   14   13     -1.28      0.00
   -5   14   12      1.49      0.00
   -5   14   11     -2.44      0.00
   -5   14   10     -2.08      0.00
   -5   14    9     -1.22      0.00
   -5   14    8      0.02      0.00
   -5   14    7     -2.00      0.00
   -5   14    6      1.61      0.00
   -5   14    5     -1.60      0.00
   -5   14    4     -0.92      0.00
   -5   14    3     -2.54      0.00
   -5   14    2      1.14      0.00
   -5   14    1     -0.14      0.00
    5   14    0      3.74      0.00
    5   14    1      4.54      0.00
    5   14    2     -3.75      0.00
    5   14    3     -0.97      0.00
    5   14    4      0.48      0.00
    5   14    5     -1.12      0.00
    5   14    6      2.10      0.00
    5   14    7      1.52      0.00
    5   14    8      2.65      0.00
    5   14    9     -0.96      0.00
    5   14   10      0.57      0.00
    5   14   11      0.03      0.00
    5   14   12     -1.12      0.00
   -5   15   13      0.70      0.00
   -5   15   12      1.88      0.00
   -5   15   11      1.73      0.00
   -5   15   10      1.49      0.00
   -5   15    9     -1.91      0.00
   -5   15    8     -0.02      0.00
   -5   15    7     -2.16      0.00
   -5   15    6      3.49      0.00
   -5   15    5     -6.20      0.00
   -5   15    4     -0.28      0.00
   -5   15    3     -2.98      0.00
   -5   15    2     -4.55      0.00
   -5   15    1     -2.38      0.00
    5   15    0     -4.23      0.00
    5   15    1     -0.33      0.00
    5   15    2     -1.05      0.00
    5   15    3     -2.87      0.00
    5   15    4      3.56      0.00
    5   15    5      0.41      0.00
    5   15    6     -0.95      0.00
    5   15    7     -2.62      0.00
    5   15    8      0.17      0.00
    5   15    9     -0.91      0.00
    5   15   10     -0.29      0.00
    5   15   11     -0.12      0.00
   -5   16   11     -0.96      0.00
   -5   16   10      0.25      0.00
   -5   16    9     -0.80      0.00
   -5   16    8      1.13      0.00
   -5   16    7      0.60      0.00
   -5   16    6     -0.13      0.00
   -5   16    5     -1.64      0.00
   -5   16    4      4.87      0.00
   -5   16    3      3.39      0.00
   -5   16    2      1.16      0.00
   -5   16    1     -0.42      0.00
    5   16    0     -3.53      0.00
    5   16    1     -0.05      0.00
    5   16    2      4.77      0.00
    5   16    3     -0.41      0.00
    5   16    4      0.41      0.00
    5   16    5     -1.55      0.00
    5   16    6     -1.52      0.00
    5   16    7     -2.52      0.00
    5   16    8     -2.73      0.00
    5   16    9      0.76      0.00
    5   16   10      1.30      0.00
   -5   17   10      0.51      0.00
   -5   17    9      0.50      0.00
   -5   17    8      1.59      0.00
   -5   17    7     -0.46      0.00
   -5   17    6     -0.99      0.00
   -5   17    5      0.63      0.00
   -5   17    4      0.77      0.00
   -5   17    3     -3.23      0.00
   -5   17    2      0.84      0.00
   -5   17    1      4.82      0.00
    5   17    0      2.20      0.00
    5   17    1     -0.12      0.00
    5   17    2      1.28      0.00
    5   17    3     -0.32      0.00
    5   17    4     -2.21      0.00
    5   17    5     -0.51      0.00
    5   17    6      2.47      0.00
    5   17    7      3.23      0.00
    5   17    8      1.41      0.00
    5   17    9      1.77      0.00
   -5   18    9     -1.68      0.00
   -5   18    8     -1.06      0.00
   -5   18    7     -1.06      0.00
   -5   18    6      1.14      0.00
   -5   18    5      0.04      0.00
   -5   18    4      1.00      0.00
   -5   18    3     -0.62      0.00
   -5   18    2     -1.71      0.00
   -5   18    1      0.66      0.00
    5   18    0     -0.91      0.00
    5   18    1     -1.58      0.00
    5   18    2     -2.13      0.00
    5   18    3      0.62      0.00
    5   18    4      1.53      0.00
    5   18    5      2.41      0.00
    5   18    6      0.89      0.00
    5   18    7      1.17      0.00
    5   18    8     -0.59      0.00
   -5   19    7      1.17      0.00
   -5   19    6      1.64      0.00
   -5   19    5     -1.55      0.00
   -5   19    4      1.92      0.00
   -5   19    3      2.57      0.00
   -5   19    2      1.02      0.00
   -5   19    1     -1.61      0.00
    5   19    0     -1.26      0.00
    5   19    1      0.86      0.00
    5   19    2      2.05      0.00
    5   19    3     -1.25      0.00
    5   19    4      0.13      0.00
    5   19    5     -0.70      0.00
    5   19    6     -3.13      0.00
   -5   20    4     -1.61      0.00
   -5   20    3     -1.91      0.00
   -5   20    2      0.55      0.00
   -5   20    1     -1.70      0.00
    5   20    0      1.72      0.00
    5   20    1     -1.20      0.00
    5   20    2      2.10      0.00
    5   20    3     -1.69      0.00
   -6    0   18     -1.05      0.00
   -6    0   16     -4.92      0.00
   -6    0   14      2.46      0.00
   -6    0   12      2.85      0.00
   -6    0   10     16.69      0.00
   -6    0    8      7.00      0.00
   -6    0    6     13.37      0.00
   -6    0    4      8.70      0.00
   -6    0    2      6.94      0.00
    6    0    0     47.89      0.00
    6    0    2     70.51      0.00
    6    0    4     14.55      0.00
    6    0    8     10.25      0.00
    6    0   10      8.70      0.00
    6    0   12     -6.25      0.00
    6    0   14     -1.66      0.00
    6    0   16      0.83      0.00
   -6    1   18      1.01      0.00
   -6    1   17      1.55      0.00
   -6    1   16     -3.41      0.00
   -6    1   15      1.02      0.00
   -6    1   14      2.64      0.00
   -6    1   13     -3.26      0.00
   -6    1   12     -1.41      0.00
   -6    1   11     -1.98      0.00
   -6    1   10    -12.66      0.00
   -6    1    9     -3.30      0.00
   -6    1    8      1.92      0.00
   -6    1    7     -2.96      0.00
   -6    1    6    -13.65      0.00
   -6    1    5      7.27      0.00
   -6    1    4     22.60      0.00
   -6    1    3     16.55      0.00
   -6    1    1    -11.06      0.00
    6    1    0    -40.07      0.00
    6    1    1    -25.28      0.00
    6    1    2     30.56      0.00
    6    1    3     -4.39      0.00
    6    1    4      4.63      0.00
    6    1    5     10.78      0.00
    6    1    6      5.32      0.00
    6    1    7      4.54      0.00
    6    1    8     -3.87      0.00
    6    1    9     -1.49      0.00
    6    1   10     -2.17      0.00
    6    1   11      1.72      0.00
    6    1   12      0.65      0.00
    6    1   13      2.96      0.00
    6    1   14      3.04      0.00
    6    1   15      0.49      0.00
    6    1   16     -0.75      0.00
    6    1   17      0.89      0.00
   -6    2   18     -0.85      0.00
   -6    2   17     -0.78      0.00
   -6    2   16      2.12      0.00
   -6    2   15      3.72      0.00
   -6    2   14      0.21      0.00
   -6    2   13     -1.81      0.00
   -6    2   12      2.35      0.00
   -6    2   11     -0.74      0.00
   -6    2   10    -14.11      0.00
   -6    2    9      5.78      0.00
   -6    2    8      0.01      0.00
   -6    2    7     11.72      0.00
   -6    2    6    -14.89      0.00
   -6    2    5    -18.90      0.00
   -6    2    4    -30.80      0.00
   -6    2    3    -28.45      0.00
   -6    2    2    -11.68      0.00
   -6    2    1    -22.21      0.00
    6    2    0     -7.41      0.00
    6    2    1      1.00      0.00
    6    2    2    -37.96      0.00
    6    2    3    -31.52      0.00
    6    2    4    -23.71      0.00
    6    2    5    -19.13      0.00
    6    2    6     -1.64      0.00
    6    2    7     -2.72      0.00
    6    2    8    -10.61      0.00
    6    2    9      1.83      0.00
    6    2   10     -7.15      0.00
    6    2   11     -1.96      0.00
    6    2   12      0.41      0.00
    6    2   13     -1.76      0.00
    6    2   14     -1.73      0.00
    6    2   15     -1.53      0.00
    6    2   16     -2.38      0.00
    6    2   17      0.41      0.00
   -6    3   18      0.77      0.00
   -6    3   17     -0.07      0.00
   -6    3   16      0.39      0.00
   -6    3   15     -2.41      0.00
   -6    3   14     -4.09      0.00
   -6    3   13      1.04      0.00
   -6    3   12      3.24      0.00
   -6    3   11      1.72      0.00
   -6    3   10      6.80      0.00
   -6    3    9      2.87      0.00
   -6    3    8    -16.67      0.00
   -6    3    7     -1.45      0.00
   -6    3    6     11.13      0.00
   -6    3    5      5.49      0.00
   -6    3    4     23.10      0.00
   -6    3    3    -17.88      0.00
   -6    3    2     19.81      0.00
   -6    3    1      5.64      0.00
    6    3    1      8.49      0.00
    6    3    2     -6.55      0.00
    6    3    3      2.64      0.00
    6    3    4     26.74      0.00
    6    3    5     -2.88      0.00
    6    3    6      7.63      0.00
    6    3    7      0.86      0.00
    6    3    8      4.59      0.00
    6    3    9      2.20      0.00
    6    3   10      3.00      0.00
    6    3   11      0.08      0.00
    6    3   12      2.82      0.00
    6    3   13      1.65      0.00
    6    3   14     -2.12      0.00
    6    3   15      2.70      0.00
    6    3   16      2.09      0.00
    6    3   17     -0.10      0.00
   -6    4   18     -1.24      0.00
   -6    4   17      2.05      0.00
   -6    4   16     -0.32      0.00
   -6    4   15      0.26      0.00
   -6    4   14      0.27      0.00
   -6    4   13      2.20      0.00
   -6    4   12     -2.65      0.00
   -6    4   11      2.42      0.00
   -6    4   10     11.06      0.00
   -6    4    9      5.16      0.00
   -6    4    8      2.31      0.00
   -6    4    7      4.02      0.00
   -6    4    6      5.22      0.00
   -6    4    5      7.11      0.00
   -6    4    4     33.46      0.00
   -6    4    3    -14.17      0.00
   -6    4    2     19.44      0.00
   -6    4    1      3.79      0.00
    6    4    1    -12.72      0.00
    6    4    2     29.06      0.00
    6    4    3     18.83      0.00
    6    4    4     23.48      0.00
    6    4    5      6.98      0.00
    6    4    6     -2.63      0.00
    6    4    7     -3.97      0.00
    6    4    8      3.05      0.00
    6    4    9     -5.04      0.00
    6    4   10      5.80      0.00
    6    4   11     -2.61      0.00
    6    4   12     -1.68      0.00
    6    4   13      2.63      0.00
    6    4   14     -2.82      0.00
    6    4   15      2.56      0.00
    6    4   16     -0.33      0.00
    6    4   17      0.11      0.00
   -6    5   18     -1.11      0.00
   -6    5   17      0.40      0.00
   -6    5   16     -1.43      0.00
   -6    5   15      3.28      0.00
   -6    5   14      1.36      0.00
   -6    5   13     -1.86      0.00
   -6    5   12     -4.05      0.00
   -6    5   11     -4.08      0.00
   -6    5   10     -9.46      0.00
   -6    5    9     -9.16      0.00
   -6    5    8      3.65      0.00
   -6    5    7      5.57      0.00
   -6    5    6    -22.04      0.00
   -6    5    5    -10.18      0.00
   -6    5    4    -12.86      0.00
   -6    5    2      0.59      0.00
   -6    5    1     -2.15      0.00
    6    5    0     -8.24      0.00
    6    5    1      2.00      0.00
    6    5    2      7.31      0.00
    6    5    3    -20.48      0.00
    6    5    4    -33.33      0.00
    6    5    5     -5.81      0.00
    6    5    6     -4.21      0.00
    6    5    7      5.79      0.00
    6    5    8      3.66      0.00
    6    5    9     -0.53      0.00
    6    5   10      6.31      0.00
    6    5   11     -3.35      0.00
    6    5   12      0.38      0.00
    6    5   13      0.64      0.00
    6    5   14     -1.45      0.00
    6    5   15      2.05      0.00
    6    5   16     -3.01      0.00
   -6    6   18      1.22      0.00
   -6    6   17     -2.45      0.00
   -6    6   16     -2.97      0.00
   -6    6   15      0.46      0.00
   -6    6   14     -0.85      0.00
   -6    6   13     -2.19      0.00
   -6    6   12      8.27      0.00
   -6    6   11      0.09      0.00
   -6    6   10      2.53      0.00
   -6    6    9     -3.35      0.00
   -6    6    8      6.03      0.00
   -6    6    7      7.96      0.00
   -6    6    6     -1.44      0.00
   -6    6    5      5.86      0.00
   -6    6    4     -9.83      0.00
   -6    6    3      4.22      0.00
   -6    6    2     -5.94      0.00
   -6    6    1     -9.28      0.00
    6    6    0     14.42      0.00
    6    6    1      7.03      0.00
    6    6    2     -2.43      0.00
    6    6    3     -4.65      0.00
    6    6    4      8.36      0.00
    6    6    5      4.96      0.00
    6    6    6      6.93      0.00
    6    6    7     -3.71      0.00
    6    6    8     -4.57      0.00
    6    6    9     -7.44      0.00
    6    6   10      0.87      0.00
    6    6   11     -5.45      0.00
    6    6   12      3.85      0.00
    6    6   13     -3.19      0.00
    6    6   14      1.17      0.00
    6    6   15     -0.40      0.00
    6    6   16     -4.72      0.00
   -6    7   17      1.09      0.00
   -6    7   16     -0.95      0.00
   -6    7   15     -0.45      0.00
   -6    7   14     -0.40      0.00
   -6    7   13     -2.19      0.00
   -6    7   12      4.10      0.00
   -6    7   11     -6.15      0.00
   -6    7   10      6.90      0.00
   -6    7    9     -3.37      0.00
   -6    7    8     -4.72      0.00
   -6    7    7     -7.83      0.00
   -6    7    6      3.87      0.00
   -6    7    5      4.15      0.00
   -6    7    4      8.12      0.00
   -6    7    3     -6.98      0.00
   -6    7    2      8.86      0.00
   -6    7    1     -4.26      0.00
    6    7    0     -3.76      0.00
    6    7    1    -16.17      0.00
    6    7    2     -8.33      0.00
    6    7    3     -4.38      0.00
    6    7    4     14.81      0.00
    6    7    5    -16.38      0.00
    6    7    6      4.61      0.00
    6    7    7     -8.90      0.00
    6    7    8      7.88      0.00
    6    7    9     -2.28      0.00
    6    7   10      0.82      0.00
    6    7   11     -0.76      0.00
    6    7   12      3.06      0.00
    6    7   13     -4.16      0.00
    6    7   14      3.31      0.00
    6    7   15      0.59      0.00
    6    7   16      1.10      0.00
   -6    8   17      3.69      0.00
   -6    8   16      1.46      0.00
   -6    8   15      1.28      0.00
   -6    8   14      0.74      0.00
   -6    8   13      0.05      0.00
   -6    8   12     -1.97      0.00
   -6    8   11      0.73      0.00
   -6    8   10      2.88      0.00
   -6    8    9      5.05      0.00
   -6    8    8     -3.50      0.00
   -6    8    7      0.18      0.00
   -6    8    6      0.60      0.00
   -6    8    5     -0.52      0.00
   -6    8    4      4.09      0.00
   -6    8    3     -8.93      0.00
   -6    8    2      6.33      0.00
   -6    8    1     -2.21      0.00
    6    8    0     -4.20      0.00
    6    8    1      5.90      0.00
    6    8    2      5.46      0.00
    6    8    3      7.97      0.00
    6    8    4      4.30      0.00
    6    8    5     -1.14      0.00
    6    8    6     11.69      0.00
    6    8    7     -5.49      0.00
    6    8    8      7.11      0.00
    6    8    9      4.68      0.00
    6    8   10     -3.66      0.00
    6    8   11      4.99      0.00
    6    8   12      0.20      0.00
    6    8   13     -0.97      0.00
    6    8   14      0.12      0.00
    6    8   15     -1.89      0.00
   -6    9   17     -2.59      0.00
   -6    9   16     -0.69      0.00
   -6    9   15      1.68      0.00
   -6    9   14      1.66      0.00
   -6    9   13      0.27      0.00
   -6    9   12     -2.33      0.00
   -6    9   11      2.57      0.00
   -6    9   10     -7.44      0.00
   -6    9    9      5.69      0.00
   -6    9    8      0.96      0.00
   -6    9    7      2.26      0.00
   -6    9    6     -1.01      0.00
   -6    9    5     -3.98      0.00
   -6    9    4     -1.30      0.00
   -6    9    3      9.54      0.00
   -6    9    2     -4.91      0.00
   -6    9    1     -0.56      0.00
    6    9    0     -4.70      0.00
    6    9    1     10.16      0.00
    6    9    2     -5.46      0.00
    6    9    3      6.53      0.00
    6    9    4    -10.68      0.00
    6    9    5      0.79      0.00
    6    9    6      1.54      0.00
    6    9    7     -9.78      0.00
    6    9    8     -6.61      0.00
    6    9    9      4.09      0.00
    6    9   10     -6.20      0.00
    6    9   11      2.63      0.00
    6    9   12     -2.23      0.00
    6    9   13      1.99      0.00
    6    9   14      1.21      0.00
    6    9   15     -0.82      0.00
   -6   10   16     -1.26      0.00
   -6   10   15     -2.98      0.00
   -6   10   14      1.07      0.00
   -6   10   13     -4.03      0.00
   -6   10   12      3.28      0.00
   -6   10   11     -0.76      0.00
   -6   10   10     -3.69      0.00
   -6   10    9     -4.87      0.00
   -6   10    8      2.50      0.00
   -6   10    7     -6.62      0.00
   -6   10    6      8.36      0.00
   -6   10    5    -10.68      0.00
   -6   10    4     -2.45      0.00
   -6   10    3      8.01      0.00
   -6   10    2     -5.23      0.00
   -6   10    1      1.29      0.00
    6   10    0      7.10      0.00
    6   10    1      6.56      0.00
    6   10    2     -4.49      0.00
    6   10    3      3.16      0.00
    6   10    4     -2.27      0.00
    6   10    5     -6.05      0.00
    6   10    6      5.92      0.00
    6   10    7      3.88      0.00
    6   10    8      4.88      0.00
    6   10    9      3.16      0.00
    6   10   10      2.36      0.00
    6   10   11     -2.39      0.00
    6   10   12     -1.42      0.00
    6   10   13     -2.89      0.00
    6   10   14      0.39      0.00
    6   10   15     -2.86      0.00
   -6   11   15     -1.96      0.00
   -6   11   14      2.82      0.00
   -6   11   13     -1.65      0.00
   -6   11   12      4.01      0.00
   -6   11   11     -0.82      0.00
   -6   11   10      7.88      0.00
   -6   11    9     -5.01      0.00
   -6   11    8      4.98      0.00
   -6   11    7     -5.12      0.00
   -6   11    6     12.92      0.00
   -6   11    5     -1.92      0.00
   -6   11    4      4.72      0.00
   -6   11    3     -4.32      0.00
   -6   11    2     -2.79      0.00
   -6   11    1     -1.01      0.00
    6   11    0     -3.62      0.00
    6   11    1     -8.54      0.00
    6   11    2     -6.65      0.00
    6   11    3     -4.23      0.00
    6   11    4      6.70      0.00
    6   11    5     -2.56      0.00
    6   11    6      3.60      0.00
    6   11    7      0.95      0.00
    6   11    8     -1.95      0.00
    6   11    9     -8.62      0.00
    6   11   10      0.61      0.00
    6   11   11     -1.26      0.00
    6   11   12      6.49      0.00
    6   11   13      0.20      0.00
    6   11   14      4.11      0.00
   -6   12   15     -0.66      0.00
   -6   12   14     -1.58      0.00
   -6   12   13      3.56      0.00
   -6   12   12     -4.79      0.00
   -6   12   11     -3.05      0.00
   -6   12   10      2.25      0.00
   -6   12    9     -0.55      0.00
   -6   12    8      0.23      0.00
   -6   12    7     -1.80      0.00
   -6   12    6     -6.72      0.00
   -6   12    5      3.81      0.00
   -6   12    4     -0.01      0.00
   -6   12    3     -0.66      0.00
   -6   12    2      0.48      0.00
   -6   12    1      0.02      0.00
    6   12    0     -3.52      0.00
    6   12    1      2.61      0.00
    6   12    2      4.07      0.00
    6   12    3     -0.19      0.00
    6   12    4      2.05      0.00
    6   12    5      1.42      0.00
    6   12    6     -7.98      0.00
    6   12    7     -0.52      0.00
    6   12    8     -2.13      0.00
    6   12    9      4.56      0.00
    6   12   10      1.67      0.00
    6   12   11     -0.55      0.00
    6   12   12      0.43      0.00
    6   12   13     -3.98      0.00
   -6   13   14     -4.82      0.00
   -6   13   13      4.47      0.00
   -6   13   12     -2.41      0.00
   -6   13   11      2.70      0.00
   -6   13   10     -2.22      0.00
   -6   13    9      2.30      0.00
   -6   13    8      0.27      0.00
   -6   13    7      7.57      0.00
   -6   13    6     -7.98      0.00
   -6   13    5      3.99      0.00
   -6   13    4     -6.30      0.00
   -6   13    3      6.61      0.00
   -6   13    2      3.73      0.00
   -6   13    1      2.86      0.00
    6   13    0      0.18      0.00
    6   13    1      4.18      0.00
    6   13    2      2.89      0.00
    6   13    3     -1.06      0.00
    6   13    4     -2.59      0.00
    6   13    5      5.62      0.00
    6   13    6     -1.65      0.00
    6   13    7      3.65      0.00
    6   13    8     -0.88      0.00
    6   13    9      3.77      0.00
    6   13   10     -1.08      0.00
    6   13   11     -1.77      0.00
    6   13   12     -0.50      0.00
    6   13   13     -0.47      0.00
   -6   14   13      0.48      0.00
   -6   14   12     -1.94      0.00
   -6   14   11      1.36      0.00
   -6   14   10     -0.44      0.00
   -6   14    9     -0.11      0.00
   -6   14    8     -2.61      0.00
   -6   14    7      0.72      0.00
   -6   14    6      1.07      0.00
   -6   14    5      2.08      0.00
   -6   14    4     -0.90      0.00
   -6   14    3     -0.83      0.00
   -6   14    2     -4.29      0.00
   -6   14    1     -3.85      0.00
    6   14    0     -0.51      0.00
    6   14    1     -2.59      0.00
    6   14    2      0.25      0.00
    6   14    3      0.91      0.00
    6   14    4     -2.85      0.00
    6   14    5     -1.12      0.00
    6   14    6      0.65      0.00
    6   14    7     -1.47      0.00
    6   14    8      0.87      0.00
    6   14    9     -4.45      0.00
    6   14   10     -0.11      0.00
    6   14   11      0.65      0.00
    6   14   12      0.20      0.00
   -6   15   12      0.59      0.00
   -6   15   11      0.49      0.00
   -6   15   10      1.10      0.00
   -6   15    9     -2.24      0.00
   -6   15    8     -0.97      0.00
   -6   15    7     -2.42      0.00
   -6   15    6      2.63      0.00
   -6   15    5     -1.38      0.00
   -6   15    4      0.34      0.00
   -6   15    3     -2.75      0.00
   -6   15    2     -1.08      0.00
   -6   15    1      2.59      0.00
    6   15    0      1.69      0.00
    6   15    1     -2.61      0.00
    6   15    2     -0.39      0.00
    6   15    3      1.93      0.00
    6   15    4     -1.58      0.00
    6   15    5     -2.42      0.00
    6   15    6      2.37      0.00
    6   15    7     -2.77      0.00
    6   15    8      3.51      0.00
    6   15    9     -2.26      0.00
    6   15   10      1.58      0.00
    6   15   11      1.95      0.00
   -6   16   11     -0.74      0.00
   -6   16   10      1.37      0.00
   -6   16    9      0.77      0.00
   -6   16    8      1.93      0.00
   -6   16    7     -0.67      0.00
   -6   16    6     -1.78      0.00
   -6   16    5      0.86      0.00
   -6   16    4     -0.63      0.00
   -6   16    3      0.63      0.00
   -6   16    2      0.52      0.00
   -6   16    1      3.75      0.00
    6   16    0     -0.42      0.00
    6   16    1     -2.28      0.00
    6   16    2     -2.94      0.00
    6   16    3      1.34      0.00
    6   16    4      1.28      0.00
    6   16    5      1.94      0.00
    6   16    6      1.65      0.00
    6   16    7     -1.10      0.00
    6   16    8      0.69      0.00
    6   16    9     -0.38      0.00
    6   16   10     -1.77      0.00
   -6   17   10     -0.68      0.00
   -6   17    9      0.00      0.00
   -6   17    8      1.20      0.00
   -6   17    7      1.61      0.00
   -6   17    6     -1.26      0.00
   -6   17    5      1.44      0.00
   -6   17    4     -1.57      0.00
   -6   17    3      2.09      0.00
   -6   17    2     -0.39      0.00
   -6   17    1     -2.46      0.00
    6   17    0      2.69      0.00
    6   17    1      4.74      0.00
    6   17    2     -0.19      0.00
    6   17    3      1.55      0.00
    6   17    4     -0.70      0.00
    6   17    5      1.04      0.00
    6   17    6     -2.00      0.00
    6   17    7     -0.79      0.00
    6   17    8      0.23      0.00
    6   17    9      2.22      0.00
   -6   18    9     -1.38      0.00
   -6   18    8     -2.37      0.00
   -6   18    7     -0.75      0.00
   -6   18    6     -1.39      0.00
   -6   18    5      0.13      0.00
   -6   18    4     -0.75      0.00
   -6   18    3      2.91      0.00
   -6   18    2      1.46      0.00
   -6   18    1      1.11      0.00
    6   18    0     -1.28      0.00
    6   18    1      2.63      0.00
    6   18    2     -1.84      0.00
    6   18    3     -0.35      0.00
    6   18    4     -1.78      0.00
    6   18    5      0.90      0.00
    6   18    6      0.58      0.00
    6   18    7      0.39      0.00
   -6   19    7      1.92      0.00
   -6   19    6      0.80      0.00
   -6   19    5      1.82      0.00
   -6   19    4     -0.31      0.00
   -6   19    3      0.07      0.00
   -6   19    2     -3.18      0.00
   -6   19    1      2.00      0.00
    6   19    0     -3.53      0.00
    6   19    1      2.25      0.00
    6   19    2     -0.14      0.00
    6   19    3      0.66      0.00
    6   19    4      0.86      0.00
    6   19    5     -0.53      0.00
   -6   20    3      0.87      0.00
   -6   20    2     -2.60      0.00
   -6   20    1     -1.10      0.00
    6   20    0     -3.29      0.00
    6   20    1     -0.66      0.00
    6   20    2     -1.79      0.00
   -7    0   18      1.30      0.00
   -7    0   16      3.48      0.00
   -7    0   14     -5.22      0.00
   -7    0   12     -0.92      0.00
   -7    0   10     12.13      0.00
   -7    0    8     14.06      0.00
   -7    0    6     -0.75      0.00
   -7    0    4     72.88      0.00
   -7    0    2     44.41      0.00
    7    0    0     63.08      0.00
    7    0    2     58.32      0.00
    7    0    4     16.33      0.00
    7    0    8     -0.55      0.00
    7    0   10      6.13      0.00
    7    0   12     -0.20      0.00
    7    0   14      1.26      0.00
   -7    1   18     -2.07      0.00
   -7    1   17     -2.86      0.00
   -7    1   16      0.68      0.00
   -7    1   15      1.23      0.00
   -7    1   14      5.56      0.00
   -7    1   13      3.30      0.00
   -7    1   12     -3.42      0.00
   -7    1   11     -1.80      0.00
   -7    1   10     -7.38      0.00
   -7    1    9     -4.54      0.00
   -7    1    8     -0.45      0.00
   -7    1    7      0.94      0.00
   -7    1    6     -1.03      0.00
   -7    1    5    -10.48      0.00
   -7    1    4    -21.47      0.00
   -7    1    1    -19.35      0.00
    7    1    0    -19.80      0.00
    7    1    1    -15.08      0.00
    7    1    2      5.57      0.00
    7    1    3      6.22      0.00
    7    1    4     20.49      0.00
    7    1    5     16.72      0.00
    7    1    6     -9.57      0.00
    7    1    7     11.00      0.00
    7    1    8      1.56      0.00
    7    1    9      1.48      0.00
    7    1   10     -0.92      0.00
    7    1   11      1.69      0.00
    7    1   12     -0.38      0.00
    7    1   13      0.99      0.00
    7    1   14     -2.00      0.00
    7    1   15     -2.33      0.00
    7    1   16      4.16      0.00
   -7    2   18      1.16      0.00
   -7    2   17      1.12      0.00
   -7    2   16     -0.79      0.00
   -7    2   15     -3.60      0.00
   -7    2   14      1.29      0.00
   -7    2   13      0.14      0.00
   -7    2   12     -2.14      0.00
   -7    2   11      0.23      0.00
   -7    2   10     -5.65      0.00
   -7    2    9     -1.14      0.00
   -7    2    8    -11.98      0.00
   -7    2    7      0.34      0.00
   -7    2    6      3.90      0.00
   -7    2    5      5.54      0.00
   -7    2    4    -32.17      0.00
   -7    2    3    -14.60      0.00
   -7    2    1    -25.58      0.00
    7    2    1      3.82      0.00
    7    2    2    -51.90      0.00
    7    2    3    -16.80      0.00
    7    2    4    -38.67      0.00
    7    2    5     -7.01      0.00
    7    2    6     -5.45      0.00
    7    2    7      2.54      0.00
    7    2    8     -7.31      0.00
    7    2    9     -1.10      0.00
    7    2   10     -8.77      0.00
    7    2   11     -1.04      0.00
    7    2   12     -5.07      0.00
    7    2   13      2.80      0.00
    7    2   14     -0.29      0.00
    7    2   15      0.08      0.00
    7    2   16      0.90      0.00
    7    2   17     -0.87      0.00
   -7    3   18      0.41      0.00
   -7    3   17      1.73      0.00
   -7    3   16      2.82      0.00
   -7    3   15     -2.77      0.00
   -7    3   14     -2.28      0.00
   -7    3   13     -2.03      0.00
   -7    3   12     -1.51      0.00
   -7    3   11      4.96      0.00
   -7    3   10      6.25      0.00
   -7    3    9      3.31      0.00
   -7    3    8      5.96      0.00
   -7    3    7      1.75      0.00
   -7    3    6     -1.93      0.00
   -7    3    5     -4.83      0.00
   -7    3    4     28.70      0.00
   -7    3    3     -4.81      0.00
   -7    3    2      1.68      0.00
    7    3    2      6.73      0.00
    7    3    3     13.28      0.00
    7    3    4     -7.91      0.00
    7    3    5      0.15      0.00
    7    3    6      3.58      0.00
    7    3    7     -4.06      0.00
    7    3    8     -5.84      0.00
    7    3    9      4.38      0.00
    7    3   10      3.84      0.00
    7    3   11      7.00      0.00
    7    3   12     -2.10      0.00
    7    3   13      3.92      0.00
    7    3   14     -0.80      0.00
    7    3   15     -0.33      0.00
    7    3   16     -1.76      0.00
   -7    4   18      0.00      0.00
   -7    4   17     -1.22      0.00
   -7    4   16      0.86      0.00
   -7    4   15      2.06      0.00
   -7    4   14      2.84      0.00
   -7    4   13      3.32      0.00
   -7    4   12     -0.12      0.00
   -7    4   11      5.99      0.00
   -7    4   10      0.21      0.00
   -7    4    9     -5.20      0.00
   -7    4    8      6.97      0.00
   -7    4    7     -7.33      0.00
   -7    4    6     -0.53      0.00
   -7    4    5     -8.38      0.00
   -7    4    4     35.19      0.00
   -7    4    3    -12.82      0.00
   -7    4    2     17.87      0.00
   -7    4    1     -6.12      0.00
    7    4    0     16.24      0.00
    7    4    1     -4.34      0.00
    7    4    2     15.40      0.00
    7    4    3     12.37      0.00
    7    4    4     21.59      0.00
    7    4    5     15.98      0.00
    7    4    6      3.13      0.00
    7    4    7      9.37      0.00
    7    4    8      3.31      0.00
    7    4    9      2.46      0.00
    7    4   10     -3.11      0.00
    7    4   11      1.60      0.00
    7    4   12     -3.15      0.00
    7    4   13      0.85      0.00
    7    4   14     -1.74      0.00
    7    4   15      1.00      0.00
    7    4   16      1.11      0.00
   -7    5   18      1.80      0.00
   -7    5   17     -1.67      0.00
   -7    5   16     -3.79      0.00
   -7    5   15      0.12      0.00
   -7    5   14      0.43      0.00
   -7    5   13     -1.84      0.00
   -7    5   12     -2.97      0.00
   -7    5   11     -3.80      0.00
   -7    5   10     -4.72      0.00
   -7    5    9      0.15      0.00
   -7    5    8      4.90      0.00
   -7    5    7     -3.82      0.00
   -7    5    6     10.70      0.00
   -7    5    5     -2.38      0.00
   -7    5    4     -9.78      0.00
   -7    5    3     -4.46      0.00
   -7    5    2     10.08      0.00
   -7    5    1      5.18      0.00
    7    5    0      0.88      0.00
    7    5    2     -7.75      0.00
    7    5    3     -3.37      0.00
    7    5    4     -4.95      0.00
    7    5    5     -5.16      0.00
    7    5    6    -18.60      0.00
    7    5    7      3.76      0.00
    7    5    8     -2.90      0.00
    7    5    9      2.36      0.00
    7    5   10     -5.30      0.00
    7    5   11      0.59      0.00
    7    5   12      1.49      0.00
    7    5   13     -1.54      0.00
    7    5   14     -0.88      0.00
    7    5   15      2.68      0.00
    7    5   16     -0.92      0.00
   -7    6   18      0.66      0.00
   -7    6   17     -0.60      0.00
   -7    6   16     -0.97      0.00
   -7    6   15     -1.93      0.00
   -7    6   14      0.49      0.00
   -7    6   13     -2.72      0.00
   -7    6   12      4.68      0.00
   -7    6   11     -6.66      0.00
   -7    6   10      3.68      0.00
   -7    6    9      0.66      0.00
   -7    6    8     -1.62      0.00
   -7    6    7     -2.43      0.00
   -7    6    6     10.81      0.00
   -7    6    5     -8.28      0.00
   -7    6    4    -14.07      0.00
   -7    6    3      3.23      0.00
   -7    6    2     -8.19      0.00
   -7    6    1      7.46      0.00
    7    6    0      0.88      0.00
    7    6    1      8.03      0.00
    7    6    2      5.16      0.00
    7    6    3     -6.00      0.00
    7    6    4     -5.70      0.00
    7    6    5     -6.21      0.00
    7    6    6      1.88      0.00
    7    6    7      3.01      0.00
    7    6    8     -6.79      0.00
    7    6    9      4.11      0.00
    7    6   10     -0.49      0.00
    7    6   11     -1.45      0.00
    7    6   12      4.34      0.00
    7    6   13     -1.45      0.00
    7    6   14     -0.51      0.00
    7    6   15      1.62      0.00
    7    6   16     -2.67      0.00
   -7    7   17      3.24      0.00
   -7    7   16      4.04      0.00
   -7    7   15     -0.94      0.00
   -7    7   14      1.18      0.00
   -7    7   13     -3.09      0.00
   -7    7   12      5.17      0.00
   -7    7   11     -2.40      0.00
   -7    7   10      7.32      0.00
   -7    7    9     -4.68      0.00
   -7    7    8     -7.06      0.00
   -7    7    7     -0.68      0.00
   -7    7    6      1.80      0.00
   -7    7    5     -8.59      0.00
   -7    7    4     14.83      0.00
   -7    7    3     -2.21      0.00
   -7    7    2     -8.19      0.00
   -7    7    1     -5.55      0.00
    7    7    0      1.37      0.00
    7    7    2      2.57      0.00
    7    7    3    -18.85      0.00
    7    7    4     10.94      0.00
    7    7    5     -2.72      0.00
    7    7    6     15.74      0.00
    7    7    7     -0.94      0.00
    7    7    8     -5.89      0.00
    7    7    9      1.18      0.00
    7    7   10      0.26      0.00
    7    7   11     -4.00      0.00
    7    7   12     -0.72      0.00
    7    7   13      0.57      0.00
    7    7   14     -0.79      0.00
    7    7   15     -0.33      0.00
    7    7   16     -1.65      0.00
   -7    8   17     -0.65      0.00
   -7    8   16      1.33      0.00
   -7    8   15      0.59      0.00
   -7    8   14      3.70      0.00
   -7    8   13      0.95      0.00
   -7    8   12      0.10      0.00
   -7    8   11      4.17      0.00
   -7    8   10     -0.45      0.00
   -7    8    9      4.01      0.00
   -7    8    8     -0.92      0.00
   -7    8    7      7.63      0.00
   -7    8    6     -6.45      0.00
   -7    8    5     -1.92      0.00
   -7    8    4     14.12      0.00
   -7    8    3     -3.74      0.00
   -7    8    2      0.78      0.00
   -7    8    1     -3.43      0.00
    7    8    0     -8.46      0.00
    7    8    1     -8.98      0.00
    7    8    2      4.67      0.00
    7    8    3      0.52      0.00
    7    8    4     14.34      0.00
    7    8    5     -8.19      0.00
    7    8    6     -3.95      0.00
    7    8    7     -3.67      0.00
    7    8    8      0.98      0.00
    7    8    9      3.93      0.00
    7    8   10      3.03      0.00
    7    8   11      4.64      0.00
    7    8   12     -3.23      0.00
    7    8   13      1.88      0.00
    7    8   14     -1.00      0.00
    7    8   15      1.59      0.00
   -7    9   16     -1.95      0.00
   -7    9   15     -4.79      0.00
   -7    9   14     -0.17      0.00
   -7    9   13     -0.77      0.00
   -7    9   12     -6.05      0.00
   -7    9   11     -0.16      0.00
   -7    9   10     -9.32      0.00
   -7    9    9      5.71      0.00
   -7    9    8     -2.62      0.00
   -7    9    7      0.99      0.00
   -7    9    6     -3.16      0.00
   -7    9    5     -2.20      0.00
   -7    9    4     -4.94      0.00
   -7    9    3      0.44      0.00
   -7    9    2      3.51      0.00
   -7    9    1     15.28      0.00
    7    9    0      4.74      0.00
    7    9    2      4.58      0.00
    7    9    3      8.41      0.00
    7    9    4      0.15      0.00
    7    9    5     -0.55      0.00
    7    9    6     -2.32      0.00
    7    9    7      4.92      0.00
    7    9    8      4.52      0.00
    7    9    9     -3.61      0.00
    7    9   10     -5.80      0.00
    7    9   11      1.29      0.00
    7    9   12     -2.37      0.00
    7    9   13      2.46      0.00
    7    9   14     -0.67      0.00
    7    9   15     -0.06      0.00
   -7   10   16      4.41      0.00
   -7   10   15     -2.82      0.00
   -7   10   14      2.96      0.00
   -7   10   13      0.37      0.00
   -7   10   12      3.39      0.00
   -7   10   11      1.33      0.00
   -7   10   10      1.26      0.00
   -7   10    9      1.51      0.00
   -7   10    8      1.04      0.00
   -7   10    7     -3.66      0.00
   -7   10    6     12.59      0.00
   -7   10    5      2.07      0.00
   -7   10    4     -0.74      0.00
   -7   10    3     -0.35      0.00
   -7   10    2     -4.90      0.00
   -7   10    1      7.18      0.00
    7   10    0      1.60      0.00
    7   10    1      0.38      0.00
    7   10    2     -3.22      0.00
    7   10    3     -6.75      0.00
    7   10    4     -4.49      0.00
    7   10    5      0.46      0.00
    7   10    6      3.69      0.00
    7   10    7     -3.65      0.00
    7   10    8      2.83      0.00
    7   10    9     -7.06      0.00
    7   10   10      2.81      0.00
    7   10   11      0.72      0.00
    7   10   12      2.15      0.00
    7   10   13     -1.53      0.00
    7   10   14     -0.55      0.00
   -7   11   15     -2.22      0.00
   -7   11   14      3.67      0.00
   -7   11   13     -3.07      0.00
   -7   11   12     -0.25      0.00
   -7   11   11     -2.74      0.00
   -7   11   10      2.30      0.00
   -7   11    9     -4.84      0.00
   -7   11    8      3.06      0.00
   -7   11    7     -8.35      0.00
   -7   11    6     -1.98      0.00
   -7   11    5     -1.38      0.00
   -7   11    4      2.13      0.00
   -7   11    3      2.61      0.00
   -7   11    2     -2.70      0.00
   -7   11    1     -9.35      0.00
    7   11    0     -0.09      0.00
    7   11    2     -0.03      0.00
    7   11    3     -7.10      0.00
    7   11    4      2.33      0.00
    7   11    5     -2.52      0.00
    7   11    6      4.86      0.00
    7   11    7     -6.17      0.00
    7   11    8      7.88      0.00
    7   11    9     -0.16      0.00
    7   11   10      7.59      0.00
    7   11   11     -2.99      0.00
    7   11   12      0.24      0.00
    7   11   13     -1.84      0.00
    7   11   14      1.75      0.00
   -7   12   15     -1.59      0.00
   -7   12   14     -0.30      0.00
   -7   12   13      0.19      0.00
   -7   12   12     -1.11      0.00
   -7   12   11      5.01      0.00
   -7   12   10     -1.44      0.00
   -7   12    9     -3.49      0.00
   -7   12    8      3.17      0.00
   -7   12    7      5.63      0.00
   -7   12    6     -5.57      0.00
   -7   12    5      4.89      0.00
   -7   12    4    -12.39      0.00
   -7   12    3      3.70      0.00
   -7   12    2      2.62      0.00
   -7   12    1     -3.33      0.00
    7   12    0      0.62      0.00
    7   12    1     -2.46      0.00
    7   12    2      2.71      0.00
    7   12    3      3.73      0.00
    7   12    4      2.98      0.00
    7   12    5     -0.89      0.00
    7   12    6      1.62      0.00
    7   12    7     -4.85      0.00
    7   12    8     -2.96      0.00
    7   12    9     -3.63      0.00
    7   12   10     -2.66      0.00
    7   12   11     -2.36      0.00
    7   12   12      1.20      0.00
    7   12   13      1.65      0.00
   -7   13   14     -0.65      0.00
   -7   13   13      1.30      0.00
   -7   13   12     -3.47      0.00
   -7   13   11      1.80      0.00
   -7   13   10     -1.44      0.00
   -7   13    9      3.97      0.00
   -7   13    8     -1.02      0.00
   -7   13    7      3.46      0.00
   -7   13    6     -3.32      0.00
   -7   13    5     11.03      0.00
   -7   13    4     -6.73      0.00
   -7   13    3      7.30      0.00
   -7   13    2      0.66      0.00
   -7   13    1      2.21      0.00
    7   13    0      0.39      0.00
    7   13    1      0.23      0.00
    7   13    2      0.34      0.00
    7   13    3      5.41      0.00
    7   13    4     -1.35      0.00
    7   13    5     -1.54      0.00
    7   13    6     -0.86      0.00
    7   13    7      2.74      0.00
    7   13    8     -0.70      0.00
    7   13    9      3.42      0.00
    7   13   10      0.39      0.00
    7   13   11      1.59      0.00
    7   13   12      1.61      0.00
   -7   14   13      0.32      0.00
   -7   14   12      1.91      0.00
   -7   14   11     -1.87      0.00
   -7   14   10     -0.20      0.00
   -7   14    9      0.43      0.00
   -7   14    8     -1.58      0.00
   -7   14    7     -2.85      0.00
   -7   14    6      0.20      0.00
   -7   14    5      1.13      0.00
   -7   14    4      0.19      0.00
   -7   14    3      0.77      0.00
   -7   14    2     -3.45      0.00
   -7   14    1      2.27      0.00
    7   14    0      1.94      0.00
    7   14    1      3.23      0.00
    7   14    2     -3.25      0.00
    7   14    3     -2.46      0.00
    7   14    4     -2.40      0.00
    7   14    5     -0.36      0.00
    7   14    6      0.51      0.00
    7   14    7      3.71      0.00
    7   14    8      1.49      0.00
    7   14    9      0.72      0.00
    7   14   10     -1.10      0.00
    7   14   11     -1.78      0.00
    7   14   12      1.10      0.00
   -7   15   12      3.16      0.00
   -7   15   11     -0.94      0.00
   -7   15   10      2.46      0.00
   -7   15    9     -1.11      0.00
   -7   15    8      1.96      0.00
   -7   15    7     -2.64      0.00
   -7   15    6      0.19      0.00
   -7   15    5     -4.01      0.00
   -7   15    4      0.64      0.00
   -7   15    3     -2.25      0.00
   -7   15    2     -3.78      0.00
   -7   15    1     -0.95      0.00
    7   15    0     -1.08      0.00
    7   15    1      1.03      0.00
    7   15    2     -1.04      0.00
    7   15    3     -1.71      0.00
    7   15    4      2.43      0.00
    7   15    5      1.79      0.00
    7   15    6      0.03      0.00
    7   15    7     -3.77      0.00
    7   15    8     -1.08      0.00
    7   15    9     -2.17      0.00
    7   15   10      0.05      0.00
    7   15   11     -1.17      0.00
   -7   16   11     -2.37      0.00
   -7   16   10     -0.39      0.00
   -7   16    9     -1.18      0.00
   -7   16    8      1.60      0.00
   -7   16    7      1.86      0.00
   -7   16    6      1.25      0.00
   -7   16    5     -0.53      0.00
   -7   16    4     -1.22      0.00
   -7   16    3      1.34      0.00
   -7   16    2      2.28      0.00
   -7   16    1     -2.49      0.00
    7   16    0     -2.58      0.00
    7   16    1     -0.43      0.00
    7   16    2      1.53      0.00
    7   16    3      0.42      0.00
    7   16    4     -1.10      0.00
    7   16    5     -1.06      0.00
    7   16    6      0.94      0.00
    7   16    7     -2.21      0.00
    7   16    8      0.17      0.00
    7   16    9      0.44      0.00
    7   16   10      2.76      0.00
   -7   17   10      0.26      0.00
   -7   17    9      0.27      0.00
   -7   17    8     -1.36      0.00
   -7   17    7     -0.75      0.00
   -7   17    6      0.40      0.00
   -7   17    5      2.56      0.00
   -7   17    4     -0.14      0.00
   -7   17    3      1.25      0.00
   -7   17    2      2.34      0.00
   -7   17    1      1.92      0.00
    7   17    0     -2.72      0.00
    7   17    1     -0.26      0.00
    7   17    2      0.05      0.00
    7   17    3      4.04      0.00
    7   17    4     -0.92      0.00
    7   17    5     -0.19      0.00
    7   17    6      1.76      0.00
    7   17    7      0.95      0.00
    7   17    8      0.07      0.00
   -7   18    8     -1.34      0.00
   -7   18    7     -1.91      0.00
   -7   18    6     -2.72      0.00
   -7   18    5     -0.35      0.00
   -7   18    4     -0.67      0.00
   -7   18    3     -0.33      0.00
   -7   18    2     -3.76      0.00
   -7   18    1      1.13      0.00
    7   18    0      0.74      0.00
    7   18    1      2.94      0.00
    7   18    2     -2.76      0.00
    7   18    3      0.64      0.00
    7   18    4     -1.66      0.00
    7   18    5     -1.06      0.00
    7   18    6      0.82      0.00
    7   18    7      1.10      0.00
   -7   19    6      0.77      0.00
   -7   19    5      0.54      0.00
   -7   19    4      1.87      0.00
   -7   19    3      1.76      0.00
   -7   19    2     -1.19      0.00
   -7   19    1      1.46      0.00
    7   19    0      0.21      0.00
    7   19    1      1.32      0.00
    7   19    2     -1.98      0.00
    7   19    3      0.05      0.00
    7   19    4      2.00      0.00
   -7   20    2      0.03      0.00
   -7   20    1     -1.36      0.00
    7   20    0     -1.55      0.00
   -8    0   18     -0.66      0.00
   -8    0   16     -1.78      0.00
   -8    0   14      6.95      0.00
   -8    0   12     -2.46      0.00
   -8    0   10      9.76      0.00
   -8    0    8     15.60      0.00
   -8    0    6     24.71      0.00
   -8    0    4     20.07      0.00
    8    0    0     31.53      0.00
    8    0    2     51.63      0.00
    8    0    4     20.44      0.00
    8    0    6      1.64      0.00
    8    0    8     -0.11      0.00
    8    0   10      7.80      0.00
    8    0   12      0.20      0.00
    8    0   14      1.53      0.00
   -8    1   18     -0.77      0.00
   -8    1   17      1.24      0.00
   -8    1   16     -5.95      0.00
   -8    1   15     -1.83      0.00
   -8    1   14      5.14      0.00
   -8    1   13     -2.28      0.00
   -8    1   12      6.49      0.00
   -8    1   11      0.51      0.00
   -8    1   10    -11.38      0.00
   -8    1    9     -1.93      0.00
   -8    1    8     -5.61      0.00
   -8    1    7    -12.36      0.00
   -8    1    6     -5.69      0.00
   -8    1    5     -9.82      0.00
   -8    1    4    -15.23      0.00
   -8    1    3    -11.16      0.00
   -8    1    2     -2.11      0.00
   -8    1    1    -22.67      0.00
    8    1    0    -35.96      0.00
    8    1    1    -13.20      0.00
    8    1    2     12.78      0.00
    8    1    3     -3.24      0.00
    8    1    4      3.64      0.00
    8    1    5      2.76      0.00
    8    1    6     -5.58      0.00
    8    1    7      1.34      0.00
    8    1    8     -8.44      0.00
    8    1    9      0.33      0.00
    8    1   10      1.89      0.00
    8    1   11     -0.31      0.00
    8    1   12      0.61      0.00
    8    1   13     -1.07      0.00
    8    1   14      3.26      0.00
    8    1   15     -1.87      0.00
    8    1   16     -0.82      0.00
   -8    2   18     -1.53      0.00
   -8    2   17      1.60      0.00
   -8    2   16      1.58      0.00
   -8    2   15      2.26      0.00
   -8    2   14     -2.29      0.00
   -8    2   13     -6.65      0.00
   -8    2   12      3.73      0.00
   -8    2   11     -6.06      0.00
   -8    2   10    -11.56      0.00
   -8    2    9      3.63      0.00
   -8    2    8     -6.22      0.00
   -8    2    7     10.61      0.00
   -8    2    6      1.06      0.00
   -8    2    5      2.35      0.00
   -8    2    4     -2.30      0.00
   -8    2    3      2.84      0.00
   -8    2    1    -14.92      0.00
    8    2    0      1.01      0.00
    8    2    1     11.70      0.00
    8    2    2    -40.45      0.00
    8    2    3     -8.70      0.00
    8    2    4    -21.49      0.00
    8    2    5     -5.03      0.00
    8    2    6     -3.29      0.00
    8    2    7      7.61      0.00
    8    2    8      1.24      0.00
    8    2    9      1.49      0.00
    8    2   10     -6.42      0.00
    8    2   11     -3.08      0.00
    8    2   12      0.36      0.00
    8    2   13     -1.50      0.00
    8    2   14      0.61      0.00
    8    2   15     -0.99      0.00
    8    2   16     -2.22      0.00
   -8    3   18      1.17      0.00
   -8    3   17      0.01      0.00
   -8    3   16      2.22      0.00
   -8    3   15      0.91      0.00
   -8    3   14     -1.28      0.00
   -8    3   13      0.89      0.00
   -8    3   12      3.84      0.00
   -8    3   11      0.24      0.00
   -8    3   10     13.00      0.00
   -8    3    9      7.14      0.00
   -8    3    8     -5.46      0.00
   -8    3    7     -0.50      0.00
   -8    3    6     -3.37      0.00
   -8    3    5     -9.92      0.00
   -8    3    4     13.17      0.00
   -8    3    3    -14.43      0.00
   -8    3    2     13.74      0.00
   -8    3    1      2.17      0.00
    8    3    0     10.87      0.00
    8    3    2    -14.54      0.00
    8    3    3     13.20      0.00
    8    3    4      1.73      0.00
    8    3    5     -0.67      0.00
    8    3    6     -6.56      0.00
    8    3    7     -3.66      0.00
    8    3    8     -0.99      0.00
    8    3    9     -2.24      0.00
    8    3   10      0.70      0.00
    8    3   11      0.59      0.00
    8    3   12      1.61      0.00
    8    3   13      1.69      0.00
    8    3   14     -2.93      0.00
    8    3   15      4.53      0.00
    8    3   16      2.11      0.00
   -8    4   18      1.53      0.00
   -8    4   17      0.15      0.00
   -8    4   16     -2.12      0.00
   -8    4   15     -1.34      0.00
   -8    4   14      0.55      0.00
   -8    4   13      3.36      0.00
   -8    4   12     -2.21      0.00
   -8    4   11     -2.35      0.00
   -8    4   10      7.01      0.00
   -8    4    9     -1.36      0.00
   -8    4    8      1.71      0.00
   -8    4    7     -3.27      0.00
   -8    4    6      6.58      0.00
   -8    4    5      3.30      0.00
   -8    4    4     20.18      0.00
   -8    4    3     -8.74      0.00
   -8    4    2     26.35      0.00
   -8    4    1      2.21      0.00
    8    4    0    -20.72      0.00
    8    4    1     -3.76      0.00
    8    4    2     11.85      0.00
    8    4    3     13.82      0.00
    8    4    4      9.67      0.00
    8    4    5     23.02      0.00
    8    4    6      2.40      0.00
    8    4    7      8.92      0.00
    8    4    8     -1.05      0.00
    8    4    9      1.08      0.00
    8    4   10      6.06      0.00
    8    4   11      0.92      0.00
    8    4   12     -1.43      0.00
    8    4   13      4.24      0.00
    8    4   14     -3.22      0.00
    8    4   15      0.99      0.00
    8    4   16     -0.97      0.00
   -8    5   18     -1.04      0.00
   -8    5   17     -0.95      0.00
   -8    5   16     -0.49      0.00
   -8    5   15      1.56      0.00
   -8    5   14     -1.56      0.00
   -8    5   13     -0.37      0.00
   -8    5   12     -1.48      0.00
   -8    5   11     -3.36      0.00
   -8    5   10     -4.36      0.00
   -8    5    9     -4.79      0.00
   -8    5    8      6.56      0.00
   -8    5    7      7.00      0.00
   -8    5    6      1.26      0.00
   -8    5    5     -0.26      0.00
   -8    5    4    -11.25      0.00
   -8    5    3      3.15      0.00
   -8    5    2     -7.04      0.00
   -8    5    1     12.82      0.00
    8    5    0     -5.92      0.00
    8    5    1      8.14      0.00
    8    5    2      6.37      0.00
    8    5    3     -5.86      0.00
    8    5    4    -25.24      0.00
    8    5    5      4.22      0.00
    8    5    6    -18.11      0.00
    8    5    7      6.14      0.00
    8    5    8     -6.88      0.00
    8    5    9      2.38      0.00
    8    5   10      0.23      0.00
    8    5   11     -2.62      0.00
    8    5   12     -2.12      0.00
    8    5   13     -0.66      0.00
    8    5   14     -0.11      0.00
    8    5   15     -1.79      0.00
    8    5   16     -0.54      0.00
   -8    6   17     -1.50      0.00
   -8    6   16      1.18      0.00
   -8    6   15     -0.39      0.00
   -8    6   14     -2.03      0.00
   -8    6   13     -0.78      0.00
   -8    6   12      3.95      0.00
   -8    6   11     -2.36      0.00
   -8    6   10      0.10      0.00
   -8    6    9     -7.45      0.00
   -8    6    8     -3.28      0.00
   -8    6    7     -1.72      0.00
   -8    6    6     -9.21      0.00
   -8    6    5     -2.99      0.00
   -8    6    4     -9.54      0.00
   -8    6    3      5.33      0.00
   -8    6    2    -27.95      0.00
   -8    6    1      0.70      0.00
    8    6    0      4.22      0.00
    8    6    1     -1.34      0.00
    8    6    2     -7.56      0.00
    8    6    3      3.34      0.00
    8    6    4     -6.12      0.00
    8    6    5      4.65      0.00
    8    6    6     -7.66      0.00
    8    6    7      5.57      0.00
    8    6    8     -4.00      0.00
    8    6    9      0.64      0.00
    8    6   10     -2.81      0.00
    8    6   11     -1.25      0.00
    8    6   12      2.76      0.00
    8    6   13     -3.71      0.00
    8    6   14      3.93      0.00
    8    6   15     -0.14      0.00
   -8    7   17     -0.45      0.00
   -8    7   16      2.10      0.00
   -8    7   15     -1.06      0.00
   -8    7   14      2.13      0.00
   -8    7   13      0.36      0.00
   -8    7   12      2.09      0.00
   -8    7   11      1.17      0.00
   -8    7   10      7.80      0.00
   -8    7    9      0.25      0.00
   -8    7    8      1.64      0.00
   -8    7    7     -0.16      0.00
   -8    7    6      0.62      0.00
   -8    7    5      7.53      0.00
   -8    7    4      9.21      0.00
   -8    7    3      3.74      0.00
   -8    7    2      4.18      0.00
   -8    7    1     -0.28      0.00
    8    7    0      9.60      0.00
    8    7    1     -4.44      0.00
    8    7    2     -4.33      0.00
    8    7    3      6.17      0.00
    8    7    4      5.52      0.00
    8    7    5      1.22      0.00
    8    7    6      3.53      0.00
    8    7    7      2.74      0.00
    8    7    8      3.01      0.00
    8    7    9      0.70      0.00
    8    7   10     -3.09      0.00
    8    7   11      1.58      0.00
    8    7   12      1.82      0.00
    8    7   13     -2.00      0.00
    8    7   14      0.18      0.00
    8    7   15      0.57      0.00
   -8    8   17     -0.10      0.00
   -8    8   16      1.42      0.00
   -8    8   15     -2.22      0.00
   -8    8   14      1.36      0.00
   -8    8   13      0.27      0.00
   -8    8   12     -5.12      0.00
   -8    8   11      2.07      0.00
   -8    8   10     -2.58      0.00
   -8    8    9      6.54      0.00
   -8    8    8     -0.95      0.00
   -8    8    7     -1.15      0.00
   -8    8    6     -2.30      0.00
   -8    8    5      0.64      0.00
   -8    8    4     -7.48      0.00
   -8    8    3     -5.79      0.00
   -8    8    2     10.63      0.00
   -8    8    1      4.90      0.00
    8    8    0     -6.94      0.00
    8    8    1     -1.08      0.00
    8    8    2     -4.64      0.00
    8    8    3     -0.85      0.00
    8    8    4     -7.15      0.00
    8    8    5      5.25      0.00
    8    8    6     -0.05      0.00
    8    8    7     -4.72      0.00
    8    8    8     -1.06      0.00
    8    8    9      3.65      0.00
    8    8   10     -3.63      0.00
    8    8   11      4.86      0.00
    8    8   12     -1.82      0.00
    8    8   13      3.98      0.00
    8    8   14     -3.57      0.00
    8    8   15      0.66      0.00
   -8    9   16      1.49      0.00
   -8    9   15      0.05      0.00
   -8    9   14     -0.60      0.00
   -8    9   13      1.32      0.00
   -8    9   12     -2.40      0.00
   -8    9   11      2.98      0.00
   -8    9   10     -9.91      0.00
   -8    9    9      6.14      0.00
   -8    9    8     -4.66      0.00
   -8    9    7      2.04      0.00
   -8    9    6      5.70      0.00
   -8    9    5      2.36      0.00
   -8    9    4     -2.85      0.00
   -8    9    3      8.73      0.00
   -8    9    2     -7.19      0.00
   -8    9    1      3.45      0.00
    8    9    0     -2.89      0.00
    8    9    2      2.01      0.00
    8    9    3      9.99      0.00
    8    9    4     -5.43      0.00
    8    9    5      7.31      0.00
    8    9    6     -2.90      0.00
    8    9    7     -4.49      0.00
    8    9    8     -3.49      0.00
    8    9    9      4.92      0.00
    8    9   10     -1.85      0.00
    8    9   11      3.52      0.00
    8    9   12     -5.22      0.00
    8    9   13      3.41      0.00
    8    9   14     -3.20      0.00
   -8   10   16     -0.15      0.00
   -8   10   15     -0.20      0.00
   -8   10   14     -0.84      0.00
   -8   10   13      0.14      0.00
   -8   10   12      3.13      0.00
   -8   10   11      1.09      0.00
   -8   10   10     -1.14      0.00
   -8   10    9      1.23      0.00
   -8   10    8      0.74      0.00
   -8   10    7     -3.66      0.00
   -8   10    6      2.81      0.00
   -8   10    5    -11.32      0.00
   -8   10    4      0.58      0.00
   -8   10    3      9.85      0.00
   -8   10    2    -13.01      0.00
   -8   10    1     -0.09      0.00
    8   10    0      7.02      0.00
    8   10    1      2.20      0.00
    8   10    3      4.94      0.00
    8   10    4     -2.44      0.00
    8   10    5     -6.48      0.00
    8   10    6      3.34      0.00
    8   10    7      4.19      0.00
    8   10    8      4.71      0.00
    8   10    9     -1.13      0.00
    8   10   10     -0.39      0.00
    8   10   11     -3.07      0.00
    8   10   12     -1.40      0.00
    8   10   13      2.16      0.00
    8   10   14     -0.12      0.00
   -8   11   15      0.93      0.00
   -8   11   14      0.48      0.00
   -8   11   13     -1.26      0.00
   -8   11   12     -1.67      0.00
   -8   11   11     -1.50      0.00
   -8   11   10      2.26      0.00
   -8   11    9     -8.17      0.00
   -8   11    8      2.73      0.00
   -8   11    7     -3.93      0.00
   -8   11    6      6.52      0.00
   -8   11    5     -1.55      0.00
   -8   11    4      1.74      0.00
   -8   11    3      0.57      0.00
   -8   11    2     -3.16      0.00
   -8   11    1      0.95      0.00
    8   11    0     -0.67      0.00
    8   11    1     -9.01      0.00
    8   11    2     -7.66      0.00
    8   11    3     -7.15      0.00
    8   11    4      2.90      0.00
    8   11    5     -5.66      0.00
    8   11    6      3.45      0.00
    8   11    7      0.14      0.00
    8   11    8     -0.51      0.00
    8   11    9     -6.26      0.00
    8   11   10      3.23      0.00
    8   11   11     -0.56      0.00
    8   11   12      3.77      0.00
    8   11   13     -0.26      0.00
   -8   12   15     -1.06      0.00
   -8   12   14     -2.28      0.00
   -8   12   13      4.64      0.00
   -8   12   12     -3.56      0.00
   -8   12   11      3.69      0.00
   -8   12   10      2.53      0.00
   -8   12    9      0.11      0.00
   -8   12    8      3.78      0.00
   -8   12    7     -1.68      0.00
   -8   12    6     -3.61      0.00
   -8   12    5      6.89      0.00
   -8   12    4     -4.54      0.00
   -8   12    3     -0.68      0.00
   -8   12    2     -1.31      0.00
   -8   12    1      3.36      0.00
    8   12    0     -3.63      0.00
    8   12    1      3.81      0.00
    8   12    2      3.49      0.00
    8   12    3     -3.04      0.00
    8   12    4      5.59      0.00
    8   12    5      1.28      0.00
    8   12    6     -2.12      0.00
    8   12    7     -0.76      0.00
    8   12    8     -0.82      0.00
    8   12    9      2.86      0.00
    8   12   10      2.70      0.00
    8   12   11     -1.99      0.00
    8   12   12     -0.60      0.00
    8   12   13     -2.00      0.00
   -8   13   14     -2.30      0.00
   -8   13   13      3.95      0.00
   -8   13   12     -4.23      0.00
   -8   13   11      1.14      0.00
   -8   13   10     -2.69      0.00
   -8   13    9      1.99      0.00
   -8   13    8      0.45      0.00
   -8   13    7      3.57      0.00
   -8   13    6     -4.95      0.00
   -8   13    5      4.77      0.00
   -8   13    4     -4.56      0.00
   -8   13    3      6.67      0.00
   -8   13    2      1.81      0.00
   -8   13    1      4.46      0.00
    8   13    0     -1.02      0.00
    8   13    1      3.14      0.00
    8   13    2      4.92      0.00
    8   13    3     -2.25      0.00
    8   13    4      2.39      0.00
    8   13    5      2.91      0.00
    8   13    6     -0.38      0.00
    8   13    7     -0.35      0.00
    8   13    8     -2.94      0.00
    8   13    9     -1.23      0.00
    8   13   10     -0.96      0.00
    8   13   11     -0.81      0.00
    8   13   12      1.47      0.00
   -8   14   13     -0.50      0.00
   -8   14   12      0.48      0.00
   -8   14   11      0.48      0.00
   -8   14   10      0.61      0.00
   -8   14    9     -0.46      0.00
   -8   14    8     -0.33      0.00
   -8   14    7      1.76      0.00
   -8   14    6      0.34      0.00
   -8   14    5     -1.66      0.00
   -8   14    4      1.27      0.00
   -8   14    3      0.32      0.00
   -8   14    2     -1.97      0.00
   -8   14    1     -5.57      0.00
    8   14    0      0.35      0.00
    8   14    1     -4.53      0.00
    8   14    2      2.75      0.00
    8   14    3     -0.46      0.00
    8   14    4     -2.42      0.00
    8   14    5     -2.53      0.00
    8   14    6     -1.95      0.00
    8   14    7      0.75      0.00
    8   14    8      4.63      0.00
    8   14    9      0.23      0.00
    8   14   10      1.77      0.00
    8   14   11      0.12      0.00
   -8   15   12      1.51      0.00
   -8   15   11     -1.38      0.00
   -8   15   10      1.37      0.00
   -8   15    9     -3.02      0.00
   -8   15    8     -1.54      0.00
   -8   15    7     -2.16      0.00
   -8   15    6      1.09      0.00
   -8   15    5     -3.87      0.00
   -8   15    4      1.07      0.00
   -8   15    3     -6.50      0.00
   -8   15    2      0.75      0.00
   -8   15    1     -1.45      0.00
    8   15    0      1.91      0.00
    8   15    1     -4.59      0.00
    8   15    2      2.01      0.00
    8   15    3      0.80      0.00
    8   15    4     -0.84      0.00
    8   15    5      1.40      0.00
    8   15    6     -0.06      0.00
    8   15    7      0.11      0.00
    8   15    8      0.03      0.00
    8   15    9     -3.57      0.00
    8   15   10     -0.99      0.00
   -8   16   11     -0.90      0.00
   -8   16   10      1.84      0.00
   -8   16    9      1.22      0.00
   -8   16    8      0.52      0.00
   -8   16    7      1.46      0.00
   -8   16    6      1.01      0.00
   -8   16    5      3.34      0.00
   -8   16    4      3.28      0.00
   -8   16    3     -0.67      0.00
   -8   16    2      2.48      0.00
   -8   16    1      2.76      0.00
    8   16    0      1.86      0.00
    8   16    1     -1.16      0.00
    8   16    2     -1.97      0.00
    8   16    3     -3.41      0.00
    8   16    4     -1.01      0.00
    8   16    5      1.61      0.00
    8   16    6     -2.01      0.00
    8   16    7      2.29      0.00
    8   16    8     -0.83      0.00
    8   16    9      1.01      0.00
   -8   17   10     -0.72      0.00
   -8   17    9     -0.70      0.00
   -8   17    8     -1.77      0.00
   -8   17    7     -0.04      0.00
   -8   17    6     -4.56      0.00
   -8   17    5      0.44      0.00
   -8   17    4     -2.12      0.00
   -8   17    3      1.42      0.00
   -8   17    2     -0.67      0.00
   -8   17    1     -0.61      0.00
    8   17    0     -0.04      0.00
    8   17    1      2.90      0.00
    8   17    2      1.23      0.00
    8   17    3      1.31      0.00
    8   17    4      2.36      0.00
    8   17    5      4.58      0.00
    8   17    6     -2.66      0.00
    8   17    7      2.10      0.00
    8   17    8     -1.30      0.00
   -8   18    8      1.63      0.00
   -8   18    7      3.22      0.00
   -8   18    6     -1.98      0.00
   -8   18    5     -0.33      0.00
   -8   18    4     -2.66      0.00
   -8   18    3      0.68      0.00
   -8   18    2      0.06      0.00
   -8   18    1     -0.41      0.00
    8   18    0     -1.93      0.00
    8   18    1      1.24      0.00
    8   18    2      1.13      0.00
    8   18    3      0.58      0.00
    8   18    4     -3.49      0.00
    8   18    5      0.76      0.00
    8   18    6     -2.87      0.00
   -8   19    6      0.62      0.00
   -8   19    5      2.80      0.00
   -8   19    4      2.94      0.00
   -8   19    3     -0.24      0.00
   -8   19    2      1.40      0.00
   -8   19    1      0.11      0.00
    8   19    0     -1.46      0.00
    8   19    1     -0.02      0.00
    8   19    2     -0.73      0.00
    8   19    3      0.98      0.00
    8   19    4     -1.72      0.00
   -9    0   18      0.36      0.00
   -9    0   16     -0.74      0.00
   -9    0   14     -2.43      0.00
   -9    0   12      6.56      0.00
   -9    0   10      8.66      0.00
   -9    0    8     15.04      0.00
   -9    0    6    -20.61      0.00
   -9    0    4     23.69      0.00
   -9    0    2     11.69      0.00
    9    0    0     50.03      0.00
    9    0    2     55.13      0.00
    9    0    4     44.61      0.00
    9    0    6      2.88      0.00
    9    0    8      7.56      0.00
    9    0   10      5.85      0.00
    9    0   12      3.14      0.00
    9    0   14      1.00      0.00
   -9    1   18     -1.22      0.00
   -9    1   17     -1.09      0.00
   -9    1   16     -1.76      0.00
   -9    1   15      2.16      0.00
   -9    1   14     -0.90      0.00
   -9    1   13     -0.09      0.00
   -9    1   12      3.31      0.00
   -9    1   11     -6.02      0.00
   -9    1   10     -5.93      0.00
   -9    1    9     -5.54      0.00
   -9    1    8     -6.76      0.00
   -9    1    7      5.60      0.00
   -9    1    6     -6.68      0.00
   -9    1    5     11.09      0.00
   -9    1    4    -12.13      0.00
   -9    1    3      5.79      0.00
   -9    1    2      3.95      0.00
   -9    1    1     -1.51      0.00
    9    1    0    -18.44      0.00
    9    1    1    -21.31      0.00
    9    1    2     -5.95      0.00
    9    1    3    -15.99      0.00
    9    1    4     14.30      0.00
    9    1    5     -2.34      0.00
    9    1    6     -3.27      0.00
    9    1    7     -2.60      0.00
    9    1    8     -2.16      0.00
    9    1    9     -3.95      0.00
    9    1   10      0.19      0.00
    9    1   11     -0.81      0.00
    9    1   12      0.32      0.00
    9    1   13      0.08      0.00
    9    1   14     -0.53      0.00
    9    1   15     -1.74      0.00
   -9    2   18      0.70      0.00
   -9    2   17      0.34      0.00
   -9    2   16      0.52      0.00
   -9    2   15      0.79      0.00
   -9    2   14      0.06      0.00
   -9    2   13      0.64      0.00
   -9    2   12     -2.04      0.00
   -9    2   11     -3.47      0.00
   -9    2   10      2.45      0.00
   -9    2    9     -0.24      0.00
   -9    2    8    -12.12      0.00
   -9    2    7     10.80      0.00
   -9    2    6      2.17      0.00
   -9    2    5     17.69      0.00
   -9    2    4    -36.63      0.00
   -9    2    3      1.86      0.00
   -9    2    2    -17.60      0.00
   -9    2    1      5.87      0.00
    9    2    0    -28.58      0.00
    9    2    1     -4.00      0.00
    9    2    2    -19.60      0.00
    9    2    3     -8.08      0.00
    9    2    4    -29.84      0.00
    9    2    5     -6.46      0.00
    9    2    6      3.13      0.00
    9    2    7     -2.25      0.00
    9    2    8      1.56      0.00
    9    2    9      0.51      0.00
    9    2   10     -0.84      0.00
    9    2   11     -0.16      0.00
    9    2   12     -3.04      0.00
    9    2   13      0.06      0.00
    9    2   14      0.18      0.00
    9    2   15     -0.93      0.00
    9    2   16     -1.26      0.00
   -9    3   18      1.83      0.00
   -9    3   17      1.69      0.00
   -9    3   16      2.69      0.00
   -9    3   15     -3.88      0.00
   -9    3   14      0.29      0.00
   -9    3   13      1.14      0.00
   -9    3   12     -2.44      0.00
   -9    3   11      5.04      0.00
   -9    3   10      7.33      0.00
   -9    3    9     -0.32      0.00
   -9    3    8      2.40      0.00
   -9    3    7     -4.26      0.00
   -9    3    6    -17.27      0.00
   -9    3    5      3.17      0.00
   -9    3    4     -0.22      0.00
   -9    3    3      4.67      0.00
   -9    3    2     -3.39      0.00
   -9    3    1      2.12      0.00
    9    3    0     23.93      0.00
    9    3    1     17.47      0.00
    9    3    2     12.21      0.00
    9    3    3     11.90      0.00
    9    3    4     -9.37      0.00
    9    3    5     -5.96      0.00
    9    3    6      4.34      0.00
    9    3    7     -8.35      0.00
    9    3    8      0.21      0.00
    9    3    9     -1.43      0.00
    9    3   10     -0.09      0.00
    9    3   11      0.56      0.00
    9    3   12     -0.75      0.00
    9    3   13     -0.13      0.00
    9    3   14      0.90      0.00
    9    3   15      0.84      0.00
    9    3   16     -0.49      0.00
   -9    4   18     -1.09      0.00
   -9    4   17     -2.35      0.00
   -9    4   16      0.97      0.00
   -9    4   15      0.46      0.00
   -9    4   14      1.32      0.00
   -9    4   13     -0.54      0.00
   -9    4   12     -3.27      0.00
   -9    4   11      6.51      0.00
   -9    4   10     -5.15      0.00
   -9    4    9      0.37      0.00
   -9    4    8     17.13      0.00
   -9    4    7      0.95      0.00
   -9    4    6     -2.34      0.00
   -9    4    5      4.35      0.00
   -9    4    4     16.74      0.00
   -9    4    3      5.31      0.00
   -9    4    2      7.88      0.00
   -9    4    1      2.18      0.00
    9    4    0      7.76      0.00
    9    4    1     -8.98      0.00
    9    4    2     -7.84      0.00
    9    4    3      9.55      0.00
    9    4    4     23.96      0.00
    9    4    5     11.27      0.00
    9    4    6      9.24      0.00
    9    4    7      6.74      0.00
    9    4    8      4.23      0.00
    9    4    9     -0.29      0.00
    9    4   10      0.09      0.00
    9    4   11      1.27      0.00
    9    4   12      3.19      0.00
    9    4   13      0.83      0.00
    9    4   14     -0.27      0.00
    9    4   15     -0.12      0.00
    9    4   16      0.30      0.00
   -9    5   18      1.03      0.00
   -9    5   17     -1.65      0.00
   -9    5   16     -2.33      0.00
   -9    5   15      1.62      0.00
   -9    5   14     -0.59      0.00
   -9    5   13      0.78      0.00
   -9    5   12      0.74      0.00
   -9    5   11      0.83      0.00
   -9    5   10    -12.22      0.00
   -9    5    9     -0.79      0.00
   -9    5    8     -2.79      0.00
   -9    5    7     -4.18      0.00
   -9    5    6      4.23      0.00
   -9    5    5      1.07      0.00
   -9    5    4    -12.13      0.00
   -9    5    3      5.35      0.00
   -9    5    2    -10.12      0.00
   -9    5    1     10.44      0.00
    9    5    0     -6.99      0.00
    9    5    1      7.53      0.00
    9    5    2    -10.48      0.00
    9    5    3      3.18      0.00
    9    5    4      0.13      0.00
    9    5    5     -4.31      0.00
    9    5    6    -12.44      0.00
    9    5    7      1.42      0.00
    9    5    8     -2.51      0.00
    9    5    9      2.16      0.00
    9    5   10      0.48      0.00
    9    5   11     -1.88      0.00
    9    5   12      1.03      0.00
    9    5   13     -2.57      0.00
    9    5   14      0.82      0.00
    9    5   15      0.73      0.00
   -9    6   17      0.10      0.00
   -9    6   16     -1.31      0.00
   -9    6   15     -0.90      0.00
   -9    6   14     -1.19      0.00
   -9    6   13     -1.75      0.00
   -9    6   12      2.48      0.00
   -9    6   11     -3.73      0.00
   -9    6   10      2.24      0.00
   -9    6    9      2.69      0.00
   -9    6    8     -9.55      0.00
   -9    6    7     -0.08      0.00
   -9    6    6      6.49      0.00
   -9    6    5     -0.04      0.00
   -9    6    4    -11.43      0.00
   -9    6    3      5.06      0.00
   -9    6    2    -15.13      0.00
   -9    6    1     11.30      0.00
    9    6    0    -16.99      0.00
    9    6    1     14.27      0.00
    9    6    2      2.24      0.00
    9    6    3     -4.38      0.00
    9    6    4    -13.62      0.00
    9    6    5     -7.37      0.00
    9    6    6     -2.54      0.00
    9    6    7     -1.43      0.00
    9    6    8     -7.15      0.00
    9    6    9      1.58      0.00
    9    6   10     -1.20      0.00
    9    6   11     -4.20      0.00
    9    6   12      2.76      0.00
    9    6   13     -4.14      0.00
    9    6   14      2.08      0.00
    9    6   15     -2.12      0.00
   -9    7   17      3.43      0.00
   -9    7   16      2.30      0.00
   -9    7   15      0.61      0.00
   -9    7   14      1.37      0.00
   -9    7   13     -3.12      0.00
   -9    7   12      3.27      0.00
   -9    7   11     -0.92      0.00
   -9    7   10      9.52      0.00
   -9    7    9      4.19      0.00
   -9    7    8     -2.15      0.00
   -9    7    7      4.58      0.00
   -9    7    6     -2.24      0.00
   -9    7    5     -3.32      0.00
   -9    7    4      7.64      0.00
   -9    7    3     -0.23      0.00
   -9    7    2     -0.92      0.00
   -9    7    1      6.70      0.00
    9    7    0     -1.92      0.00
    9    7    1      2.59      0.00
    9    7    2     -4.36      0.00
    9    7    3     -6.43      0.00
    9    7    4      4.68      0.00
    9    7    5      1.34      0.00
    9    7    6     14.05      0.00
    9    7    7      3.95      0.00
    9    7    8     -1.31      0.00
    9    7    9      3.48      0.00
    9    7   10      0.41      0.00
    9    7   11     -1.26      0.00
    9    7   12      2.49      0.00
    9    7   13     -2.59      0.00
    9    7   14      4.44      0.00
    9    7   15     -1.62      0.00
   -9    8   17     -0.30      0.00
   -9    8   16     -1.63      0.00
   -9    8   15      1.80      0.00
   -9    8   14      1.85      0.00
   -9    8   13     -0.70      0.00
   -9    8   12     -0.24      0.00
   -9    8   11     -0.12      0.00
   -9    8   10     -5.79      0.00
   -9    8    9      2.11      0.00
   -9    8    8     -4.16      0.00
   -9    8    7      6.16      0.00
   -9    8    6     -7.96      0.00
   -9    8    5     -0.78      0.00
   -9    8    4      7.22      0.00
   -9    8    3      0.76      0.00
   -9    8    2     -0.94      0.00
   -9    8    1    -12.48      0.00
    9    8    0     -6.24      0.00
    9    8    1      2.80      0.00
    9    8    2    -10.11      0.00
    9    8    3      9.04      0.00
    9    8    4      7.54      0.00
    9    8    5     -0.01      0.00
    9    8    6     -6.00      0.00
    9    8    7      0.34      0.00
    9    8    8     -2.38      0.00
    9    8    9      1.83      0.00
    9    8   10     -0.60      0.00
    9    8   11      3.42      0.00
    9    8   12     -0.60      0.00
    9    8   13     -1.70      0.00
    9    8   14      0.19      0.00
   -9    9   16     -1.79      0.00
   -9    9   15     -0.47      0.00
   -9    9   14     -2.20      0.00
   -9    9   13      2.16      0.00
   -9    9   12     -0.40      0.00
   -9    9   11      3.32      0.00
   -9    9   10     -6.41      0.00
   -9    9    9      6.07      0.00
   -9    9    8     -3.18      0.00
   -9    9    7      5.82      0.00
   -9    9    6     -2.06      0.00
   -9    9    5     -2.32      0.00
   -9    9    4     -5.97      0.00
   -9    9    3      0.74      0.00
   -9    9    2      0.95      0.00
   -9    9    1      8.75      0.00
    9    9    0     -5.47      0.00
    9    9    2     -5.48      0.00
    9    9    3     10.76      0.00
    9    9    4     -5.64      0.00
    9    9    5      6.44      0.00
    9    9    6    -10.39      0.00
    9    9    7      5.46      0.00
    9    9    8     -0.62      0.00
    9    9    9     -0.93      0.00
    9    9   10     -3.32      0.00
    9    9   11      1.98      0.00
    9    9   12     -0.62      0.00
    9    9   13      2.27      0.00
    9    9   14      1.87      0.00
   -9   10   16      0.73      0.00
   -9   10   15     -0.70      0.00
   -9   10   14     -0.31      0.00
   -9   10   13      0.94      0.00
   -9   10   12     -1.67      0.00
   -9   10   11     -2.09      0.00
   -9   10   10      0.09      0.00
   -9   10    9     -2.54      0.00
   -9   10    8     -1.30      0.00
   -9   10    7     -4.15      0.00
   -9   10    6      7.89      0.00
   -9   10    5      2.53      0.00
   -9   10    4      2.63      0.00
   -9   10    3     -2.99      0.00
   -9   10    2     -1.95      0.00
   -9   10    1      8.51      0.00
    9   10    0     -2.68      0.00
    9   10    1      3.32      0.00
    9   10    2      0.62      0.00
    9   10    3     -0.86      0.00
    9   10    4     -8.43      0.00
    9   10    5      3.85      0.00
    9   10    6     -1.71      0.00
    9   10    7      1.94      0.00
    9   10    8      2.52      0.00
    9   10    9     -2.66      0.00
    9   10   10      2.64      0.00
    9   10   11     -1.40      0.00
    9   10   12     -1.06      0.00
    9   10   13     -2.12      0.00
   -9   11   15     -0.49      0.00
   -9   11   14      2.53      0.00
   -9   11   13     -1.41      0.00
   -9   11   12      1.43      0.00
   -9   11   11      0.21      0.00
   -9   11   10      4.90      0.00
   -9   11    9     -4.44      0.00
   -9   11    8      6.37      0.00
   -9   11    7    -10.60      0.00
   -9   11    6     -0.58      0.00
   -9   11    5     -1.23      0.00
   -9   11    4      3.19      0.00
   -9   11    3      0.61      0.00
   -9   11    2     -0.22      0.00
   -9   11    1     -6.55      0.00
    9   11    0      3.44      0.00
    9   11    1     -3.60      0.00
    9   11    2      0.51      0.00
    9   11    3     -2.34      0.00
    9   11    4     -3.18      0.00
    9   11    5      0.55      0.00
    9   11    6      2.57      0.00
    9   11    7     -2.78      0.00
    9   11    8      3.24      0.00
    9   11    9     -1.09      0.00
    9   11   10      5.08      0.00
    9   11   11     -1.36      0.00
    9   11   12      1.46      0.00
    9   11   13      1.42      0.00
   -9   12   14      0.95      0.00
   -9   12   13     -3.29      0.00
   -9   12   12     -1.06      0.00
   -9   12   11      1.59      0.00
   -9   12   10     -1.12      0.00
   -9   12    9     -0.34      0.00
   -9   12    8      6.22      0.00
   -9   12    7      1.52      0.00
   -9   12    6      0.22      0.00
   -9   12    5      2.95      0.00
   -9   12    4     -9.95      0.00
   -9   12    3      3.89      0.00
   -9   12    2      2.14      0.00
   -9   12    1     -6.61      0.00
    9   12    0      4.20      0.00
    9   12    1     -3.21      0.00
    9   12    2     -4.48      0.00
    9   12    3      3.95      0.00
    9   12    4     -1.66      0.00
    9   12    5      2.68      0.00
    9   12    6      0.02      0.00
    9   12    7     -2.54      0.00
    9   12    8     -4.13      0.00
    9   12    9     -1.72      0.00
    9   12   10     -3.37      0.00
    9   12   11     -0.98      0.00
    9   12   12     -0.44      0.00
   -9   13   14      0.63      0.00
   -9   13   13     -0.17      0.00
   -9   13   12      0.86      0.00
   -9   13   11      0.53      0.00
   -9   13   10     -2.60      0.00
   -9   13    9      1.18      0.00
   -9   13    8     -3.96      0.00
   -9   13    7      4.14      0.00
   -9   13    6     -0.26      0.00
   -9   13    5      4.26      0.00
   -9   13    4     -4.33      0.00
   -9   13    3      5.25      0.00
   -9   13    2      3.21      0.00
   -9   13    1     -0.95      0.00
    9   13    0     -4.96      0.00
    9   13    1      1.88      0.00
    9   13    2     -1.18      0.00
    9   13    3      7.72      0.00
    9   13    4      0.89      0.00
    9   13    5      0.24      0.00
    9   13    6     -1.56      0.00
    9   13    7      2.57      0.00
    9   13    8     -0.74      0.00
    9   13    9      5.17      0.00
    9   13   10     -1.47      0.00
    9   13   11      1.13      0.00
    9   13   12      2.23      0.00
   -9   14   13     -0.16      0.00
   -9   14   12      2.71      0.00
   -9   14   11     -2.59      0.00
   -9   14   10      2.81      0.00
   -9   14    9      0.84      0.00
   -9   14    8     -3.66      0.00
   -9   14    7     -0.26      0.00
   -9   14    6     -1.58      0.00
   -9   14    5     -2.81      0.00
   -9   14    4      4.44      0.00
   -9   14    3     -5.08      0.00
   -9   14    2     -0.23      0.00
   -9   14    1     -0.41      0.00
    9   14    0      0.73      0.00
    9   14    1      4.33      0.00
    9   14    2     -1.47      0.00
    9   14    3     -3.86      0.00
    9   14    4     -0.32      0.00
    9   14    5     -2.46      0.00
    9   14    6      0.90      0.00
    9   14    7      1.78      0.00
    9   14    8      0.25      0.00
    9   14    9      0.33      0.00
    9   14   10     -0.48      0.00
    9   14   11     -2.46      0.00
   -9   15   12      2.01      0.00
   -9   15   11     -3.13      0.00
   -9   15   10      2.34      0.00
   -9   15    9     -1.11      0.00
   -9   15    8      2.17      0.00
   -9   15    7      1.01      0.00
   -9   15    6      0.19      0.00
   -9   15    5     -1.91      0.00
   -9   15    4      4.35      0.00
   -9   15    3     -5.76      0.00
   -9   15    2      1.52      0.00
   -9   15    1     -1.70      0.00
    9   15    0      2.20      0.00
    9   15    1     -0.32      0.00
    9   15    2      3.42      0.00
    9   15    3     -3.85      0.00
    9   15    4      1.68      0.00
    9   15    5      0.18      0.00
    9   15    6      0.83      0.00
    9   15    7     -3.00      0.00
    9   15    8      1.52      0.00
    9   15    9     -1.81      0.00
    9   15   10      4.34      0.00
   -9   16   11     -0.51      0.00
   -9   16   10      0.43      0.00
   -9   16    9     -0.86      0.00
   -9   16    8     -1.15      0.00
   -9   16    7     -0.32      0.00
   -9   16    6     -1.70      0.00
   -9   16    5      1.94      0.00
   -9   16    4     -0.29      0.00
   -9   16    3      1.01      0.00
   -9   16    2      4.13      0.00
   -9   16    1     -1.65      0.00
    9   16    0     -0.41      0.00
    9   16    1     -5.60      0.00
    9   16    2      2.65      0.00
    9   16    3      0.20      0.00
    9   16    4     -0.66      0.00
    9   16    5      0.59      0.00
    9   16    6      1.06      0.00
    9   16    7     -2.04      0.00
    9   16    8     -0.07      0.00
    9   16    9     -4.57      0.00
   -9   17    9      1.78      0.00
   -9   17    8     -0.45      0.00
   -9   17    7      1.36      0.00
   -9   17    6      0.30      0.00
   -9   17    5     -0.13      0.00
   -9   17    4     -4.51      0.00
   -9   17    3     -0.33      0.00
   -9   17    2     -0.97      0.00
   -9   17    1     -0.95      0.00
    9   17    0      0.26      0.00
    9   17    1     -1.97      0.00
    9   17    2     -0.02      0.00
    9   17    3      1.22      0.00
    9   17    4     -1.75      0.00
    9   17    5     -1.22      0.00
    9   17    6      0.43      0.00
    9   17    7      1.07      0.00
   -9   18    7     -1.90      0.00
   -9   18    6      1.25      0.00
   -9   18    5      0.61      0.00
   -9   18    4      2.37      0.00
   -9   18    3      1.92      0.00
   -9   18    2     -0.80      0.00
   -9   18    1      3.15      0.00
    9   18    0      2.15      0.00
    9   18    1     -0.11      0.00
    9   18    2      0.17      0.00
    9   18    3      0.49      0.00
    9   18    4      2.54      0.00
    9   18    5      0.89      0.00
   -9   19    5     -1.96      0.00
   -9   19    4      1.90      0.00
   -9   19    3     -1.08      0.00
   -9   19    2     -0.19      0.00
   -9   19    1      0.20      0.00
    9   19    0      3.48      0.00
    9   19    1      0.93      0.00
    9   19    2      2.46      0.00
    9   19    3     -2.74      0.00
  -10    0   18      1.17      0.00
  -10    0   16     -1.58      0.00
  -10    0   14      1.48      0.00
  -10    0   12     -2.42      0.00
  -10    0   10      2.81      0.00
  -10    0    8      8.67      0.00
  -10    0    6      3.77      0.00
  -10    0    4    -13.61      0.00
  -10    0    2     31.84      0.00
   10    0    0     20.26      0.00
   10    0    2     42.68      0.00
   10    0    4     24.50      0.00
   10    0    6     12.51      0.00
   10    0    8     -4.96      0.00
   10    0   10      5.32      0.00
   10    0   12      1.55      0.00
   10    0   14     -1.67      0.00
   10    0   16     -0.55      0.00
  -10    1   18     -1.08      0.00
  -10    1   17     -0.16      0.00
  -10    1   16     -4.93      0.00
  -10    1   15      0.38      0.00
  -10    1   14      3.12      0.00
  -10    1   13      0.26      0.00
  -10    1   12      4.34      0.00
  -10    1   11      2.37      0.00
  -10    1   10     -7.55      0.00
  -10    1    9      1.81      0.00
  -10    1    8    -11.00      0.00
  -10    1    7      3.98      0.00
  -10    1    6      8.71      0.00
  -10    1    5     14.40      0.00
  -10    1    4     -8.35      0.00
  -10    1    3     11.39      0.00
  -10    1    2     -8.89      0.00
  -10    1    1     -3.01      0.00
   10    1    0    -12.45      0.00
   10    1    1     -8.87      0.00
   10    1    2      9.11      0.00
   10    1    3     -8.99      0.00
   10    1    4     17.51      0.00
   10    1    5     -5.24      0.00
   10    1    6      0.68      0.00
   10    1    7      0.60      0.00
   10    1    8     -7.26      0.00
   10    1    9      1.66      0.00
   10    1   10      2.26      0.00
   10    1   11     -0.69      0.00
   10    1   12      0.92      0.00
   10    1   13     -0.02      0.00
   10    1   14      1.98      0.00
   10    1   15     -0.81      0.00
   10    1   16      4.80      0.00
  -10    2   18     -2.02      0.00
  -10    2   17      1.86      0.00
  -10    2   16      1.28      0.00
  -10    2   15      0.56      0.00
  -10    2   14     -1.49      0.00
  -10    2   13     -4.00      0.00
  -10    2   12      0.96      0.00
  -10    2   11     -0.12      0.00
  -10    2   10     -8.85      0.00
  -10    2    9      5.98      0.00
  -10    2    8    -15.31      0.00
  -10    2    7      4.80      0.00
  -10    2    6    -19.24      0.00
  -10    2    5     -3.13      0.00
  -10    2    4    -10.60      0.00
  -10    2    3      3.51      0.00
  -10    2    2    -34.06      0.00
  -10    2    1     -1.31      0.00
   10    2    0     -4.09      0.00
   10    2    1     -5.90      0.00
   10    2    2    -26.20      0.00
   10    2    3    -19.36      0.00
   10    2    4    -11.29      0.00
   10    2    5    -14.36      0.00
   10    2    6     -6.99      0.00
   10    2    7      2.85      0.00
   10    2    8      4.32      0.00
   10    2    9     -1.42      0.00
   10    2   10     -4.74      0.00
   10    2   11     -2.79      0.00
   10    2   12     -0.34      0.00
   10    2   13      0.14      0.00
   10    2   14      0.83      0.00
   10    2   15     -1.27      0.00
   10    2   16     -0.20      0.00
  -10    3   18     -0.26      0.00
  -10    3   17      0.82      0.00
  -10    3   16      2.14      0.00
  -10    3   15      0.51      0.00
  -10    3   14      1.39      0.00
  -10    3   13     -1.52      0.00
  -10    3   12     -2.05      0.00
  -10    3   11      1.79      0.00
  -10    3   10      1.05      0.00
  -10    3    9      9.86      0.00
  -10    3    8     -1.28      0.00
  -10    3    7      8.24      0.00
  -10    3    6     -9.43      0.00
  -10    3    5     -2.78      0.00
  -10    3    4      9.32      0.00
  -10    3    3     -5.68      0.00
  -10    3    2      8.95      0.00
  -10    3    1     -5.31      0.00
   10    3    0     11.97      0.00
   10    3    1      0.72      0.00
   10    3    2     12.49      0.00
   10    3    3      5.55      0.00
   10    3    4      6.90      0.00
   10    3    5      1.87      0.00
   10    3    6     -0.34      0.00
   10    3    7     -4.50      0.00
   10    3    8      2.17      0.00
   10    3    9     -2.55      0.00
   10    3   10      3.42      0.00
   10    3   11      0.23      0.00
   10    3   12      1.04      0.00
   10    3   13      1.29      0.00
   10    3   14     -2.97      0.00
   10    3   15      3.44      0.00
  -10    4   18     -0.25      0.00
  -10    4   17      0.60      0.00
  -10    4   16     -2.63      0.00
  -10    4   15     -0.89      0.00
  -10    4   14      0.96      0.00
  -10    4   13      2.58      0.00
  -10    4   12     -0.49      0.00
  -10    4   11      3.01      0.00
  -10    4   10      0.35      0.00
  -10    4    9      5.29      0.00
  -10    4    8     -0.35      0.00
  -10    4    7      5.21      0.00
  -10    4    6      8.37      0.00
  -10    4    5      3.39      0.00
  -10    4    4     11.86      0.00
  -10    4    3     -4.75      0.00
  -10    4    2     32.69      0.00
  -10    4    1      2.52      0.00
   10    4    0      2.31      0.00
   10    4    1    -10.20      0.00
   10    4    2     22.11      0.00
   10    4    3     -4.43      0.00
   10    4    4      5.31      0.00
   10    4    5     10.57      0.00
   10    4    6      5.98      0.00
   10    4    7      2.49      0.00
   10    4    8     -1.84      0.00
   10    4    9     -0.67      0.00
   10    4   10      4.72      0.00
   10    4   11     -3.76      0.00
   10    4   12     -0.63      0.00
   10    4   13      2.49      0.00
   10    4   14     -3.42      0.00
   10    4   15      1.83      0.00
  -10    5   17      1.20      0.00
  -10    5   16     -2.30      0.00
  -10    5   15      1.05      0.00
  -10    5   14     -1.93      0.00
  -10    5   13      1.69      0.00
  -10    5   12     -0.51      0.00
  -10    5   11     -2.94      0.00
  -10    5   10     -4.84      0.00
  -10    5    9     -4.30      0.00
  -10    5    8     -9.65      0.00
  -10    5    7      4.28      0.00
  -10    5    6      0.80      0.00
  -10    5    5     -1.67      0.00
  -10    5    4     -6.50      0.00
  -10    5    3     -4.73      0.00
  -10    5    2     -8.21      0.00
  -10    5    1      6.28      0.00
   10    5    0      2.20      0.00
   10    5    1     -5.91      0.00
   10    5    2      5.12      0.00
   10    5    3    -12.52      0.00
   10    5    4     -5.30      0.00
   10    5    5      1.33      0.00
   10    5    6     -3.63      0.00
   10    5    7      4.23      0.00
   10    5    8     -1.83      0.00
   10    5    9     -0.14      0.00
   10    5   10      3.03      0.00
   10    5   11     -2.76      0.00
   10    5   12      1.89      0.00
   10    5   13      1.26      0.00
   10    5   14     -0.18      0.00
   10    5   15      0.49      0.00
  -10    6   17      1.31      0.00
  -10    6   16      0.50      0.00
  -10    6   15      0.54      0.00
  -10    6   14     -2.18      0.00
  -10    6   13     -1.91      0.00
  -10    6   12      2.21      0.00
  -10    6   11     -1.33      0.00
  -10    6   10      6.91      0.00
  -10    6    9     -2.62      0.00
  -10    6    8     -0.16      0.00
  -10    6    7      7.28      0.00
  -10    6    6     -8.76      0.00
  -10    6    5      0.38      0.00
  -10    6    4      2.23      0.00
  -10    6    3      1.16      0.00
  -10    6    2    -21.46      0.00
  -10    6    1      3.56      0.00
   10    6    0      5.13      0.00
   10    6    1     -5.28      0.00
   10    6    2      3.70      0.00
   10    6    3      4.61      0.00
   10    6    4      6.06      0.00
   10    6    5     -6.38      0.00
   10    6    6     -6.34      0.00
   10    6    7     -3.95      0.00
   10    6    8      0.82      0.00
   10    6    9     -2.25      0.00
   10    6   10      1.81      0.00
   10    6   11     -1.00      0.00
   10    6   12      0.94      0.00
   10    6   13     -3.71      0.00
   10    6   14     -0.80      0.00
   10    6   15      0.71      0.00
  -10    7   17      1.43      0.00
  -10    7   16     -0.84      0.00
  -10    7   15     -0.04      0.00
  -10    7   14      3.25      0.00
  -10    7   13     -1.80      0.00
  -10    7   12      0.59      0.00
  -10    7   11     -2.18      0.00
  -10    7   10      5.18      0.00
  -10    7    9     -4.21      0.00
  -10    7    8      3.68      0.00
  -10    7    7     -3.26      0.00
  -10    7    6    -11.20      0.00
  -10    7    5      2.47      0.00
  -10    7    4      6.07      0.00
  -10    7    3      2.69      0.00
  -10    7    2      8.40      0.00
  -10    7    1     -8.38      0.00
   10    7    0      5.38      0.00
   10    7    1     -8.18      0.00
   10    7    2      0.73      0.00
   10    7    3     -3.98      0.00
   10    7    4      2.48      0.00
   10    7    5     -5.77      0.00
   10    7    6      8.37      0.00
   10    7    7     -1.24      0.00
   10    7    8      7.10      0.00
   10    7    9     -2.93      0.00
   10    7   10     -3.03      0.00
   10    7   11     -1.67      0.00
   10    7   12      0.94      0.00
   10    7   13      0.83      0.00
   10    7   14     -0.32      0.00
  -10    8   16     -0.36      0.00
  -10    8   15     -0.22      0.00
  -10    8   14      2.25      0.00
  -10    8   13     -0.16      0.00
  -10    8   12     -1.37      0.00
  -10    8   11      2.37      0.00
  -10    8   10     -2.97      0.00
  -10    8    9      3.46      0.00
  -10    8    8      3.25      0.00
  -10    8    7      1.33      0.00
  -10    8    6      4.50      0.00
  -10    8    5      4.41      0.00
  -10    8    4    -11.86      0.00
  -10    8    3     -5.49      0.00
  -10    8    2     11.90      0.00
  -10    8    1     -3.52      0.00
   10    8    0      0.80      0.00
   10    8    1      2.82      0.00
   10    8    2     -2.03      0.00
   10    8    3     -7.18      0.00
   10    8    4     -3.00      0.00
   10    8    5      3.57      0.00
   10    8    6      5.22      0.00
   10    8    7     -4.59      0.00
   10    8    8      1.27      0.00
   10    8    9      2.05      0.00
   10    8   10     -0.39      0.00
   10    8   11      3.02      0.00
   10    8   12     -0.88      0.00
   10    8   13      2.22      0.00
   10    8   14     -1.53      0.00
  -10    9   16      0.64      0.00
  -10    9   15     -1.04      0.00
  -10    9   14     -0.50      0.00
  -10    9   13      2.04      0.00
  -10    9   12     -1.00      0.00
  -10    9   11      2.45      0.00
  -10    9   10     -6.93      0.00
  -10    9    9      4.27      0.00
  -10    9    8     -6.37      0.00
  -10    9    7     -2.58      0.00
  -10    9    6      7.55      0.00
  -10    9    5      2.29      0.00
  -10    9    4     -2.52      0.00
  -10    9    3      6.09      0.00
  -10    9    2     -4.44      0.00
  -10    9    1      5.81      0.00
   10    9    0     -7.72      0.00
   10    9    1      6.02      0.00
   10    9    2      0.02      0.00
   10    9    3      8.51      0.00
   10    9    4      0.18      0.00
   10    9    5      5.24      0.00
   10    9    6     -3.48      0.00
   10    9    7     -3.80      0.00
   10    9    8     -4.88      0.00
   10    9    9      0.57      0.00
   10    9   10     -0.64      0.00
   10    9   11      3.67      0.00
   10    9   12     -1.84      0.00
   10    9   13      1.11      0.00
   10    9   14     -0.94      0.00
  -10   10   15     -0.98      0.00
  -10   10   14     -1.78      0.00
  -10   10   13     -2.81      0.00
  -10   10   12      1.83      0.00
  -10   10   11      0.08      0.00
  -10   10   10      1.11      0.00
  -10   10    9      0.06      0.00
  -10   10    8      1.43      0.00
  -10   10    7     -3.57      0.00
  -10   10    6      2.28      0.00
  -10   10    5    -11.79      0.00
  -10   10    4      5.34      0.00
  -10   10    3      6.88      0.00
  -10   10    2    -10.93      0.00
  -10   10    1     -0.94      0.00
   10   10    0     -1.28      0.00
   10   10    1      1.82      0.00
   10   10    2     -0.82      0.00
   10   10    3      7.28      0.00
   10   10    4     -1.09      0.00
   10   10    5     -4.00      0.00
   10   10    6     -0.63      0.00
   10   10    7      4.69      0.00
   10   10    8      4.72      0.00
   10   10    9      0.15      0.00
   10   10   10      0.70      0.00
   10   10   11     -3.39      0.00
   10   10   12     -1.49      0.00
   10   10   13      0.17      0.00
  -10   11   15      2.76      0.00
  -10   11   14      3.54      0.00
  -10   11   13     -2.26      0.00
  -10   11   12      2.06      0.00
  -10   11   11     -2.85      0.00
  -10   11   10      2.70      0.00
  -10   11    9     -6.08      0.00
  -10   11    8      5.71      0.00
  -10   11    7     -3.26      0.00
  -10   11    6      4.39      0.00
  -10   11    5     -4.21      0.00
  -10   11    4      4.67      0.00
  -10   11    3     -1.19      0.00
  -10   11    2     -1.34      0.00
  -10   11    1     -0.27      0.00
   10   11    0      0.21      0.00
   10   11    1     -3.21      0.00
   10   11    2     -5.01      0.00
   10   11    3     -4.48      0.00
   10   11    4     -2.32      0.00
   10   11    5     -2.69      0.00
   10   11    6      0.10      0.00
   10   11    7      1.50      0.00
   10   11    8      0.58      0.00
   10   11    9     -3.75      0.00
   10   11   10      3.68      0.00
   10   11   11     -1.41      0.00
   10   11   12      2.20      0.00
   10   11   13      0.76      0.00
  -10   12   14     -1.22      0.00
  -10   12   13      1.12      0.00
  -10   12   12     -0.95      0.00
  -10   12   11      0.80      0.00
  -10   12   10      0.93      0.00
  -10   12    9     -0.39      0.00
  -10   12    8      1.55      0.00
  -10   12    7     -1.15      0.00
  -10   12    6     -1.06      0.00
  -10   12    5      4.89      0.00
  -10   12    4     -3.45      0.00
  -10   12    3     -2.89      0.00
  -10   12    2      1.58      0.00
  -10   12    1      3.30      0.00
   10   12    0     -0.93      0.00
   10   12    1      4.14      0.00
   10   12    2      0.60      0.00
   10   12    3     -1.72      0.00
   10   12    4     -0.38      0.00
   10   12    5      4.97      0.00
   10   12    6     -2.06      0.00
   10   12    7      0.09      0.00
   10   12    8     -2.33      0.00
   10   12    9     -0.60      0.00
   10   12   10      1.24      0.00
   10   12   11      0.43      0.00
   10   12   12     -1.50      0.00
  -10   13   13      3.25      0.00
  -10   13   12     -4.03      0.00
  -10   13   11      0.30      0.00
  -10   13   10     -1.42      0.00
  -10   13    9      2.22      0.00
  -10   13    8     -2.28      0.00
  -10   13    7      3.15      0.00
  -10   13    6     -5.16      0.00
  -10   13    5      4.70      0.00
  -10   13    4     -2.94      0.00
  -10   13    3      2.73      0.00
  -10   13    2      1.39      0.00
  -10   13    1      3.57      0.00
   10   13    0     -0.38      0.00
   10   13    1      4.25      0.00
   10   13    2     -1.14      0.00
   10   13    3      3.22      0.00
   10   13    4     -2.03      0.00
   10   13    5      4.49      0.00
   10   13    6     -2.22      0.00
   10   13    7      0.81      0.00
   10   13    8     -1.37      0.00
   10   13    9     -0.50      0.00
   10   13   10     -3.84      0.00
   10   13   11      2.16      0.00
  -10   14   13      2.19      0.00
  -10   14   12      0.38      0.00
  -10   14   11      2.59      0.00
  -10   14   10      2.34      0.00
  -10   14    9     -0.94      0.00
  -10   14    8      0.27      0.00
  -10   14    7      3.26      0.00
  -10   14    6     -1.32      0.00
  -10   14    5      0.18      0.00
  -10   14    4      0.51      0.00
  -10   14    3     -0.41      0.00
  -10   14    2     -0.26      0.00
  -10   14    1     -4.41      0.00
   10   14    0     -3.57      0.00
   10   14    1     -2.44      0.00
   10   14    2     -2.40      0.00
   10   14    3      5.35      0.00
   10   14    4     -0.73      0.00
   10   14    5      1.27      0.00
   10   14    6     -2.74      0.00
   10   14    7      0.39      0.00
   10   14    8      1.70      0.00
   10   14    9      3.49      0.00
   10   14   10     -0.97      0.00
  -10   15   11     -1.38      0.00
  -10   15   10     -0.90      0.00
  -10   15    9     -3.19      0.00
  -10   15    8      0.38      0.00
  -10   15    7     -1.00      0.00
  -10   15    6      1.27      0.00
  -10   15    5     -1.31      0.00
  -10   15    4      0.96      0.00
  -10   15    3     -2.64      0.00
  -10   15    2      2.57      0.00
  -10   15    1     -1.78      0.00
   10   15    0      0.52      0.00
   10   15    1      0.02      0.00
   10   15    2      0.51      0.00
   10   15    3     -1.44      0.00
   10   15    4     -2.95      0.00
   10   15    5     -1.83      0.00
   10   15    6     -0.62      0.00
   10   15    7      1.69      0.00
   10   15    8     -1.65      0.00
   10   15    9      0.05      0.00
  -10   16   10      0.29      0.00
  -10   16    9      3.08      0.00
  -10   16    8     -0.57      0.00
  -10   16    7     -1.65      0.00
  -10   16    6      0.60      0.00
  -10   16    5     -0.87      0.00
  -10   16    4     -0.11      0.00
  -10   16    3     -1.95      0.00
  -10   16    2      0.22      0.00
  -10   16    1      1.67      0.00
   10   16    0      1.40      0.00
   10   16    1      0.94      0.00
   10   16    2     -1.21      0.00
   10   16    3     -0.44      0.00
   10   16    4      1.52      0.00
   10   16    5      1.06      0.00
   10   16    6     -0.16      0.00
   10   16    7      3.11      0.00
   10   16    8     -1.22      0.00
  -10   17    9      1.26      0.00
  -10   17    8     -2.21      0.00
  -10   17    7     -0.74      0.00
  -10   17    6      0.06      0.00
  -10   17    5      0.27      0.00
  -10   17    4      2.48      0.00
  -10   17    3      1.40      0.00
  -10   17    2     -2.04      0.00
  -10   17    1      2.24      0.00
   10   17    0      0.41      0.00
   10   17    1      2.84      0.00
   10   17    2     -2.45      0.00
   10   17    3      0.86      0.00
   10   17    4      0.00      0.00
   10   17    5      1.82      0.00
   10   17    6     -2.70      0.00
   10   17    7      0.81      0.00
  -10   18    7      2.38      0.00
  -10   18    6     -0.40      0.00
  -10   18    5     -1.63      0.00
  -10   18    4      0.33      0.00
  -10   18    3     -0.44      0.00
  -10   18    2     -0.75      0.00
  -10   18    1      1.44      0.00
   10   18    0     -3.88      0.00
   10   18    1      0.71      0.00
   10   18    2      0.67      0.00
   10   18    3      1.11      0.00
   10   18    4     -1.06      0.00
   10   18    5      1.97      0.00
  -10   19    3     -1.54      0.00
  -10   19    2      1.95      0.00
  -10   19    1      0.34      0.00
   10   19    0      0.62      0.00
   10   19    1     -0.93      0.00
  -11    0   18     -0.72      0.00
  -11    0   16     -1.52      0.00
  -11    0   14     -2.01      0.00
  -11    0   12      5.19      0.00
  -11    0   10      4.43      0.00
  -11    0    8     12.78      0.00
  -11    0    6     -2.04      0.00
  -11    0    4     14.55      0.00
  -11    0    2      8.76      0.00
   11    0    0     24.86      0.00
   11    0    2     20.16      0.00
   11    0    4     24.96      0.00
   11    0    6     -1.70      0.00
   11    0    8      5.80      0.00
   11    0   10      2.07      0.00
   11    0   12      0.77      0.00
   11    0   14     -0.30      0.00
  -11    1   18     -1.65      0.00
  -11    1   17     -0.27      0.00
  -11    1   16     -2.68      0.00
  -11    1   15      2.62      0.00
  -11    1   14     -3.04      0.00
  -11    1   13      1.07      0.00
  -11    1   12      4.13      0.00
  -11    1   11     -3.23      0.00
  -11    1   10     -2.08      0.00
  -11    1    9     -3.63      0.00
  -11    1    8     -8.18      0.00
  -11    1    7      3.37      0.00
  -11    1    6     -5.79      0.00
  -11    1    5      1.28      0.00
  -11    1    4      8.42      0.00
  -11    1    3      0.55      0.00
  -11    1    2     -0.26      0.00
  -11    1    1      2.40      0.00
   11    1    0    -17.01      0.00
   11    1    1     -2.87      0.00
   11    1    2     -6.79      0.00
   11    1    3     -3.93      0.00
   11    1    4      5.92      0.00
   11    1    5      5.73      0.00
   11    1    6      3.79      0.00
   11    1    7      1.82      0.00
   11    1    8     -3.70      0.00
   11    1    9     -3.27      0.00
   11    1   10     -0.26      0.00
   11    1   11      1.97      0.00
   11    1   12      0.34      0.00
   11    1   13      1.04      0.00
   11    1   14     -2.75      0.00
   11    1   15     -0.01      0.00
  -11    2   18      1.08      0.00
  -11    2   17      0.50      0.00
  -11    2   16     -0.92      0.00
  -11    2   15      0.74      0.00
  -11    2   14     -1.34      0.00
  -11    2   13      1.32      0.00
  -11    2   12     -5.08      0.00
  -11    2   11     -4.28      0.00
  -11    2   10      2.11      0.00
  -11    2    9     -4.08      0.00
  -11    2    8    -14.17      0.00
  -11    2    7      3.03      0.00
  -11    2    6     -5.16      0.00
  -11    2    5      2.29      0.00
  -11    2    4    -14.81      0.00
  -11    2    3    -12.26      0.00
  -11    2    2     -9.44      0.00
  -11    2    1     -5.39      0.00
   11    2    0    -22.49      0.00
   11    2    1     -5.03      0.00
   11    2    2    -12.23      0.00
   11    2    3     -7.03      0.00
   11    2    4    -26.81      0.00
   11    2    5     -8.45      0.00
   11    2    6     -5.88      0.00
   11    2    7     -5.50      0.00
   11    2    8     -0.47      0.00
   11    2    9      1.18      0.00
   11    2   10      0.47      0.00
   11    2   11      1.07      0.00
   11    2   12     -5.28      0.00
   11    2   13     -0.44      0.00
   11    2   14      0.81      0.00
   11    2   15     -0.24      0.00
  -11    3   18      1.20      0.00
  -11    3   17      1.84      0.00
  -11    3   16      3.71      0.00
  -11    3   15     -1.62      0.00
  -11    3   14      2.57      0.00
  -11    3   13      1.62      0.00
  -11    3   12     -3.99      0.00
  -11    3   11      5.04      0.00
  -11    3   10      8.65      0.00
  -11    3    9      4.04      0.00
  -11    3    8     11.00      0.00
  -11    3    7      0.76      0.00
  -11    3    6      0.88      0.00
  -11    3    5      4.13      0.00
  -11    3    4      2.84      0.00
  -11    3    3     -0.94      0.00
  -11    3    2     19.24      0.00
  -11    3    1     -6.74      0.00
   11    3    0     15.26      0.00
   11    3    1      2.11      0.00
   11    3    2     14.50      0.00
   11    3    3     10.59      0.00
   11    3    4      0.10      0.00
   11    3    5     -2.46      0.00
   11    3    6      2.99      0.00
   11    3    7     -2.02      0.00
   11    3    8      4.67      0.00
   11    3    9     -1.57      0.00
   11    3   10     -2.77      0.00
   11    3   11      1.82      0.00
   11    3   12     -1.39      0.00
   11    3   13      1.33      0.00
   11    3   14      2.92      0.00
   11    3   15     -1.23      0.00
  -11    4   17     -2.07      0.00
  -11    4   16     -0.37      0.00
  -11    4   15     -2.61      0.00
  -11    4   14      1.69      0.00
  -11    4   13      1.47      0.00
  -11    4   12     -0.80      0.00
  -11    4   11      3.33      0.00
  -11    4   10     -6.98      0.00
  -11    4    9     -2.55      0.00
  -11    4    8     13.25      0.00
  -11    4    7     -6.66      0.00
  -11    4    6      3.11      0.00
  -11    4    5     -6.13      0.00
  -11    4    4      8.11      0.00
  -11    4    3     -1.97      0.00
  -11    4    2     12.16      0.00
  -11    4    1     -1.19      0.00
   11    4    0     24.26      0.00
   11    4    1     -4.70      0.00
   11    4    2     -2.63      0.00
   11    4    3      3.86      0.00
   11    4    4     18.25      0.00
   11    4    5      8.05      0.00
   11    4    6      8.05      0.00
   11    4    7      5.05      0.00
   11    4    8      0.91      0.00
   11    4    9     -0.14      0.00
   11    4   10     -1.46      0.00
   11    4   11      4.50      0.00
   11    4   12      0.96      0.00
   11    4   13      0.21      0.00
   11    4   14      0.08      0.00
   11    4   15     -1.69      0.00
  -11    5   17     -0.67      0.00
  -11    5   16      0.64      0.00
  -11    5   15      0.43      0.00
  -11    5   14     -2.61      0.00
  -11    5   13     -0.63      0.00
  -11    5   12      0.81      0.00
  -11    5   11      1.84      0.00
  -11    5   10     -6.17      0.00
  -11    5    9     -4.09      0.00
  -11    5    8     -1.80      0.00
  -11    5    7     -5.34      0.00
  -11    5    6      8.96      0.00
  -11    5    5     -2.18      0.00
  -11    5    4      2.13      0.00
  -11    5    3      0.53      0.00
  -11    5    2    -18.40      0.00
  -11    5    1     -3.46      0.00
   11    5    0     -3.21      0.00
   11    5    1     -2.08      0.00
   11    5    2     -9.74      0.00
   11    5    3     -5.60      0.00
   11    5    4     -2.76      0.00
   11    5    5     -5.21      0.00
   11    5    6     -8.48      0.00
   11    5    7     -1.01      0.00
   11    5    8     -6.05      0.00
   11    5    9      3.79      0.00
   11    5   10     -3.15      0.00
   11    5   11     -2.19      0.00
   11    5   12     -1.16      0.00
   11    5   13     -2.62      0.00
   11    5   14      1.88      0.00
   11    5   15      0.36      0.00
  -11    6   17     -1.01      0.00
  -11    6   16      0.43      0.00
  -11    6   15     -1.43      0.00
  -11    6   14     -0.42      0.00
  -11    6   13     -0.50      0.00
  -11    6   12      0.84      0.00
  -11    6   11     -2.87      0.00
  -11    6   10      5.02      0.00
  -11    6    9     -1.27      0.00
  -11    6    8     -3.23      0.00
  -11    6    7     -6.22      0.00
  -11    6    6      2.10      0.00
  -11    6    5     -3.70      0.00
  -11    6    4     -2.07      0.00
  -11    6    3      6.36      0.00
  -11    6    2     -0.84      0.00
  -11    6    1     16.31      0.00
   11    6    0    -11.82      0.00
   11    6    1      2.56      0.00
   11    6    2     11.19      0.00
   11    6    3     -2.96      0.00
   11    6    4     -4.31      0.00
   11    6    5     -5.45      0.00
   11    6    6      2.08      0.00
   11    6    7     -0.75      0.00
   11    6    8     -3.85      0.00
   11    6    9      6.03      0.00
   11    6   10      0.26      0.00
   11    6   11     -0.36      0.00
   11    6   12      4.95      0.00
   11    6   13     -2.51      0.00
   11    6   14      2.18      0.00
  -11    7   17      1.12      0.00
  -11    7   16      1.52      0.00
  -11    7   15      0.64      0.00
  -11    7   14      3.27      0.00
  -11    7   13     -2.68      0.00
  -11    7   12     -0.64      0.00
  -11    7   11     -4.58      0.00
  -11    7   10      6.11      0.00
  -11    7    9      1.13      0.00
  -11    7    8      4.22      0.00
  -11    7    7      0.04      0.00
  -11    7    6      3.68      0.00
  -11    7    5     -3.16      0.00
  -11    7    4     -2.63      0.00
  -11    7    3     -8.79      0.00
  -11    7    2     -0.52      0.00
  -11    7    1     -0.13      0.00
   11    7    0      8.12      0.00
   11    7    1     -3.46      0.00
   11    7    2      5.71      0.00
   11    7    3     -3.77      0.00
   11    7    4      7.81      0.00
   11    7    5     -4.47      0.00
   11    7    6     10.45      0.00
   11    7    7     -0.72      0.00
   11    7    8      0.78      0.00
   11    7    9      0.24      0.00
   11    7   10     -1.75      0.00
   11    7   11     -2.52      0.00
   11    7   12      0.10      0.00
   11    7   13     -3.78      0.00
   11    7   14     -0.57      0.00
  -11    8   16     -2.26      0.00
  -11    8   15     -0.23      0.00
  -11    8   14      1.60      0.00
  -11    8   13      1.90      0.00
  -11    8   12      4.17      0.00
  -11    8   11      1.97      0.00
  -11    8   10     -2.57      0.00
  -11    8    9      4.40      0.00
  -11    8    8     -3.13      0.00
  -11    8    7      3.32      0.00
  -11    8    6     -0.72      0.00
  -11    8    5     -1.25      0.00
  -11    8    4      9.50      0.00
  -11    8    3      6.69      0.00
  -11    8    2      1.47      0.00
  -11    8    1     -4.82      0.00
   11    8    0      6.53      0.00
   11    8    1     -2.52      0.00
   11    8    2     -9.24      0.00
   11    8    3     -1.93      0.00
   11    8    4      4.90      0.00
   11    8    5     -3.35      0.00
   11    8    6      0.37      0.00
   11    8    7      0.02      0.00
   11    8    8      2.32      0.00
   11    8    9     -0.88      0.00
   11    8   10      0.32      0.00
   11    8   11      2.89      0.00
   11    8   12      0.49      0.00
   11    8   13      2.74      0.00
   11    8   14      0.82      0.00
  -11    9   16      0.27      0.00
  -11    9   15     -0.22      0.00
  -11    9   14     -3.97      0.00
  -11    9   13     -1.59      0.00
  -11    9   12     -1.83      0.00
  -11    9   11      0.87      0.00
  -11    9   10     -5.82      0.00
  -11    9    9      4.61      0.00
  -11    9    8     -6.85      0.00
  -11    9    7      6.93      0.00
  -11    9    6     -1.98      0.00
  -11    9    5     -5.82      0.00
  -11    9    4     -0.30      0.00
  -11    9    3     -1.53      0.00
  -11    9    2     -5.64      0.00
  -11    9    1      0.73      0.00
   11    9    0     -0.94      0.00
   11    9    1      4.15      0.00
   11    9    2     -0.16      0.00
   11    9    3      2.89      0.00
   11    9    4      1.81      0.00
   11    9    5      2.35      0.00
   11    9    6     -3.36      0.00
   11    9    7     -0.26      0.00
   11    9    8     -0.91      0.00
   11    9    9     -1.67      0.00
   11    9   10     -1.67      0.00
   11    9   11      0.83      0.00
   11    9   12     -2.55      0.00
   11    9   13      0.95      0.00
  -11   10   15      1.69      0.00
  -11   10   14      1.07      0.00
  -11   10   13      2.20      0.00
  -11   10   12      0.28      0.00
  -11   10   11      0.03      0.00
  -11   10   10      0.84      0.00
  -11   10    9     -3.11      0.00
  -11   10    8     -1.46      0.00
  -11   10    7     -1.39      0.00
  -11   10    6      3.15      0.00
  -11   10    5      1.46      0.00
  -11   10    4      3.32      0.00
  -11   10    3     -8.01      0.00
  -11   10    2      5.04      0.00
  -11   10    1      7.33      0.00
   11   10    0     -3.91      0.00
   11   10    1     -3.66      0.00
   11   10    2      7.60      0.00
   11   10    3     -3.00      0.00
   11   10    4      0.55      0.00
   11   10    5     -2.81      0.00
   11   10    6      1.81      0.00
   11   10    7     -3.08      0.00
   11   10    8      0.76      0.00
   11   10    9     -0.17      0.00
   11   10   10      2.51      0.00
   11   10   11      0.71      0.00
   11   10   12      1.03      0.00
   11   10   13     -0.90      0.00
  -11   11   15     -1.18      0.00
  -11   11   14     -0.31      0.00
  -11   11   13     -0.38      0.00
  -11   11   12     -0.42      0.00
  -11   11   11      0.12      0.00
  -11   11   10      4.25      0.00
  -11   11    9     -2.20      0.00
  -11   11    8      6.52      0.00
  -11   11    7     -9.50      0.00
  -11   11    6     -0.25      0.00
  -11   11    5      1.15      0.00
  -11   11    4      1.74      0.00
  -11   11    3     -1.81      0.00
  -11   11    2      6.15      0.00
  -11   11    1     -4.26      0.00
   11   11    0      4.15      0.00
   11   11    1     -3.61      0.00
   11   11    2      5.29      0.00
   11   11    3     -5.65      0.00
   11   11    4     -0.79      0.00
   11   11    5     -4.14      0.00
   11   11    6      3.71      0.00
   11   11    7     -1.39      0.00
   11   11    8      3.68      0.00
   11   11    9      1.02      0.00
   11   11   10      1.74      0.00
   11   11   11     -3.51      0.00
   11   11   12      0.45      0.00
  -11   12   14      0.16      0.00
  -11   12   13     -0.25      0.00
  -11   12   12     -3.58      0.00
  -11   12   11     -1.13      0.00
  -11   12   10     -4.87      0.00
  -11   12    9     -0.16      0.00
  -11   12    8      3.01      0.00
  -11   12    7      0.44      0.00
  -11   12    6      0.82      0.00
  -11   12    5      2.09      0.00
  -11   12    4     -9.44      0.00
  -11   12    3      6.41      0.00
  -11   12    2     -2.62      0.00
  -11   12    1     -6.00      0.00
   11   12    0      5.44      0.00
   11   12    1     -3.05      0.00
   11   12    2     -2.42      0.00
   11   12    3     -0.89      0.00
   11   12    4      0.45      0.00
   11   12    5      3.13      0.00
   11   12    6      1.00      0.00
   11   12    7      0.15      0.00
   11   12    8     -1.82      0.00
   11   12    9     -2.39      0.00
   11   12   10     -1.93      0.00
   11   12   11     -0.20      0.00
  -11   13   13      2.43      0.00
  -11   13   12      0.64      0.00
  -11   13   11      4.76      0.00
  -11   13   10      0.10      0.00
  -11   13    9      3.61      0.00
  -11   13    8     -3.55      0.00
  -11   13    7      5.01      0.00
  -11   13    6     -1.66      0.00
  -11   13    5      4.42      0.00
  -11   13    4     -4.46      0.00
  -11   13    3      8.29      0.00
  -11   13    2     -3.20      0.00
  -11   13    1     -1.67      0.00
   11   13    0     -2.95      0.00
   11   13    1      0.19      0.00
   11   13    2     -1.48      0.00
   11   13    3      5.39      0.00
   11   13    4      1.01      0.00
   11   13    5      1.20      0.00
   11   13    6     -2.54      0.00
   11   13    7     -1.36      0.00
   11   13    8     -0.46      0.00
   11   13    9      1.07      0.00
   11   13   10     -0.82      0.00
   11   13   11     -1.05      0.00
  -11   14   12     -0.45      0.00
  -11   14   11     -0.47      0.00
  -11   14   10      1.79      0.00
  -11   14    9     -0.66      0.00
  -11   14    8     -2.94      0.00
  -11   14    7      1.49      0.00
  -11   14    6     -2.30      0.00
  -11   14    5     -0.77      0.00
  -11   14    4      2.28      0.00
  -11   14    3     -2.13      0.00
  -11   14    2      1.56      0.00
  -11   14    1      2.38      0.00
   11   14    0      1.31      0.00
   11   14    1      4.98      0.00
   11   14    2     -2.03      0.00
   11   14    3      0.13      0.00
   11   14    4     -2.13      0.00
   11   14    5     -0.93      0.00
   11   14    6      2.17      0.00
   11   14    7      0.27      0.00
   11   14    8      2.95      0.00
   11   14    9      1.17      0.00
   11   14   10      1.91      0.00
  -11   15   11     -2.93      0.00
  -11   15   10      0.14      0.00
  -11   15    9     -1.86      0.00
  -11   15    8      1.48      0.00
  -11   15    7      1.11      0.00
  -11   15    6      1.59      0.00
  -11   15    5     -2.03      0.00
  -11   15    4      2.12      0.00
  -11   15    3     -6.54      0.00
  -11   15    2      0.58      0.00
  -11   15    1     -0.24      0.00
   11   15    0     -0.87      0.00
   11   15    1      0.65      0.00
   11   15    2      0.46      0.00
   11   15    3     -0.72      0.00
   11   15    4     -0.58      0.00
   11   15    5      0.01      0.00
   11   15    6      0.40      0.00
   11   15    7     -3.72      0.00
   11   15    8     -0.28      0.00
   11   15    9     -2.96      0.00
  -11   16    9      0.08      0.00
  -11   16    8     -1.66      0.00
  -11   16    7     -2.50      0.00
  -11   16    6     -2.31      0.00
  -11   16    5      0.18      0.00
  -11   16    4      1.43      0.00
  -11   16    3      0.88      0.00
  -11   16    2      1.26      0.00
  -11   16    1     -1.79      0.00
   11   16    0     -3.62      0.00
   11   16    1     -2.87      0.00
   11   16    2      0.54      0.00
   11   16    3      0.74      0.00
   11   16    4     -0.98      0.00
   11   16    5      0.90      0.00
   11   16    6      0.39      0.00
   11   16    7      0.62      0.00
  -11   17    8      1.86      0.00
  -11   17    7      2.46      0.00
  -11   17    6      0.39      0.00
  -11   17    5      1.19      0.00
  -11   17    4     -1.25      0.00
  -11   17    3      1.54      0.00
  -11   17    2     -0.29      0.00
  -11   17    1      0.91      0.00
   11   17    0      1.69      0.00
   11   17    1      1.25      0.00
   11   17    2     -1.76      0.00
   11   17    3      1.57      0.00
   11   17    4     -1.44      0.00
   11   17    5      0.72      0.00
   11   17    6     -0.76      0.00
  -11   18    6      0.83      0.00
  -11   18    5     -0.47      0.00
  -11   18    4     -1.82      0.00
  -11   18    3      0.41      0.00
  -11   18    2     -1.40      0.00
  -11   18    1      2.27      0.00
   11   18    0      2.08      0.00
   11   18    1      2.51      0.00
   11   18    2     -1.53      0.00
   11   18    3      1.59      0.00
   11   18    4     -0.36      0.00
  -12    0   18     -0.27      0.00
  -12    0   16     -1.04      0.00
  -12    0   14     -0.03      0.00
  -12    0   12      1.71      0.00
  -12    0   10      6.09      0.00
  -12    0    8     12.15      0.00
  -12    0    6     16.16      0.00
  -12    0    4      2.63      0.00
  -12    0    2     29.09      0.00
   12    0    0     26.58      0.00
   12    0    2     24.83      0.00
   12    0    4     11.28      0.00
   12    0    6     11.14      0.00
   12    0    8     -3.74      0.00
   12    0   10      2.98      0.00
   12    0   12      3.52      0.00
   12    0   14      0.25      0.00
  -12    1   18      1.20      0.00
  -12    1   17     -0.25      0.00
  -12    1   16     -4.59      0.00
  -12    1   15     -0.68      0.00
  -12    1   14     -1.34      0.00
  -12    1   13      0.64      0.00
  -12    1   12      3.16      0.00
  -12    1   11     -2.08      0.00
  -12    1   10     -0.19      0.00
  -12    1    9     -6.75      0.00
  -12    1    8    -11.41      0.00
  -12    1    7     -5.42      0.00
  -12    1    6      6.13      0.00
  -12    1    5      0.57      0.00
  -12    1    4     -1.31      0.00
  -12    1    3     -1.22      0.00
  -12    1    2     -2.08      0.00
  -12    1    1     -6.58      0.00
   12    1    0    -11.35      0.00
   12    1    1     -2.25      0.00
   12    1    2    -12.65      0.00
   12    1    3      1.67      0.00
   12    1    4     13.22      0.00
   12    1    5     -2.11      0.00
   12    1    6      1.47      0.00
   12    1    7      0.71      0.00
   12    1    8     -3.16      0.00
   12    1    9      1.30      0.00
   12    1   10     -0.71      0.00
   12    1   11     -0.42      0.00
   12    1   12      1.90      0.00
   12    1   13      0.58      0.00
   12    1   14     -3.29      0.00
   12    1   15      0.82      0.00
  -12    2   18     -0.55      0.00
  -12    2   17      0.84      0.00
  -12    2   16      3.02      0.00
  -12    2   15      1.70      0.00
  -12    2   14      0.39      0.00
  -12    2   13     -3.12      0.00
  -12    2   12     -0.65      0.00
  -12    2   11     -1.38      0.00
  -12    2   10      1.31      0.00
  -12    2    9      3.21      0.00
  -12    2    8     -2.19      0.00
  -12    2    7      0.92      0.00
  -12    2    6    -10.84      0.00
  -12    2    5     -0.99      0.00
  -12    2    4     -1.77      0.00
  -12    2    3      2.83      0.00
  -12    2    2    -20.48      0.00
  -12    2    1     -4.22      0.00
   12    2    0    -15.88      0.00
   12    2    1     10.18      0.00
   12    2    2    -25.14      0.00
   12    2    3     -6.90      0.00
   12    2    4    -10.65      0.00
   12    2    5     -9.70      0.00
   12    2    6     -7.90      0.00
   12    2    7      0.99      0.00
   12    2    8      3.17      0.00
   12    2    9     -2.33      0.00
   12    2   10     -3.60      0.00
   12    2   11     -0.60      0.00
   12    2   12     -1.95      0.00
   12    2   13      3.81      0.00
   12    2   14     -3.27      0.00
   12    2   15      3.63      0.00
  -12    3   17     -0.57      0.00
  -12    3   16      2.06      0.00
  -12    3   15     -1.42      0.00
  -12    3   14      3.92      0.00
  -12    3   13     -1.02      0.00
  -12    3   12      2.11      0.00
  -12    3   11     -0.91      0.00
  -12    3   10     -2.30      0.00
  -12    3    9      5.47      0.00
  -12    3    8      9.26      0.00
  -12    3    7      2.76      0.00
  -12    3    6     -2.60      0.00
  -12    3    5     -6.08      0.00
  -12    3    4      1.20      0.00
  -12    3    3     -3.75      0.00
  -12    3    2      3.98      0.00
  -12    3    1      4.94      0.00
   12    3    0     -5.57      0.00
   12    3    1      3.21      0.00
   12    3    2      9.59      0.00
   12    3    3     -0.86      0.00
   12    3    4      0.40      0.00
   12    3    5      3.58      0.00
   12    3    6     -3.78      0.00
   12    3    7     -5.38      0.00
   12    3    8     -1.30      0.00
   12    3    9      0.16      0.00
   12    3   10      4.45      0.00
   12    3   11      0.06      0.00
   12    3   12     -3.83      0.00
   12    3   13      1.40      0.00
   12    3   14     -3.73      0.00
   12    3   15      3.18      0.00
  -12    4   17     -0.23      0.00
  -12    4   16     -1.25      0.00
  -12    4   15     -2.30      0.00
  -12    4   14     -0.06      0.00
  -12    4   13     -0.52      0.00
  -12    4   12      1.59      0.00
  -12    4   11     -0.52      0.00
  -12    4   10     -2.08      0.00
  -12    4    9     -0.44      0.00
  -12    4    8     -3.76      0.00
  -12    4    7     -4.52      0.00
  -12    4    6     10.99      0.00
  -12    4    5     -1.48      0.00
  -12    4    4      9.61      0.00
  -12    4    3     -4.08      0.00
  -12    4    2     15.41      0.00
  -12    4    1     -4.97      0.00
   12    4    0     -2.00      0.00
   12    4    1     -4.37      0.00
   12    4    2     22.57      0.00
   12    4    3     -2.03      0.00
   12    4    4      7.22      0.00
   12    4    5     10.72      0.00
   12    4    6      6.56      0.00
   12    4    7      8.66      0.00
   12    4    8     -0.13      0.00
   12    4    9      2.57      0.00
   12    4   10      1.83      0.00
   12    4   11     -1.78      0.00
   12    4   12      0.65      0.00
   12    4   13      4.28      0.00
   12    4   14     -0.56      0.00
  -12    5   17     -0.20      0.00
  -12    5   16      0.50      0.00
  -12    5   15      0.25      0.00
  -12    5   14     -2.69      0.00
  -12    5   13      1.47      0.00
  -12    5   12      0.10      0.00
  -12    5   11     -0.69      0.00
  -12    5   10      4.21      0.00
  -12    5    9     -1.59      0.00
  -12    5    8     -6.38      0.00
  -12    5    7      3.56      0.00
  -12    5    6      3.67      0.00
  -12    5    5     -0.77      0.00
  -12    5    4      1.82      0.00
  -12    5    3     -1.69      0.00
  -12    5    2      2.92      0.00
  -12    5    1     12.27      0.00
   12    5    0      6.89      0.00
   12    5    1      4.37      0.00
   12    5    2     -1.18      0.00
   12    5    3     -8.74      0.00
   12    5    4     -5.09      0.00
   12    5    5     -1.06      0.00
   12    5    6     -5.56      0.00
   12    5    7      4.97      0.00
   12    5    8     -4.68      0.00
   12    5    9     -2.21      0.00
   12    5   10     -1.46      0.00
   12    5   11     -0.11      0.00
   12    5   12     -0.90      0.00
   12    5   13     -1.17      0.00
   12    5   14     -2.07      0.00
  -12    6   17     -1.04      0.00
  -12    6   16      1.57      0.00
  -12    6   15      0.93      0.00
  -12    6   14      0.58      0.00
  -12    6   13     -0.29      0.00
  -12    6   12     -1.44      0.00
  -12    6   11     -4.37      0.00
  -12    6   10      3.91      0.00
  -12    6    9     -7.47      0.00
  -12    6    8      0.11      0.00
  -12    6    7      4.58      0.00
  -12    6    6     -9.02      0.00
  -12    6    5      2.91      0.00
  -12    6    4     -0.98      0.00
  -12    6    3     -5.07      0.00
  -12    6    2    -16.68      0.00
  -12    6    1      1.78      0.00
   12    6    0     -4.59      0.00
   12    6    1     -8.00      0.00
   12    6    3      5.11      0.00
   12    6    4      4.03      0.00
   12    6    5     -0.92      0.00
   12    6    6     -9.13      0.00
   12    6    7     -4.26      0.00
   12    6    8     -1.20      0.00
   12    6    9     -0.51      0.00
   12    6   10     -0.13      0.00
   12    6   11      2.46      0.00
   12    6   12      1.01      0.00
   12    6   13     -0.21      0.00
   12    6   14      2.10      0.00
  -12    7   16     -1.22      0.00
  -12    7   15     -1.20      0.00
  -12    7   14      1.11      0.00
  -12    7   13     -1.89      0.00
  -12    7   12      3.12      0.00
  -12    7   11      0.50      0.00
  -12    7   10      5.05      0.00
  -12    7    9      0.98      0.00
  -12    7    8      9.33      0.00
  -12    7    7     -0.70      0.00
  -12    7    6    -11.01      0.00
  -12    7    5      1.36      0.00
  -12    7    4     -0.94      0.00
  -12    7    3      5.71      0.00
  -12    7    2      5.28      0.00
  -12    7    1     -8.69      0.00
   12    7    0     -1.52      0.00
   12    7    1     -5.81      0.00
   12    7    2      4.66      0.00
   12    7    3     -0.07      0.00
   12    7    4     -0.58      0.00
   12    7    5     -0.08      0.00
   12    7    6      5.45      0.00
   12    7    7      1.86      0.00
   12    7    8      6.69      0.00
   12    7    9      3.17      0.00
   12    7   10     -2.73      0.00
   12    7   11     -1.55      0.00
   12    7   12      0.73      0.00
   12    7   13     -1.17      0.00
   12    7   14     -1.35      0.00
  -12    8   16     -0.04      0.00
  -12    8   15      0.38      0.00
  -12    8   14      0.85      0.00
  -12    8   13     -0.79      0.00
  -12    8   12      0.89      0.00
  -12    8   11     -0.36      0.00
  -12    8   10     -5.76      0.00
  -12    8    9      3.01      0.00
  -12    8    8     -2.42      0.00
  -12    8    7      1.95      0.00
  -12    8    6      4.20      0.00
  -12    8    5      5.25      0.00
  -12    8    4     -8.27      0.00
  -12    8    3      2.59      0.00
  -12    8    2      8.91      0.00
  -12    8    1     -2.65      0.00
   12    8    0      6.37      0.00
   12    8    1      7.63      0.00
   12    8    2      1.08      0.00
   12    8    3     -4.58      0.00
   12    8    4     -6.83      0.00
   12    8    5      1.14      0.00
   12    8    6      1.35      0.00
   12    8    7     -2.98      0.00
   12    8    8     -3.26      0.00
   12    8    9      1.54      0.00
   12    8   10     -0.37      0.00
   12    8   11      0.41      0.00
   12    8   12     -0.03      0.00
   12    8   13     -0.14      0.00
  -12    9   15     -0.17      0.00
  -12    9   14      0.63      0.00
  -12    9   13      2.27      0.00
  -12    9   12     -0.05      0.00
  -12    9   11      2.05      0.00
  -12    9   10     -4.59      0.00
  -12    9    9      4.43      0.00
  -12    9    8    -10.29      0.00
  -12    9    7     -0.08      0.00
  -12    9    6      5.55      0.00
  -12    9    5      3.40      0.00
  -12    9    4     -2.75      0.00
  -12    9    3     -0.41      0.00
  -12    9    2     -7.82      0.00
  -12    9    1      1.92      0.00
   12    9    0     -1.36      0.00
   12    9    1      3.06      0.00
   12    9    2     -4.46      0.00
   12    9    3      7.97      0.00
   12    9    4      0.09      0.00
   12    9    5      5.01      0.00
   12    9    6      0.04      0.00
   12    9    7      1.96      0.00
   12    9    8     -2.98      0.00
   12    9    9     -2.60      0.00
   12    9   10      0.60      0.00
   12    9   11      1.33      0.00
   12    9   12     -0.99      0.00
   12    9   13      0.72      0.00
  -12   10   15     -2.39      0.00
  -12   10   14     -2.10      0.00
  -12   10   13     -1.90      0.00
  -12   10   12     -1.15      0.00
  -12   10   11      1.11      0.00
  -12   10   10      1.70      0.00
  -12   10    9      2.92      0.00
  -12   10    8      2.72      0.00
  -12   10    7     -3.31      0.00
  -12   10    6     -1.39      0.00
  -12   10    5     -8.44      0.00
  -12   10    4      4.15      0.00
  -12   10    3      6.73      0.00
  -12   10    2     -2.16      0.00
  -12   10    1      4.99      0.00
   12   10    0      0.41      0.00
   12   10    1     -5.08      0.00
   12   10    2     -2.54      0.00
   12   10    3      4.90      0.00
   12   10    4      1.94      0.00
   12   10    5     -2.64      0.00
   12   10    6     -1.77      0.00
   12   10    7      0.36      0.00
   12   10    8      4.74      0.00
   12   10    9     -1.01      0.00
   12   10   10      3.73      0.00
   12   10   11     -1.11      0.00
   12   10   12      0.34      0.00
  -12   11   14      2.24      0.00
  -12   11   13     -1.72      0.00
  -12   11   12     -0.29      0.00
  -12   11   11     -1.73      0.00
  -12   11   10     -2.14      0.00
  -12   11    9     -6.26      0.00
  -12   11    8      4.44      0.00
  -12   11    7     -2.34      0.00
  -12   11    6      4.18      0.00
  -12   11    5     -2.62      0.00
  -12   11    4      0.89      0.00
  -12   11    3     -0.18      0.00
  -12   11    2     -6.58      0.00
  -12   11    1     -4.36      0.00
   12   11    0      2.77      0.00
   12   11    1     -2.37      0.00
   12   11    2      2.38      0.00
   12   11    3     -4.89      0.00
   12   11    4      0.58      0.00
   12   11    5     -3.19      0.00
   12   11    6      0.65      0.00
   12   11    7     -2.15      0.00
   12   11    8      0.23      0.00
   12   11    9     -3.16      0.00
   12   11   10      1.30      0.00
   12   11   11     -2.60      0.00
   12   11   12      0.09      0.00
  -12   12   14      0.48      0.00
  -12   12   13      1.61      0.00
  -12   12   12      0.97      0.00
  -12   12   11      3.10      0.00
  -12   12   10      0.08      0.00
  -12   12    9      1.60      0.00
  -12   12    8     -0.48      0.00
  -12   12    7      0.90      0.00
  -12   12    6     -1.26      0.00
  -12   12    5      3.24      0.00
  -12   12    4     -2.22      0.00
  -12   12    3      2.73      0.00
  -12   12    2     -0.74      0.00
  -12   12    1      5.64      0.00
   12   12    0      0.09      0.00
   12   12    1      3.48      0.00
   12   12    2      2.13      0.00
   12   12    3     -5.53      0.00
   12   12    4     -1.72      0.00
   12   12    5     -0.98      0.00
   12   12    6     -0.09      0.00
   12   12    7      1.02      0.00
   12   12    8      0.15      0.00
   12   12    9      1.41      0.00
   12   12   10      1.31      0.00
   12   12   11      1.08      0.00
  -12   13   13      1.43      0.00
  -12   13   12     -3.60      0.00
  -12   13   11      1.37      0.00
  -12   13   10     -0.98      0.00
  -12   13    9      4.94      0.00
  -12   13    8     -2.10      0.00
  -12   13    7      5.00      0.00
  -12   13    6     -5.35      0.00
  -12   13    5      3.58      0.00
  -12   13    4     -2.86      0.00
  -12   13    3      0.16      0.00
  -12   13    2      0.13      0.00
  -12   13    1      5.30      0.00
   12   13    0      2.15      0.00
   12   13    1      1.12      0.00
   12   13    2     -0.27      0.00
   12   13    3      3.55      0.00
   12   13    4      2.81      0.00
   12   13    5      4.16      0.00
   12   13    6      0.69      0.00
   12   13    7      0.98      0.00
   12   13    8     -1.25      0.00
   12   13    9     -2.44      0.00
   12   13   10     -3.58      0.00
  -12   14   12     -0.89      0.00
  -12   14   11      1.33      0.00
  -12   14   10     -1.22      0.00
  -12   14    9     -2.72      0.00
  -12   14    8     -1.67      0.00
  -12   14    7      1.51      0.00
  -12   14    6     -2.02      0.00
  -12   14    5      2.91      0.00
  -12   14    4      1.44      0.00
  -12   14    3     -1.89      0.00
  -12   14    2      2.30      0.00
  -12   14    1     -1.60      0.00
   12   14    0     -2.17      0.00
   12   14    1     -5.66      0.00
   12   14    2     -2.02      0.00
   12   14    3      1.78      0.00
   12   14    4     -1.05      0.00
   12   14    5     -0.01      0.00
   12   14    6     -1.09      0.00
   12   14    7     -1.24      0.00
   12   14    8      0.61      0.00
   12   14    9      2.68      0.00
  -12   15   11      0.23      0.00
  -12   15   10      1.44      0.00
  -12   15    9     -1.23      0.00
  -12   15    8      1.12      0.00
  -12   15    7     -1.08      0.00
  -12   15    6      0.17      0.00
  -12   15    5     -0.10      0.00
  -12   15    4     -0.20      0.00
  -12   15    3     -2.61      0.00
  -12   15    2      1.61      0.00
  -12   15    1     -4.60      0.00
   12   15    0      2.09      0.00
   12   15    1      1.76      0.00
   12   15    2      3.05      0.00
   12   15    3      0.75      0.00
   12   15    4     -2.30      0.00
   12   15    5     -2.27      0.00
   12   15    6      1.29      0.00
   12   15    7     -0.27      0.00
   12   15    8     -0.55      0.00
  -12   16    9      1.13      0.00
  -12   16    8      0.29      0.00
  -12   16    7     -0.27      0.00
  -12   16    6      0.21      0.00
  -12   16    5     -1.16      0.00
  -12   16    4     -1.68      0.00
  -12   16    3      1.29      0.00
  -12   16    2      1.07      0.00
  -12   16    1     -0.31      0.00
   12   16    0      1.27      0.00
   12   16    1     -0.03      0.00
   12   16    2     -4.18      0.00
   12   16    3      0.35      0.00
   12   16    4     -0.74      0.00
   12   16    5     -0.73      0.00
   12   16    6      1.03      0.00
   12   16    7      0.37      0.00
  -12   17    8     -0.45      0.00
  -12   17    7     -1.61      0.00
  -12   17    6      1.08      0.00
  -12   17    5      0.78      0.00
  -12   17    4     -0.97      0.00
  -12   17    3      1.46      0.00
  -12   17    2     -2.41      0.00
  -12   17    1      2.28      0.00
   12   17    0     -1.63      0.00
   12   17    1      2.11      0.00
   12   17    2     -2.38      0.00
   12   17    3      3.11      0.00
   12   17    4      1.57      0.00
   12   17    5      1.17      0.00
  -12   18    5      0.55      0.00
  -12   18    4      0.96      0.00
  -12   18    3      1.88      0.00
  -12   18    2     -2.32      0.00
  -12   18    1      1.76      0.00
   12   18    0     -2.90      0.00
   12   18    1      2.97      0.00
   12   18    2      0.78      0.00
  -13    0   16     -2.03      0.00
  -13    0   14     -3.03      0.00
  -13    0   12      7.28      0.00
  -13    0   10      6.82      0.00
  -13    0    8      8.11      0.00
  -13    0    6      9.98      0.00
  -13    0    4     11.22      0.00
  -13    0    2      5.22      0.00
   13    0    0     17.59      0.00
   13    0    2     20.99      0.00
   13    0    4     18.09      0.00
   13    0    6      1.54      0.00
   13    0    8      4.15      0.00
   13    0   10      2.95      0.00
   13    0   12      0.06      0.00
   13    0   14      3.84      0.00
  -13    1   17     -0.43      0.00
  -13    1   16     -1.40      0.00
  -13    1   15      2.09      0.00
  -13    1   14     -4.44      0.00
  -13    1   13     -0.75      0.00
  -13    1   12      1.05      0.00
  -13    1   11     -4.12      0.00
  -13    1   10      1.90      0.00
  -13    1    9     -2.78      0.00
  -13    1    8     -6.52      0.00
  -13    1    7     -0.51      0.00
  -13    1    6    -11.64      0.00
  -13    1    5     -1.36      0.00
  -13    1    4      6.22      0.00
  -13    1    3      0.46      0.00
  -13    1    2     -4.70      0.00
  -13    1    1      3.37      0.00
   13    1    0     -3.66      0.00
   13    1    1     -3.03      0.00
   13    1    2     -2.98      0.00
   13    1    3     -3.83      0.00
   13    1    4     -3.87      0.00
   13    1    5      1.46      0.00
   13    1    6      3.30      0.00
   13    1    7      0.40      0.00
   13    1    8     -2.60      0.00
   13    1    9     -2.55      0.00
   13    1   10     -0.69      0.00
   13    1   11     -0.37      0.00
   13    1   12      1.00      0.00
   13    1   13     -0.72      0.00
   13    1   14      1.89      0.00
  -13    2   17      0.24      0.00
  -13    2   16      0.63      0.00
  -13    2   15      2.73      0.00
  -13    2   14      1.72      0.00
  -13    2   13      1.84      0.00
  -13    2   12     -2.14      0.00
  -13    2   11     -1.98      0.00
  -13    2   10     -0.31      0.00
  -13    2    9     -1.91      0.00
  -13    2    8     -6.23      0.00
  -13    2    7      6.47      0.00
  -13    2    6     -8.57      0.00
  -13    2    5      5.62      0.00
  -13    2    4     -9.67      0.00
  -13    2    3     -4.99      0.00
  -13    2    2     -8.84      0.00
  -13    2    1     -1.72      0.00
   13    2    0    -18.13      0.00
   13    2    1     -9.85      0.00
   13    2    2    -15.48      0.00
   13    2    3     -0.68      0.00
   13    2    4    -17.65      0.00
   13    2    5     -4.34      0.00
   13    2    6     -2.01      0.00
   13    2    7     -5.00      0.00
   13    2    8      0.79      0.00
   13    2    9     -0.83      0.00
   13    2   10      2.06      0.00
   13    2   11      0.92      0.00
   13    2   12     -0.87      0.00
   13    2   13     -0.07      0.00
   13    2   14     -0.52      0.00
  -13    3   17      0.98      0.00
  -13    3   16     -1.08      0.00
  -13    3   15     -2.32      0.00
  -13    3   14      2.01      0.00
  -13    3   13     -1.21      0.00
  -13    3   12     -2.13      0.00
  -13    3   11      1.32      0.00
  -13    3   10      0.81      0.00
  -13    3    9      1.67      0.00
  -13    3    8      2.28      0.00
  -13    3    7     -0.71      0.00
  -13    3    6      0.93      0.00
  -13    3    5      1.83      0.00
  -13    3    4     -5.53      0.00
  -13    3    3      1.02      0.00
  -13    3    2     15.12      0.00
  -13    3    1     -2.66      0.00
   13    3    0      9.12      0.00
   13    3    1      6.46      0.00
   13    3    2     10.06      0.00
   13    3    3     13.07      0.00
   13    3    4      2.34      0.00
   13    3    5     -2.27      0.00
   13    3    6      1.03      0.00
   13    3    7     -3.88      0.00
   13    3    8      5.25      0.00
   13    3    9     -3.34      0.00
   13    3   10      0.34      0.00
   13    3   11      0.08      0.00
   13    3   12     -2.66      0.00
   13    3   13      1.68      0.00
   13    3   14     -1.84      0.00
  -13    4   17      1.46      0.00
  -13    4   16     -0.99      0.00
  -13    4   15     -0.20      0.00
  -13    4   14     -0.09      0.00
  -13    4   13      0.28      0.00
  -13    4   12      1.92      0.00
  -13    4   11      3.01      0.00
  -13    4   10     -1.93      0.00
  -13    4    9      3.29      0.00
  -13    4    8      7.90      0.00
  -13    4    7      0.19      0.00
  -13    4    6      7.49      0.00
  -13    4    5     -2.19      0.00
  -13    4    4      4.28      0.00
  -13    4    3     -0.91      0.00
  -13    4    2      6.77      0.00
  -13    4    1     -0.79      0.00
   13    4    0     15.88      0.00
   13    4    1     -0.48      0.00
   13    4    3     -1.68      0.00
   13    4    4      8.73      0.00
   13    4    5      4.92      0.00
   13    4    6      6.60      0.00
   13    4    7      2.28      0.00
   13    4    8     -0.14      0.00
   13    4    9     -2.49      0.00
   13    4   10     -0.99      0.00
   13    4   11      1.89      0.00
   13    4   12     -0.59      0.00
   13    4   13      2.58      0.00
   13    4   14     -1.33      0.00
  -13    5   17      0.65      0.00
  -13    5   16     -0.75      0.00
  -13    5   15      2.87      0.00
  -13    5   14     -2.70      0.00
  -13    5   13      1.00      0.00
  -13    5   12      0.12      0.00
  -13    5   11      1.63      0.00
  -13    5   10     -3.38      0.00
  -13    5    9     -3.76      0.00
  -13    5    8     -4.80      0.00
  -13    5    7     -3.48      0.00
  -13    5    6      0.24      0.00
  -13    5    5      2.44      0.00
  -13    5    4      7.32      0.00
  -13    5    3      4.00      0.00
  -13    5    2    -15.44      0.00
  -13    5    1     -0.88      0.00
   13    5    0     -3.53      0.00
   13    5    2     -3.85      0.00
   13    5    3     -5.23      0.00
   13    5    4     -2.13      0.00
   13    5    5     -2.63      0.00
   13    5    6     -2.03      0.00
   13    5    7      1.31      0.00
   13    5    8     -1.35      0.00
   13    5    9      6.86      0.00
   13    5   10      0.82      0.00
   13    5   11     -1.19      0.00
   13    5   12     -0.87      0.00
   13    5   13      0.12      0.00
   13    5   14      1.15      0.00
  -13    6   16     -0.58      0.00
  -13    6   15      0.67      0.00
  -13    6   14     -2.71      0.00
  -13    6   13     -1.35      0.00
  -13    6   12     -1.66      0.00
  -13    6   11     -1.21      0.00
  -13    6   10      2.17      0.00
  -13    6    9     -0.62      0.00
  -13    6    8      0.56      0.00
  -13    6    7     -3.61      0.00
  -13    6    6     -5.31      0.00
  -13    6    5     -4.76      0.00
  -13    6    4     -7.87      0.00
  -13    6    3      4.41      0.00
  -13    6    2     -4.27      0.00
  -13    6    1      6.38      0.00
   13    6    0     -9.66      0.00
   13    6    1      2.10      0.00
   13    6    2     10.58      0.00
   13    6    3     -0.93      0.00
   13    6    4     -0.90      0.00
   13    6    5     -5.07      0.00
   13    6    6     -0.18      0.00
   13    6    7     -4.11      0.00
   13    6    8     -5.63      0.00
   13    6    9     -1.24      0.00
   13    6   10     -1.98      0.00
   13    6   11     -1.93      0.00
   13    6   12      0.76      0.00
   13    6   13     -2.17      0.00
  -13    7   16      0.04      0.00
  -13    7   15      1.21      0.00
  -13    7   14      2.30      0.00
  -13    7   13      0.32      0.00
  -13    7   12      1.82      0.00
  -13    7   11     -3.39      0.00
  -13    7   10      1.66      0.00
  -13    7    9      1.67      0.00
  -13    7    8      4.44      0.00
  -13    7    7      1.57      0.00
  -13    7    6      8.17      0.00
  -13    7    5      1.06      0.00
  -13    7    4     -5.81      0.00
  -13    7    3     -2.63      0.00
  -13    7    2      4.58      0.00
  -13    7    1      4.38      0.00
   13    7    0      0.23      0.00
   13    7    1     -4.56      0.00
   13    7    2     -0.08      0.00
   13    7    3     -2.35      0.00
   13    7    4      8.31      0.00
   13    7    5     -0.57      0.00
   13    7    6      6.29      0.00
   13    7    7      1.57      0.00
   13    7    8      6.04      0.00
   13    7    9      0.41      0.00
   13    7   10      2.12      0.00
   13    7   11      1.68      0.00
   13    7   12      1.54      0.00
   13    7   13     -0.87      0.00
  -13    8   16     -1.54      0.00
  -13    8   15     -0.23      0.00
  -13    8   14      0.61      0.00
  -13    8   13      0.91      0.00
  -13    8   12      2.71      0.00
  -13    8   11     -0.03      0.00
  -13    8   10     -1.18      0.00
  -13    8    9      2.65      0.00
  -13    8    8     -7.30      0.00
  -13    8    7      0.79      0.00
  -13    8    6     -0.26      0.00
  -13    8    5      0.49      0.00
  -13    8    4      8.21      0.00
  -13    8    3      2.82      0.00
  -13    8    2     -3.35      0.00
  -13    8    1     -3.39      0.00
   13    8    0      2.95      0.00
   13    8    1      3.56      0.00
   13    8    2     -6.58      0.00
   13    8    3     -1.62      0.00
   13    8    4     -1.86      0.00
   13    8    5     -3.55      0.00
   13    8    6     -3.36      0.00
   13    8    7      0.30      0.00
   13    8    8      1.39      0.00
   13    8    9     -1.81      0.00
   13    8   10     -1.96      0.00
   13    8   11      0.49      0.00
   13    8   12      0.59      0.00
   13    8   13      0.08      0.00
  -13    9   15     -0.55      0.00
  -13    9   14     -2.61      0.00
  -13    9   13     -0.82      0.00
  -13    9   12     -1.68      0.00
  -13    9   11      1.87      0.00
  -13    9   10     -2.22      0.00
  -13    9    9      4.15      0.00
  -13    9    8     -3.26      0.00
  -13    9    7      7.96      0.00
  -13    9    6     -7.07      0.00
  -13    9    5     -5.31      0.00
  -13    9    4      2.74      0.00
  -13    9    3     -0.82      0.00
  -13    9    2     -3.19      0.00
  -13    9    1      2.99      0.00
   13    9    0     -0.69      0.00
   13    9    1      6.00      0.00
   13    9    2      0.00      0.00
   13    9    3      2.46      0.00
   13    9    4     -1.14      0.00
   13    9    5      4.46      0.00
   13    9    6     -0.78      0.00
   13    9    7     -0.34      0.00
   13    9    8     -4.34      0.00
   13    9    9      0.91      0.00
   13    9   10     -0.97      0.00
   13    9   11      0.20      0.00
   13    9   12     -0.56      0.00
  -13   10   15      1.30      0.00
  -13   10   14      0.83      0.00
  -13   10   13     -0.10      0.00
  -13   10   12     -1.83      0.00
  -13   10   11      1.80      0.00
  -13   10   10     -0.64      0.00
  -13   10    9     -4.09      0.00
  -13   10    8      0.92      0.00
  -13   10    7     -1.43      0.00
  -13   10    6      1.77      0.00
  -13   10    5      3.69      0.00
  -13   10    4      0.91      0.00
  -13   10    3     -8.04      0.00
  -13   10    2      4.78      0.00
  -13   10    1     -0.41      0.00
   13   10    0     -5.67      0.00
   13   10    1     -5.34      0.00
   13   10    2      3.73      0.00
   13   10    3     -2.20      0.00
   13   10    4      0.99      0.00
   13   10    5     -0.57      0.00
   13   10    6      2.12      0.00
   13   10    7     -1.30      0.00
   13   10    8      0.57      0.00
   13   10    9      1.16      0.00
   13   10   10      0.88      0.00
   13   10   11     -0.80      0.00
   13   10   12      1.58      0.00
  -13   11   14      0.58      0.00
  -13   11   13     -0.42      0.00
  -13   11   12      0.65      0.00
  -13   11   11      0.76      0.00
  -13   11   10      1.70      0.00
  -13   11    9     -2.29      0.00
  -13   11    8      5.87      0.00
  -13   11    7    -10.14      0.00
  -13   11    6      1.85      0.00
  -13   11    5      1.34      0.00
  -13   11    4     -0.38      0.00
  -13   11    3     -1.75      0.00
  -13   11    2      8.69      0.00
  -13   11    1     -4.09      0.00
   13   11    0      0.43      0.00
   13   11    1     -2.68      0.00
   13   11    2      5.29      0.00
   13   11    3     -1.71      0.00
   13   11    4      3.72      0.00
   13   11    5     -1.94      0.00
   13   11    6      0.02      0.00
   13   11    7     -0.76      0.00
   13   11    8      2.96      0.00
   13   11    9      0.66      0.00
   13   11   10      1.88      0.00
   13   11   11     -0.95      0.00
  -13   12   13      0.61      0.00
  -13   12   12     -0.88      0.00
  -13   12   11     -1.89      0.00
  -13   12   10     -2.77      0.00
  -13   12    9      1.20      0.00
  -13   12    8      3.53      0.00
  -13   12    7      1.16      0.00
  -13   12    6      1.96      0.00
  -13   12    5     -0.16      0.00
  -13   12    4     -6.46      0.00
  -13   12    3      3.20      0.00
  -13   12    2     -1.91      0.00
  -13   12    1     -3.25      0.00
   13   12    0      6.02      0.00
   13   12    1      0.77      0.00
   13   12    2     -1.82      0.00
   13   12    3     -4.32      0.00
   13   12    4     -2.60      0.00
   13   12    5     -2.33      0.00
   13   12    6     -2.45      0.00
   13   12    7      2.39      0.00
   13   12    8     -1.34      0.00
   13   12    9     -2.73      0.00
   13   12   10     -2.69      0.00
  -13   13   12      0.26      0.00
  -13   13   11      2.89      0.00
  -13   13   10     -0.07      0.00
  -13   13    9     -0.07      0.00
  -13   13    8     -4.05      0.00
  -13   13    7      3.35      0.00
  -13   13    6     -2.23      0.00
  -13   13    5      3.60      0.00
  -13   13    4     -1.74      0.00
  -13   13    3      7.50      0.00
  -13   13    2     -2.30      0.00
  -13   13    1     -2.29      0.00
   13   13    0     -1.59      0.00
   13   13    1      0.50      0.00
   13   13    2     -1.35      0.00
   13   13    3      2.63      0.00
   13   13    4      4.20      0.00
   13   13    5      4.03      0.00
   13   13    6      0.69      0.00
   13   13    7      1.05      0.00
   13   13    8     -1.54      0.00
   13   13    9      1.66      0.00
  -13   14   11     -0.52      0.00
  -13   14   10      3.12      0.00
  -13   14    9     -0.07      0.00
  -13   14    8      0.17      0.00
  -13   14    7     -0.66      0.00
  -13   14    6     -2.43      0.00
  -13   14    5      1.20      0.00
  -13   14    4     -0.25      0.00
  -13   14    3     -0.81      0.00
  -13   14    2      1.31      0.00
  -13   14    1      0.08      0.00
   13   14    0      1.71      0.00
   13   14    1      1.36      0.00
   13   14    2      0.18      0.00
   13   14    3     -1.83      0.00
   13   14    4     -0.32      0.00
   13   14    5     -2.24      0.00
   13   14    6     -0.94      0.00
   13   14    7     -0.15      0.00
   13   14    8     -0.51      0.00
  -13   15    9     -1.84      0.00
  -13   15    8      2.59      0.00
  -13   15    7      0.57      0.00
  -13   15    6      2.10      0.00
  -13   15    5     -0.87      0.00
  -13   15    4     -0.47      0.00
  -13   15    3     -3.56      0.00
  -13   15    2      0.10      0.00
  -13   15    1     -0.14      0.00
   13   15    0     -1.41      0.00
   13   15    1     -2.59      0.00
   13   15    2      3.27      0.00
   13   15    3     -1.61      0.00
   13   15    4      2.12      0.00
   13   15    5      0.13      0.00
   13   15    6     -0.67      0.00
   13   15    7      1.35      0.00
  -13   16    9     -1.39      0.00
  -13   16    8     -2.31      0.00
  -13   16    7     -1.37      0.00
  -13   16    6     -1.14      0.00
  -13   16    5     -0.27      0.00
  -13   16    4     -0.52      0.00
  -13   16    3      0.06      0.00
  -13   16    2     -1.86      0.00
  -13   16    1     -0.46      0.00
   13   16    0     -1.53      0.00
   13   16    1     -1.81      0.00
   13   16    2      0.90      0.00
   13   16    3     -2.69      0.00
   13   16    4     -0.78      0.00
   13   16    5      0.55      0.00
   13   16    6     -2.87      0.00
  -13   17    7      1.27      0.00
  -13   17    6     -1.06      0.00
  -13   17    5      2.23      0.00
  -13   17    4      1.28      0.00
  -13   17    3      4.15      0.00
  -13   17    2      1.51      0.00
  -13   17    1      1.67      0.00
   13   17    0      2.75      0.00
   13   17    1      1.43      0.00
   13   17    2     -0.60      0.00
   13   17    3      0.54      0.00
   13   17    4     -0.38      0.00
  -13   18    2     -1.77      0.00
  -13   18    1      0.84      0.00
  -14    0   16      0.83      0.00
  -14    0   14     -1.90      0.00
  -14    0   12     -1.56      0.00
  -14    0   10      2.86      0.00
  -14    0    8      7.41      0.00
  -14    0    6      5.65      0.00
  -14    0    4     -0.23      0.00
  -14    0    2      9.85      0.00
   14    0    0     19.60      0.00
   14    0    2     11.65      0.00
   14    0    4      8.13      0.00
   14    0    6      5.20      0.00
   14    0    8     -4.50      0.00
   14    0   10      0.82      0.00
   14    0   12      3.26      0.00
   14    0   14     -2.63      0.00
  -14    1   17     -1.52      0.00
  -14    1   16     -1.64      0.00
  -14    1   15      0.07      0.00
  -14    1   14     -1.45      0.00
  -14    1   13      1.83      0.00
  -14    1   12      0.30      0.00
  -14    1   11      1.80      0.00
  -14    1   10      0.38      0.00
  -14    1    9     -4.47      0.00
  -14    1    8     -6.85      0.00
  -14    1    7     -2.01      0.00
  -14    1    6      1.16      0.00
  -14    1    5      4.31      0.00
  -14    1    4      0.40      0.00
  -14    1    3      4.27      0.00
  -14    1    2     -1.39      0.00
  -14    1    1     -4.17      0.00
   14    1    0     -3.75      0.00
   14    1    1      1.47      0.00
   14    1    2    -15.53      0.00
   14    1    3      6.86      0.00
   14    1    4     10.91      0.00
   14    1    5      1.37      0.00
   14    1    6      2.73      0.00
   14    1    7      3.72      0.00
   14    1    8     -0.91      0.00
   14    1    9      2.09      0.00
   14    1   10     -2.30      0.00
   14    1   11     -0.53      0.00
   14    1   12      0.93      0.00
   14    1   13      0.39      0.00
   14    1   14      0.32      0.00
  -14    2   17      0.36      0.00
  -14    2   16      0.70      0.00
  -14    2   15      0.75      0.00
  -14    2   14      1.77      0.00
  -14    2   13     -1.27      0.00
  -14    2   12     -2.51      0.00
  -14    2   11     -1.07      0.00
  -14    2   10     -1.48      0.00
  -14    2    9      0.92      0.00
  -14    2    8     -2.22      0.00
  -14    2    7     -1.52      0.00
  -14    2    6     -8.22      0.00
  -14    2    5     -1.05      0.00
  -14    2    4     -7.03      0.00
  -14    2    3      5.59      0.00
  -14    2    2     -8.61      0.00
  -14    2    1      3.40      0.00
   14    2    0    -13.90      0.00
   14    2    1      7.60      0.00
   14    2    2    -22.16      0.00
   14    2    3     -6.11      0.00
   14    2    4    -15.15      0.00
   14    2    5    -10.61      0.00
   14    2    6     -9.66      0.00
   14    2    7     -1.55      0.00
   14    2    8      0.15      0.00
   14    2    9     -1.99      0.00
   14    2   10     -2.38      0.00
   14    2   11     -1.57      0.00
   14    2   12     -1.16      0.00
   14    2   13      0.36      0.00
   14    2   14      0.40      0.00
  -14    3   17      0.78      0.00
  -14    3   16     -0.17      0.00
  -14    3   15     -1.35      0.00
  -14    3   14      2.21      0.00
  -14    3   13     -2.37      0.00
  -14    3   12      3.38      0.00
  -14    3   11      0.12      0.00
  -14    3   10     -3.02      0.00
  -14    3    9      5.51      0.00
  -14    3    8      6.89      0.00
  -14    3    7      4.64      0.00
  -14    3    6      4.14      0.00
  -14    3    5     -3.52      0.00
  -14    3    4     -2.88      0.00
  -14    3    3     -5.97      0.00
  -14    3    2     -8.15      0.00
  -14    3    1      3.14      0.00
   14    3    0     -6.36      0.00
   14    3    1      5.45      0.00
   14    3    2      9.96      0.00
   14    3    3      0.95      0.00
   14    3    4      4.36      0.00
   14    3    5      6.38      0.00
   14    3    6      1.93      0.00
   14    3    7     -1.83      0.00
   14    3    8     -0.98      0.00
   14    3    9      0.86      0.00
   14    3   10      5.86      0.00
   14    3   11      1.98      0.00
   14    3   12      0.64      0.00
   14    3   13     -0.99      0.00
  -14    4   17      1.72      0.00
  -14    4   16     -0.76      0.00
  -14    4   15      0.20      0.00
  -14    4   14     -0.75      0.00
  -14    4   13     -0.16      0.00
  -14    4   12      3.71      0.00
  -14    4   11      1.49      0.00
  -14    4   10     -0.96      0.00
  -14    4    9      3.18      0.00
  -14    4    8     -3.73      0.00
  -14    4    7     -2.42      0.00
  -14    4    6      6.17      0.00
  -14    4    5     -2.14      0.00
  -14    4    4     12.95      0.00
  -14    4    3      3.05      0.00
  -14    4    2      8.80      0.00
  -14    4    1     -3.88      0.00
   14    4    0     -0.68      0.00
   14    4    1      1.18      0.00
   14    4    2     13.73      0.00
   14    4    3     -0.53      0.00
   14    4    4      8.35      0.00
   14    4    5      1.85      0.00
   14    4    6      3.83      0.00
   14    4    7      3.69      0.00
   14    4    8     -0.04      0.00
   14    4    9      0.76      0.00
   14    4   10     -1.72      0.00
   14    4   11     -2.22      0.00
   14    4   12     -0.88      0.00
   14    4   13      0.18      0.00
  -14    5   16     -0.27      0.00
  -14    5   15      0.91      0.00
  -14    5   14     -1.74      0.00
  -14    5   13      0.69      0.00
  -14    5   12     -5.23      0.00
  -14    5   11     -1.79      0.00
  -14    5   10      1.44      0.00
  -14    5    9     -1.45      0.00
  -14    5    8     -7.57      0.00
  -14    5    7     -0.66      0.00
  -14    5    6     -2.71      0.00
  -14    5    5     -3.02      0.00
  -14    5    4      0.14      0.00
  -14    5    3     -1.38      0.00
  -14    5    2      5.76      0.00
  -14    5    1      8.09      0.00
   14    5    0      6.46      0.00
   14    5    1      4.22      0.00
   14    5    2     -5.34      0.00
   14    5    3     -4.76      0.00
   14    5    4     -1.98      0.00
   14    5    5     -4.51      0.00
   14    5    6     -1.36      0.00
   14    5    7      3.80      0.00
   14    5    8     -0.52      0.00
   14    5    9     -0.71      0.00
   14    5   10     -3.27      0.00
   14    5   11      1.78      0.00
   14    5   12      0.32      0.00
   14    5   13      0.69      0.00
  -14    6   16      2.24      0.00
  -14    6   15     -1.31      0.00
  -14    6   14      2.52      0.00
  -14    6   13      1.03      0.00
  -14    6   12     -1.18      0.00
  -14    6   11     -0.34      0.00
  -14    6   10      2.45      0.00
  -14    6    9     -5.37      0.00
  -14    6    8      3.17      0.00
  -14    6    7      5.08      0.00
  -14    6    6     -1.88      0.00
  -14    6    5      5.59      0.00
  -14    6    4     -3.02      0.00
  -14    6    3     -5.96      0.00
  -14    6    2    -10.29      0.00
  -14    6    1      2.86      0.00
   14    6    0     -4.06      0.00
   14    6    1     -9.42      0.00
   14    6    2     -5.34      0.00
   14    6    3     -2.05      0.00
   14    6    4      3.43      0.00
   14    6    5     -0.83      0.00
   14    6    6     -4.50      0.00
   14    6    7     -4.89      0.00
   14    6    8     -2.46      0.00
   14    6    9      1.41      0.00
   14    6   10     -0.51      0.00
   14    6   11      1.86      0.00
   14    6   12     -0.17      0.00
   14    6   13     -0.28      0.00
  -14    7   16     -0.81      0.00
  -14    7   15     -2.64      0.00
  -14    7   14      2.59      0.00
  -14    7   13     -2.35      0.00
  -14    7   12      3.55      0.00
  -14    7   11     -0.16      0.00
  -14    7   10      1.86      0.00
  -14    7    9     -2.04      0.00
  -14    7    8      6.54      0.00
  -14    7    7     -2.01      0.00
  -14    7    6     -5.23      0.00
  -14    7    5      1.33      0.00
  -14    7    4      0.84      0.00
  -14    7    3      5.11      0.00
  -14    7    2      1.29      0.00
  -14    7    1     -5.26      0.00
   14    7    0     -1.51      0.00
   14    7    1     -6.32      0.00
   14    7    2     10.76      0.00
   14    7    3     -2.67      0.00
   14    7    4      4.04      0.00
   14    7    5      0.08      0.00
   14    7    6      5.12      0.00
   14    7    7      0.33      0.00
   14    7    8      2.59      0.00
   14    7    9      3.80      0.00
   14    7   10     -1.94      0.00
   14    7   11     -2.23      0.00
   14    7   12      0.24      0.00
  -14    8   15      0.23      0.00
  -14    8   14     -1.85      0.00
  -14    8   13     -3.07      0.00
  -14    8   12      1.37      0.00
  -14    8   11     -0.03      0.00
  -14    8   10     -1.18      0.00
  -14    8    9      2.96      0.00
  -14    8    8     -0.06      0.00
  -14    8    7      2.14      0.00
  -14    8    6     -0.27      0.00
  -14    8    5     -1.74      0.00
  -14    8    4     -6.88      0.00
  -14    8    3      0.92      0.00
  -14    8    2      5.09      0.00
  -14    8    1     -3.49      0.00
   14    8    0      6.20      0.00
   14    8    1      4.90      0.00
   14    8    2      3.72      0.00
   14    8    3     -2.58      0.00
   14    8    4     -5.59      0.00
   14    8    5     -1.69      0.00
   14    8    6      2.18      0.00
   14    8    7     -1.00      0.00
   14    8    8     -1.83      0.00
   14    8    9      1.46      0.00
   14    8   10      1.71      0.00
   14    8   11      0.56      0.00
   14    8   12      0.43      0.00
  -14    9   15      1.62      0.00
  -14    9   14      1.49      0.00
  -14    9   13      3.55      0.00
  -14    9   12     -0.39      0.00
  -14    9   11      0.78      0.00
  -14    9   10     -2.00      0.00
  -14    9    9      1.91      0.00
  -14    9    8     -8.11      0.00
  -14    9    7     -0.48      0.00
  -14    9    6      5.18      0.00
  -14    9    5      6.27      0.00
  -14    9    4      1.57      0.00
  -14    9    3     -1.20      0.00
  -14    9    2     -0.30      0.00
  -14    9    1     -0.45      0.00
   14    9    0     -1.45      0.00
   14    9    1      0.49      0.00
   14    9    2     -4.99      0.00
   14    9    3      7.13      0.00
   14    9    4     -1.59      0.00
   14    9    5      2.15      0.00
   14    9    6     -1.04      0.00
   14    9    7      1.84      0.00
   14    9    8     -1.19      0.00
   14    9    9     -4.36      0.00
   14    9   10      0.36      0.00
   14    9   11      0.71      0.00
  -14   10   14     -0.08      0.00
  -14   10   13     -0.79      0.00
  -14   10   12     -1.98      0.00
  -14   10   11     -0.36      0.00
  -14   10   10      1.24      0.00
  -14   10    9      2.43      0.00
  -14   10    8      3.79      0.00
  -14   10    7     -6.27      0.00
  -14   10    6      1.18      0.00
  -14   10    5     -8.17      0.00
  -14   10    4      2.70      0.00
  -14   10    3      1.41      0.00
  -14   10    2      0.20      0.00
  -14   10    1     -1.42      0.00
   14   10    0      1.64      0.00
   14   10    1     -0.76      0.00
   14   10    2     -2.07      0.00
   14   10    3      0.63      0.00
   14   10    4      2.27      0.00
   14   10    5     -0.11      0.00
   14   10    6     -1.32      0.00
   14   10    7      0.35      0.00
   14   10    8      3.11      0.00
   14   10    9     -1.23      0.00
   14   10   10      1.98      0.00
   14   10   11     -1.24      0.00
  -14   11   14      0.70      0.00
  -14   11   13     -1.33      0.00
  -14   11   12      1.44      0.00
  -14   11   11     -2.17      0.00
  -14   11   10     -2.49      0.00
  -14   11    9     -5.57      0.00
  -14   11    8      5.38      0.00
  -14   11    7     -3.43      0.00
  -14   11    6      7.42      0.00
  -14   11    5     -7.04      0.00
  -14   11    4      2.71      0.00
  -14   11    3      1.43      0.00
  -14   11    2     -4.43      0.00
  -14   11    1     -1.65      0.00
   14   11    0     -4.12      0.00
   14   11    1     -3.27      0.00
   14   11    2      0.36      0.00
   14   11    3     -6.95      0.00
   14   11    4      1.75      0.00
   14   11    5     -1.31      0.00
   14   11    6      0.40      0.00
   14   11    7     -2.31      0.00
   14   11    8     -0.59      0.00
   14   11    9     -0.19      0.00
   14   11   10      0.58      0.00
  -14   12   13     -1.40      0.00
  -14   12   12      1.52      0.00
  -14   12   11      2.37      0.00
  -14   12   10      2.71      0.00
  -14   12    9     -0.62      0.00
  -14   12    8     -1.67      0.00
  -14   12    7      0.95      0.00
  -14   12    6      1.28      0.00
  -14   12    5     -0.07      0.00
  -14   12    4      1.32      0.00
  -14   12    3      1.19      0.00
  -14   12    2     -4.71      0.00
  -14   12    1      4.41      0.00
   14   12    0     -1.69      0.00
   14   12    1      4.69      0.00
   14   12    2      5.49      0.00
   14   12    3      0.50      0.00
   14   12    4      0.42      0.00
   14   12    5      0.02      0.00
   14   12    6     -1.26      0.00
   14   12    7      0.53      0.00
   14   12    8      0.30      0.00
   14   12    9      1.16      0.00
  -14   13   12     -1.22      0.00
  -14   13   11     -0.48      0.00
  -14   13   10      0.46      0.00
  -14   13    9      3.21      0.00
  -14   13    8     -2.04      0.00
  -14   13    7      3.29      0.00
  -14   13    6     -5.81      0.00
  -14   13    5      1.68      0.00
  -14   13    4      0.02      0.00
  -14   13    3     -1.37      0.00
  -14   13    2      1.84      0.00
  -14   13    1      6.33      0.00
   14   13    0      3.37      0.00
   14   13    1      1.66      0.00
   14   13    2     -1.88      0.00
   14   13    3      1.94      0.00
   14   13    4     -3.03      0.00
   14   13    5      1.92      0.00
   14   13    6     -1.91      0.00
   14   13    7      1.85      0.00
   14   13    8      0.39      0.00
   14   13    9     -2.73      0.00
  -14   14   11     -0.59      0.00
  -14   14   10     -0.96      0.00
  -14   14    9     -0.15      0.00
  -14   14    8      0.83      0.00
  -14   14    7      2.53      0.00
  -14   14    6     -0.19      0.00
  -14   14    5      2.93      0.00
  -14   14    4      1.24      0.00
  -14   14    3     -3.76      0.00
  -14   14    2      4.02      0.00
  -14   14    1     -2.37      0.00
   14   14    0     -2.22      0.00
   14   14    1     -4.15      0.00
   14   14    2     -2.79      0.00
   14   14    3      1.56      0.00
   14   14    4     -0.46      0.00
   14   14    5      4.73      0.00
   14   14    6      1.85      0.00
   14   14    7      0.06      0.00
   14   14    8     -0.07      0.00
  -14   15    9     -1.61      0.00
  -14   15    8     -1.61      0.00
  -14   15    7     -1.44      0.00
  -14   15    6     -1.66      0.00
  -14   15    5     -1.24      0.00
  -14   15    4     -0.56      0.00
  -14   15    3     -3.06      0.00
  -14   15    2      2.55      0.00
  -14   15    1     -4.92      0.00
   14   15    0     -0.33      0.00
   14   15    1      0.79      0.00
   14   15    2      2.84      0.00
   14   15    3     -0.35      0.00
   14   15    4     -2.68      0.00
   14   15    5     -2.98      0.00
   14   15    6     -1.54      0.00
  -14   16    8     -1.85      0.00
  -14   16    7      2.57      0.00
  -14   16    6     -0.10      0.00
  -14   16    5      0.53      0.00
  -14   16    4      1.15      0.00
  -14   16    3      0.44      0.00
  -14   16    2      1.69      0.00
  -14   16    1     -2.68      0.00
   14   16    0      1.97      0.00
   14   16    1     -0.08      0.00
   14   16    2     -0.69      0.00
   14   16    3      0.45      0.00
   14   16    4      0.92      0.00
   14   16    5      1.80      0.00
  -14   17    5     -0.09      0.00
  -14   17    4      0.76      0.00
  -14   17    3      0.13      0.00
  -14   17    2      0.63      0.00
  -14   17    1      0.09      0.00
   14   17    0     -2.05      0.00
   14   17    1     -0.29      0.00
   14   17    2     -1.30      0.00
  -15    0   16      0.02      0.00
  -15    0   14     -4.11      0.00
  -15    0   12     -0.52      0.00
  -15    0   10      5.15      0.00
  -15    0    8      2.52      0.00
  -15    0    6     11.01      0.00
  -15    0    4     11.62      0.00
  -15    0    2      0.87      0.00
   15    0    0      6.43      0.00
   15    0    2     25.81      0.00
   15    0    4     11.69      0.00
   15    0    6     -5.91      0.00
   15    0    8     -0.51      0.00
   15    0   10      3.01      0.00
   15    0   12      0.78      0.00
  -15    1   17     -0.81      0.00
  -15    1   16     -0.40      0.00
  -15    1   15      0.93      0.00
  -15    1   14     -2.24      0.00
  -15    1   13      2.76      0.00
  -15    1   12      0.37      0.00
  -15    1   11     -0.27      0.00
  -15    1   10      4.68      0.00
  -15    1    9      0.10      0.00
  -15    1    8     -1.15      0.00
  -15    1    7     -0.29      0.00
  -15    1    6     -8.54      0.00
  -15    1    5     -2.87      0.00
  -15    1    4      5.43      0.00
  -15    1    3      2.61      0.00
  -15    1    2      3.54      0.00
  -15    1    1      9.49      0.00
   15    1    0     -0.45      0.00
   15    1    1     -5.98      0.00
   15    1    2      0.97      0.00
   15    1    3     -7.27      0.00
   15    1    4     -8.59      0.00
   15    1    5      5.16      0.00
   15    1    6      2.55      0.00
   15    1    7      4.72      0.00
   15    1    8     -1.94      0.00
   15    1    9      0.53      0.00
   15    1   10      0.62      0.00
   15    1   11     -0.89      0.00
   15    1   12     -0.35      0.00
   15    1   13      0.70      0.00
  -15    2   17      0.31      0.00
  -15    2   16     -0.21      0.00
  -15    2   15      0.51      0.00
  -15    2   14      1.63      0.00
  -15    2   13     -0.04      0.00
  -15    2   12     -1.51      0.00
  -15    2   11     -3.36      0.00
  -15    2   10     -4.50      0.00
  -15    2    9     -2.31      0.00
  -15    2    8     -4.76      0.00
  -15    2    7      3.10      0.00
  -15    2    6     -8.58      0.00
  -15    2    5      4.00      0.00
  -15    2    4     -9.33      0.00
  -15    2    3     -6.65      0.00
  -15    2    2    -15.13      0.00
  -15    2    1     -6.12      0.00
   15    2    0     -9.96      0.00
   15    2    1    -10.44      0.00
   15    2    2    -10.47      0.00
   15    2    3      1.87      0.00
   15    2    4    -13.08      0.00
   15    2    5      1.99      0.00
   15    2    6     -4.41      0.00
   15    2    7     -2.70      0.00
   15    2    8     -1.91      0.00
   15    2    9     -1.33      0.00
   15    2   10     -0.08      0.00
   15    2   11     -1.78      0.00
   15    2   12     -1.14      0.00
   15    2   13      1.63      0.00
  -15    3   16     -0.58      0.00
  -15    3   15     -0.84      0.00
  -15    3   14      1.58      0.00
  -15    3   13     -3.12      0.00
  -15    3   12      3.19      0.00
  -15    3   11      1.98      0.00
  -15    3   10      1.23      0.00
  -15    3    9      3.07      0.00
  -15    3    8     -0.91      0.00
  -15    3    7      3.36      0.00
  -15    3    6      3.57      0.00
  -15    3    5      1.56      0.00
  -15    3    4     -3.14      0.00
  -15    3    3      4.01      0.00
  -15    3    2     10.58      0.00
  -15    3    1     -4.03      0.00
   15    3    0      5.06      0.00
   15    3    1      1.16      0.00
   15    3    2      5.07      0.00
   15    3    3     10.54      0.00
   15    3    4     -1.46      0.00
   15    3    5      1.59      0.00
   15    3    6     -5.52      0.00
   15    3    7     -0.78      0.00
   15    3    8      0.97      0.00
   15    3    9     -2.39      0.00
   15    3   10      1.93      0.00
   15    3   11      0.33      0.00
   15    3   12      0.63      0.00
   15    3   13      1.04      0.00
  -15    4   16     -0.48      0.00
  -15    4   15     -0.05      0.00
  -15    4   14      0.34      0.00
  -15    4   13     -0.72      0.00
  -15    4   12      0.73      0.00
  -15    4   11     -2.26      0.00
  -15    4   10      0.22      0.00
  -15    4    9      2.19      0.00
  -15    4    8      1.05      0.00
  -15    4    7     -0.33      0.00
  -15    4    6      5.82      0.00
  -15    4    5     -4.05      0.00
  -15    4    4      4.01      0.00
  -15    4    3     -2.64      0.00
  -15    4    2     11.27      0.00
  -15    4    1      3.51      0.00
   15    4    0     12.20      0.00
   15    4    1      1.79      0.00
   15    4    2      0.93      0.00
   15    4    3      2.22      0.00
   15    4    4      2.18      0.00
   15    4    5      8.61      0.00
   15    4    6      3.15      0.00
   15    4    7      7.47      0.00
   15    4    8     -0.76      0.00
   15    4    9      0.14      0.00
   15    4   10      0.18      0.00
   15    4   11      0.19      0.00
   15    4   12      0.22      0.00
   15    4   13      1.04      0.00
  -15    5   16      1.56      0.00
  -15    5   15      0.12      0.00
  -15    5   14      0.00      0.00
  -15    5   13      1.27      0.00
  -15    5   12     -1.06      0.00
  -15    5   11      0.23      0.00
  -15    5   10      0.37      0.00
  -15    5    9     -2.66      0.00
  -15    5    8      0.17      0.00
  -15    5    7     -3.03      0.00
  -15    5    6     -0.88      0.00
  -15    5    5      1.91      0.00
  -15    5    4      7.49      0.00
  -15    5    3     -2.15      0.00
  -15    5    2     -9.92      0.00
  -15    5    1     -2.40      0.00
   15    5    0      0.10      0.00
   15    5    1      3.19      0.00
   15    5    2     -4.57      0.00
   15    5    3     -1.04      0.00
   15    5    4     -7.40      0.00
   15    5    5     -1.42      0.00
   15    5    6     -4.89      0.00
   15    5    7     -0.27      0.00
   15    5    8     -3.31      0.00
   15    5    9      4.63      0.00
   15    5   10      0.05      0.00
   15    5   11     -1.87      0.00
   15    5   12     -2.36      0.00
  -15    6   16      0.52      0.00
  -15    6   15     -2.26      0.00
  -15    6   14      0.46      0.00
  -15    6   13     -0.22      0.00
  -15    6   12      0.44      0.00
  -15    6   11     -0.16      0.00
  -15    6   10      1.14      0.00
  -15    6    9     -3.87      0.00
  -15    6    8      3.50      0.00
  -15    6    7     -4.81      0.00
  -15    6    6     -3.28      0.00
  -15    6    5     -2.58      0.00
  -15    6    4     -3.60      0.00
  -15    6    3      5.35      0.00
  -15    6    2     -1.02      0.00
  -15    6    1      0.65      0.00
   15    6    0     -8.41      0.00
   15    6    1      2.37      0.00
   15    6    2     -1.35      0.00
   15    6    3      4.25      0.00
   15    6    4      1.80      0.00
   15    6    5     -0.50      0.00
   15    6    6      1.95      0.00
   15    6    7     -0.79      0.00
   15    6    8     -1.10      0.00
   15    6    9     -0.82      0.00
   15    6   10     -0.30      0.00
   15    6   11      1.16      0.00
   15    6   12      0.01      0.00
  -15    7   15      0.23      0.00
  -15    7   14     -1.79      0.00
  -15    7   13     -1.64      0.00
  -15    7   12      1.62      0.00
  -15    7   11     -3.11      0.00
  -15    7   10      2.81      0.00
  -15    7    9      0.47      0.00
  -15    7    8      4.06      0.00
  -15    7    7     -0.67      0.00
  -15    7    6      9.03      0.00
  -15    7    5     -3.11      0.00
  -15    7    4     -8.17      0.00
  -15    7    3     -2.99      0.00
  -15    7    2      3.14      0.00
  -15    7    1     -0.61      0.00
   15    7    0     -4.13      0.00
   15    7    1     -2.57      0.00
   15    7    2     -5.29      0.00
   15    7    3     -2.43      0.00
   15    7    4      5.13      0.00
   15    7    5     -3.14      0.00
   15    7    6      1.71      0.00
   15    7    7     -0.44      0.00
   15    7    8      2.91      0.00
   15    7    9     -0.88      0.00
   15    7   10     -1.44      0.00
   15    7   11      2.44      0.00
   15    7   12      0.24      0.00
  -15    8   15      2.89      0.00
  -15    8   14     -1.01      0.00
  -15    8   13      2.96      0.00
  -15    8   12      1.24      0.00
  -15    8   11     -1.70      0.00
  -15    8   10      0.95      0.00
  -15    8    9      1.68      0.00
  -15    8    8     -6.07      0.00
  -15    8    7     -0.44      0.00
  -15    8    6      3.36      0.00
  -15    8    5      1.53      0.00
  -15    8    4      7.22      0.00
  -15    8    3      0.75      0.00
  -15    8    2      0.04      0.00
  -15    8    1     -1.02      0.00
   15    8    0      4.87      0.00
   15    8    1      4.49      0.00
   15    8    2      0.41      0.00
   15    8    3     -0.14      0.00
   15    8    4     -0.50      0.00
   15    8    5     -1.65      0.00
   15    8    6     -1.25      0.00
   15    8    7      1.00      0.00
   15    8    8      0.38      0.00
   15    8    9      3.07      0.00
   15    8   10     -4.42      0.00
   15    8   11      1.11      0.00
  -15    9   14      0.48      0.00
  -15    9   13      2.30      0.00
  -15    9   12     -1.62      0.00
  -15    9   11      1.64      0.00
  -15    9   10     -1.16      0.00
  -15    9    9      2.52      0.00
  -15    9    8     -1.61      0.00
  -15    9    7      4.68      0.00
  -15    9    6     -7.08      0.00
  -15    9    5     -3.66      0.00
  -15    9    4      3.98      0.00
  -15    9    3     -1.49      0.00
  -15    9    2     -1.47      0.00
  -15    9    1      0.70      0.00
   15    9    0      1.45      0.00
   15    9    1      3.39      0.00
   15    9    2      3.35      0.00
   15    9    3      0.09      0.00
   15    9    4     -3.63      0.00
   15    9    5      2.01      0.00
   15    9    6      1.46      0.00
   15    9    7     -2.27      0.00
   15    9    8     -5.35      0.00
   15    9    9      1.65      0.00
   15    9   10     -1.96      0.00
   15    9   11      0.53      0.00
  -15   10   14     -0.65      0.00
  -15   10   13     -2.71      0.00
  -15   10   12     -2.03      0.00
  -15   10   11      1.41      0.00
  -15   10   10     -2.29      0.00
  -15   10    9     -3.23      0.00
  -15   10    8      2.52      0.00
  -15   10    7     -0.14      0.00
  -15   10    6      1.13      0.00
  -15   10    5      0.51      0.00
  -15   10    4      0.73      0.00
  -15   10    3     -4.11      0.00
  -15   10    2      4.88      0.00
  -15   10    1     -1.60      0.00
   15   10    0     -4.63      0.00
   15   10    1     -5.69      0.00
   15   10    2     -0.36      0.00
   15   10    3     -1.78      0.00
   15   10    4      3.02      0.00
   15   10    5      0.29      0.00
   15   10    6      3.46      0.00
   15   10    7     -1.76      0.00
   15   10    8      4.42      0.00
   15   10    9      1.53      0.00
   15   10   10      2.55      0.00
  -15   11   13     -1.48      0.00
  -15   11   12      1.41      0.00
  -15   11   11      0.30      0.00
  -15   11   10      1.70      0.00
  -15   11    9     -1.51      0.00
  -15   11    8      2.86      0.00
  -15   11    7     -8.19      0.00
  -15   11    6      2.64      0.00
  -15   11    5      1.27      0.00
  -15   11    4     -0.75      0.00
  -15   11    3     -3.22      0.00
  -15   11    2      4.68      0.00
  -15   11    1     -1.68      0.00
   15   11    0      0.12      0.00
   15   11    1      0.32      0.00
   15   11    2      2.28      0.00
   15   11    3     -0.77      0.00
   15   11    4      3.19      0.00
   15   11    5     -3.45      0.00
   15   11    6     -0.18      0.00
   15   11    7     -2.76      0.00
   15   11    8      2.19      0.00
   15   11    9     -3.19      0.00
   15   11   10      0.92      0.00
  -15   12   12      1.53      0.00
  -15   12   11     -2.09      0.00
  -15   12   10     -0.46      0.00
  -15   12    9      0.41      0.00
  -15   12    8      3.10      0.00
  -15   12    7      1.23      0.00
  -15   12    6     -0.57      0.00
  -15   12    5      2.03      0.00
  -15   12    4     -3.95      0.00
  -15   12    3      0.80      0.00
  -15   12    2     -1.21      0.00
  -15   12    1     -1.74      0.00
   15   12    0      1.72      0.00
   15   12    1      0.50      0.00
   15   12    2     -1.73      0.00
   15   12    3     -1.56      0.00
   15   12    4     -1.54      0.00
   15   12    5     -2.62      0.00
   15   12    6      0.83      0.00
   15   12    7      1.22      0.00
   15   12    8     -0.05      0.00
   15   12    9     -1.65      0.00
  -15   13   11      2.10      0.00
  -15   13   10      1.31      0.00
  -15   13    9     -1.38      0.00
  -15   13    8     -2.30      0.00
  -15   13    7      2.59      0.00
  -15   13    6     -3.11      0.00
  -15   13    5      4.19      0.00
  -15   13    4     -2.61      0.00
  -15   13    3      6.17      0.00
  -15   13    2      1.62      0.00
  -15   13    1     -2.50      0.00
   15   13    0     -1.66      0.00
   15   13    1      1.79      0.00
   15   13    2     -1.05      0.00
   15   13    3      2.35      0.00
   15   13    4      0.56      0.00
   15   13    5      1.33      0.00
   15   13    6      1.30      0.00
   15   13    7     -0.94      0.00
   15   13    8     -1.20      0.00
  -15   14    9     -0.38      0.00
  -15   14    8      1.82      0.00
  -15   14    7      0.01      0.00
  -15   14    6     -0.72      0.00
  -15   14    5     -0.27      0.00
  -15   14    4     -2.44      0.00
  -15   14    3     -0.22      0.00
  -15   14    2      0.98      0.00
  -15   14    1     -3.04      0.00
   15   14    0      1.99      0.00
   15   14    1      1.81      0.00
   15   14    2     -0.82      0.00
   15   14    3      2.30      0.00
   15   14    4      0.86      0.00
   15   14    5      0.70      0.00
   15   14    6      0.71      0.00
   15   14    7      0.91      0.00
  -15   15    8      0.92      0.00
  -15   15    7     -1.45      0.00
  -15   15    6      2.62      0.00
  -15   15    5     -0.08      0.00
  -15   15    4      2.14      0.00
  -15   15    3     -3.14      0.00
  -15   15    2     -0.11      0.00
  -15   15    1      1.02      0.00
   15   15    0     -2.33      0.00
   15   15    1     -1.26      0.00
   15   15    2     -1.77      0.00
   15   15    3     -0.87      0.00
   15   15    4     -1.31      0.00
   15   15    5     -2.79      0.00
  -15   16    7     -1.66      0.00
  -15   16    6     -1.59      0.00
  -15   16    5     -1.59      0.00
  -15   16    4      1.77      0.00
  -15   16    3     -1.06      0.00
  -15   16    2     -0.91      0.00
  -15   16    1      0.78      0.00
   15   16    0     -2.49      0.00
   15   16    1      1.48      0.00
   15   16    2     -1.55      0.00
   15   16    3     -0.69      0.00
  -15   17    3      1.65      0.00
  -15   17    2      0.71      0.00
  -15   17    1      1.80      0.00
  -16    0   16      1.23      0.00
  -16    0   14     -2.10      0.00
  -16    0   12     -1.28      0.00
  -16    0   10      5.43      0.00
  -16    0    8      8.23      0.00
  -16    0    6      3.79      0.00
  -16    0    4      1.69      0.00
  -16    0    2      8.81      0.00
   16    0    0     20.80      0.00
   16    0    2      5.05      0.00
   16    0    4     13.76      0.00
   16    0    6      8.59      0.00
   16    0    8     -1.42      0.00
   16    0   10     -2.15      0.00
   16    0   12      0.98      0.00
  -16    1   16     -0.53      0.00
  -16    1   15     -0.16      0.00
  -16    1   14     -0.38      0.00
  -16    1   13      2.52      0.00
  -16    1   12      1.25      0.00
  -16    1   11     -0.27      0.00
  -16    1   10     -1.08      0.00
  -16    1    9     -3.39      0.00
  -16    1    8     -2.47      0.00
  -16    1    7     -2.16      0.00
  -16    1    6     -3.63      0.00
  -16    1    5      2.96      0.00
  -16    1    4     -1.07      0.00
  -16    1    3      2.05      0.00
  -16    1    2      0.11      0.00
  -16    1    1     -8.55      0.00
   16    1    0     -5.05      0.00
   16    1    1     -2.38      0.00
   16    1    2    -14.18      0.00
   16    1    3      1.92      0.00
   16    1    4      2.80      0.00
   16    1    5     -3.90      0.00
   16    1    6     -0.82      0.00
   16    1    7     -0.39      0.00
   16    1    8     -0.78      0.00
   16    1    9      0.74      0.00
   16    1   10     -2.27      0.00
   16    1   11      2.00      0.00
   16    1   12      0.40      0.00
  -16    2   16      0.06      0.00
  -16    2   15     -0.47      0.00
  -16    2   14     -0.13      0.00
  -16    2   13     -2.21      0.00
  -16    2   12     -0.55      0.00
  -16    2   11     -1.93      0.00
  -16    2   10     -1.17      0.00
  -16    2    9     -0.01      0.00
  -16    2    8     -4.62      0.00
  -16    2    7     -2.35      0.00
  -16    2    6     -4.21      0.00
  -16    2    5     -0.56      0.00
  -16    2    4     -8.13      0.00
  -16    2    3      3.59      0.00
  -16    2    2     -1.51      0.00
  -16    2    1     -1.75      0.00
   16    2    0     -8.98      0.00
   16    2    1     10.29      0.00
   16    2    2     -7.51      0.00
   16    2    3     -3.21      0.00
   16    2    4    -11.48      0.00
   16    2    5     -5.12      0.00
   16    2    6     -5.26      0.00
   16    2    7      0.83      0.00
   16    2    8      2.86      0.00
   16    2    9      1.33      0.00
   16    2   10      0.28      0.00
   16    2   11     -0.01      0.00
   16    2   12     -1.73      0.00
  -16    3   16      1.79      0.00
  -16    3   15      0.51      0.00
  -16    3   14      1.92      0.00
  -16    3   13     -1.72      0.00
  -16    3   12      3.52      0.00
  -16    3   11     -2.62      0.00
  -16    3   10      0.84      0.00
  -16    3    9      3.87      0.00
  -16    3    8      4.46      0.00
  -16    3    7      3.43      0.00
  -16    3    6      8.89      0.00
  -16    3    5     -1.49      0.00
  -16    3    4      1.59      0.00
  -16    3    3     -4.18      0.00
  -16    3    2     -1.45      0.00
  -16    3    1      4.11      0.00
   16    3    0    -11.20      0.00
   16    3    1      2.23      0.00
   16    3    2      4.12      0.00
   16    3    3     -2.17      0.00
   16    3    4      2.46      0.00
   16    3    5      5.85      0.00
   16    3    6      0.65      0.00
   16    3    7     -2.22      0.00
   16    3    8     -3.33      0.00
   16    3    9     -2.95      0.00
   16    3   10      1.81      0.00
   16    3   11     -0.94      0.00
   16    3   12      0.95      0.00
  -16    4   16      1.02      0.00
  -16    4   15     -1.28      0.00
  -16    4   14     -0.88      0.00
  -16    4   13     -0.31      0.00
  -16    4   12      3.31      0.00
  -16    4   11      0.09      0.00
  -16    4   10      0.55      0.00
  -16    4    9     -0.48      0.00
  -16    4    8     -0.33      0.00
  -16    4    7     -3.35      0.00
  -16    4    6      3.81      0.00
  -16    4    5     -6.23      0.00
  -16    4    4     11.56      0.00
  -16    4    3     -4.21      0.00
  -16    4    2      0.59      0.00
  -16    4    1    -10.84      0.00
   16    4    0      0.98      0.00
   16    4    1      3.19      0.00
   16    4    2      7.38      0.00
   16    4    3      6.85      0.00
   16    4    4      8.43      0.00
   16    4    5      5.68      0.00
   16    4    6      2.52      0.00
   16    4    7      4.13      0.00
   16    4    8      1.18      0.00
   16    4    9     -0.05      0.00
   16    4   10      0.69      0.00
   16    4   11     -1.44      0.00
   16    4   12      0.36      0.00
  -16    5   16      0.71      0.00
  -16    5   15     -1.08      0.00
  -16    5   14      0.55      0.00
  -16    5   13      0.56      0.00
  -16    5   12     -3.71      0.00
  -16    5   11      0.20      0.00
  -16    5   10      0.86      0.00
  -16    5    9     -0.33      0.00
  -16    5    8     -0.39      0.00
  -16    5    7     -2.46      0.00
  -16    5    6     -1.95      0.00
  -16    5    5     -4.04      0.00
  -16    5    4      2.02      0.00
  -16    5    3      2.31      0.00
  -16    5    2     11.93      0.00
  -16    5    1      5.16      0.00
   16    5    0      1.15      0.00
   16    5    1      1.04      0.00
   16    5    2     -7.40      0.00
   16    5    3     -1.38      0.00
   16    5    4    -11.20      0.00
   16    5    5     -5.29      0.00
   16    5    6     -7.68      0.00
   16    5    7      1.67      0.00
   16    5    8     -0.36      0.00
   16    5    9      0.12      0.00
   16    5   10     -0.63      0.00
   16    5   11      0.21      0.00
   16    5   12     -1.23      0.00
  -16    6   15     -1.09      0.00
  -16    6   14      2.15      0.00
  -16    6   13      0.17      0.00
  -16    6   12     -0.98      0.00
  -16    6   11      0.04      0.00
  -16    6   10     -0.80      0.00
  -16    6    9     -4.40      0.00
  -16    6    8      1.03      0.00
  -16    6    7     -1.73      0.00
  -16    6    6      1.37      0.00
  -16    6    5      3.69      0.00
  -16    6    4     -5.05      0.00
  -16    6    3     -5.66      0.00
  -16    6    2     -6.35      0.00
  -16    6    1      0.11      0.00
   16    6    0     -2.62      0.00
   16    6    1     -0.79      0.00
   16    6    2     -2.13      0.00
   16    6    3      2.90      0.00
   16    6    4      0.49      0.00
   16    6    5      6.58      0.00
   16    6    6      0.05      0.00
   16    6    7     -0.03      0.00
   16    6    8     -2.41      0.00
   16    6    9      0.32      0.00
   16    6   10      0.17      0.00
   16    6   11      0.92      0.00
  -16    7   15      0.47      0.00
  -16    7   14     -0.66      0.00
  -16    7   13     -2.19      0.00
  -16    7   12      2.58      0.00
  -16    7   11      0.65      0.00
  -16    7   10      2.21      0.00
  -16    7    9      0.25      0.00
  -16    7    8      5.45      0.00
  -16    7    7      0.06      0.00
  -16    7    6      0.68      0.00
  -16    7    5      1.13      0.00
  -16    7    4      2.83      0.00
  -16    7    3      2.17      0.00
  -16    7    2     -0.95      0.00
  -16    7    1      0.32      0.00
   16    7    0     -4.16      0.00
   16    7    1     -2.94      0.00
   16    7    2      0.47      0.00
   16    7    3     -2.41      0.00
   16    7    4     -0.18      0.00
   16    7    5     -0.10      0.00
   16    7    6      3.32      0.00
   16    7    7     -0.82      0.00
   16    7    8      1.06      0.00
   16    7    9      2.31      0.00
   16    7   10      0.80      0.00
   16    7   11     -1.01      0.00
  -16    8   14     -1.24      0.00
  -16    8   13      0.04      0.00
  -16    8   12      0.21      0.00
  -16    8   11     -0.36      0.00
  -16    8   10     -2.01      0.00
  -16    8    9      0.21      0.00
  -16    8    8     -1.68      0.00
  -16    8    7      3.52      0.00
  -16    8    6     -3.61      0.00
  -16    8    5     -1.56      0.00
  -16    8    4     -1.41      0.00
  -16    8    3     -0.71      0.00
  -16    8    2      0.96      0.00
  -16    8    1     -3.02      0.00
   16    8    0     -0.19      0.00
   16    8    1      3.31      0.00
   16    8    2      1.96      0.00
   16    8    3      3.43      0.00
   16    8    4     -3.30      0.00
   16    8    5     -1.92      0.00
   16    8    6     -0.39      0.00
   16    8    7     -0.21      0.00
   16    8    8     -0.62      0.00
   16    8    9      1.32      0.00
   16    8   10      0.21      0.00
   16    8   11      0.43      0.00
  -16    9   14     -0.32      0.00
  -16    9   13      1.87      0.00
  -16    9   12     -1.21      0.00
  -16    9   11      2.41      0.00
  -16    9   10     -1.33      0.00
  -16    9    9      2.53      0.00
  -16    9    8     -5.52      0.00
  -16    9    7      1.79      0.00
  -16    9    6     -2.29      0.00
  -16    9    5      5.63      0.00
  -16    9    4     -0.67      0.00
  -16    9    3     -0.95      0.00
  -16    9    2      3.83      0.00
  -16    9    1     -0.43      0.00
   16    9    0      1.71      0.00
   16    9    1      1.52      0.00
   16    9    2     -2.50      0.00
   16    9    3      5.52      0.00
   16    9    4     -0.81      0.00
   16    9    5      2.71      0.00
   16    9    6     -2.07      0.00
   16    9    7      4.53      0.00
   16    9    8     -2.46      0.00
   16    9    9     -2.04      0.00
   16    9   10     -3.65      0.00
  -16   10   13      0.22      0.00
  -16   10   12     -2.15      0.00
  -16   10   11     -0.64      0.00
  -16   10   10     -0.24      0.00
  -16   10    9      3.15      0.00
  -16   10    8      1.37      0.00
  -16   10    7     -3.62      0.00
  -16   10    6      0.74      0.00
  -16   10    5     -1.24      0.00
  -16   10    4      0.16      0.00
  -16   10    3     -0.76      0.00
  -16   10    2      1.96      0.00
  -16   10    1      0.63      0.00
   16   10    0      2.51      0.00
   16   10    1      0.10      0.00
   16   10    2     -2.57      0.00
   16   10    3     -2.20      0.00
   16   10    4      1.10      0.00
   16   10    5     -1.87      0.00
   16   10    6     -2.18      0.00
   16   10    7     -0.16      0.00
   16   10    8     -1.95      0.00
   16   10    9      0.94      0.00
  -16   11   13      0.19      0.00
  -16   11   12      2.37      0.00
  -16   11   11     -0.79      0.00
  -16   11   10     -2.43      0.00
  -16   11    9     -4.63      0.00
  -16   11    8      2.87      0.00
  -16   11    7     -0.76      0.00
  -16   11    6      4.81      0.00
  -16   11    5     -5.18      0.00
  -16   11    4      1.50      0.00
  -16   11    3      0.87      0.00
  -16   11    2     -6.08      0.00
  -16   11    1     -0.69      0.00
   16   11    0     -2.00      0.00
   16   11    1     -2.11      0.00
   16   11    2     -1.68      0.00
   16   11    3     -6.67      0.00
   16   11    4      3.44      0.00
   16   11    5     -1.40      0.00
   16   11    6      3.81      0.00
   16   11    7     -0.92      0.00
   16   11    8      1.72      0.00
   16   11    9      3.30      0.00
  -16   12   12     -0.38      0.00
  -16   12   11      1.66      0.00
  -16   12   10      3.41      0.00
  -16   12    9      0.22      0.00
  -16   12    8     -0.97      0.00
  -16   12    7      0.86      0.00
  -16   12    6     -2.01      0.00
  -16   12    5      0.08      0.00
  -16   12    4      0.89      0.00
  -16   12    3      2.90      0.00
  -16   12    2     -4.71      0.00
  -16   12    1      5.05      0.00
   16   12    0     -2.99      0.00
   16   12    1      3.07      0.00
   16   12    2      6.50      0.00
   16   12    3      1.83      0.00
   16   12    4      3.13      0.00
   16   12    5     -1.59      0.00
   16   12    6     -1.49      0.00
   16   12    7     -1.92      0.00
   16   12    8     -0.25      0.00
  -16   13   11     -0.48      0.00
  -16   13   10      0.07      0.00
  -16   13    9      2.52      0.00
  -16   13    8     -1.00      0.00
  -16   13    7      3.11      0.00
  -16   13    6     -3.99      0.00
  -16   13    5      3.15      0.00
  -16   13    4      0.19      0.00
  -16   13    3      0.28      0.00
  -16   13    2      0.81      0.00
  -16   13    1      5.49      0.00
   16   13    0      3.34      0.00
   16   13    1      0.61      0.00
   16   13    2     -0.71      0.00
   16   13    3     -0.90      0.00
   16   13    4     -2.13      0.00
   16   13    5      1.04      0.00
   16   13    6     -1.58      0.00
   16   13    7      1.71      0.00
  -16   14    9     -1.16      0.00
  -16   14    7      1.79      0.00
  -16   14    6      0.69      0.00
  -16   14    5      1.05      0.00
  -16   14    4      0.45      0.00
  -16   14    3     -3.95      0.00
  -16   14    2      1.20      0.00
  -16   14    1     -0.59      0.00
   16   14    0     -1.41      0.00
   16   14    1     -3.96      0.00
   16   14    2     -1.13      0.00
   16   14    3     -0.99      0.00
   16   14    4     -0.67      0.00
   16   14    5      3.45      0.00
   16   14    6      3.11      0.00
  -16   15    7     -0.60      0.00
  -16   15    6     -1.60      0.00
  -16   15    5     -1.22      0.00
  -16   15    4     -0.50      0.00
  -16   15    3     -1.08      0.00
  -16   15    2      1.00      0.00
  -16   15    1     -1.49      0.00
   16   15    0      0.73      0.00
   16   15    1      0.56      0.00
   16   15    2      2.98      0.00
   16   15    3      1.05      0.00
   16   15    4      0.35      0.00
  -16   16    5      1.56      0.00
  -16   16    4     -1.30      0.00
  -16   16    3      2.45      0.00
  -16   16    2      0.07      0.00
  -16   16    1      0.11      0.00
   16   16    0     -0.13      0.00
   16   16    1      1.14      0.00
   16   16    2     -1.67      0.00
  -17    0   16      0.68      0.00
  -17    0   14      0.02      0.00
  -17    0   12     -0.24      0.00
  -17    0   10      5.10      0.00
  -17    0    8      4.12      0.00
  -17    0    6      8.95      0.00
  -17    0    4     12.33      0.00
  -17    0    2      9.33      0.00
   17    0    0      8.22      0.00
   17    0    2     25.68      0.00
   17    0    4     12.33      0.00
   17    0    6     -0.70      0.00
   17    0    8     -0.82      0.00
   17    0   10      4.09      0.00
   17    0   12      1.22      0.00
  -17    1   16      0.24      0.00
  -17    1   15     -0.41      0.00
  -17    1   14     -2.21      0.00
  -17    1   13     -0.22      0.00
  -17    1   12     -2.10      0.00
  -17    1   11     -1.09      0.00
  -17    1   10      1.69      0.00
  -17    1    9     -2.00      0.00
  -17    1    8      0.42      0.00
  -17    1    7     -2.38      0.00
  -17    1    6     -4.74      0.00
  -17    1    5     -4.07      0.00
  -17    1    4      3.35      0.00
  -17    1    3     -4.19      0.00
  -17    1    2      7.17      0.00
  -17    1    1      1.03      0.00
   17    1    0     -0.54      0.00
   17    1    1     -8.03      0.00
   17    1    2      2.70      0.00
   17    1    3     -8.82      0.00
   17    1    4     -6.99      0.00
   17    1    5      0.45      0.00
   17    1    6      2.88      0.00
   17    1    7      1.67      0.00
   17    1    8     -0.73      0.00
   17    1    9     -1.59      0.00
   17    1   10      0.25      0.00
   17    1   11     -2.28      0.00
   17    1   12     -0.62      0.00
  -17    2   16     -0.16      0.00
  -17    2   15      1.15      0.00
  -17    2   14      1.07      0.00
  -17    2   13      1.02      0.00
  -17    2   12      2.08      0.00
  -17    2   11     -0.61      0.00
  -17    2   10     -2.35      0.00
  -17    2    9     -0.11      0.00
  -17    2    8     -0.52      0.00
  -17    2    7      0.39      0.00
  -17    2    6     -4.67      0.00
  -17    2    5      1.30      0.00
  -17    2    4     -2.95      0.00
  -17    2    3     -4.25      0.00
  -17    2    2     -6.88      0.00
  -17    2    1     -4.05      0.00
   17    2    0     -0.49      0.00
   17    2    1     -7.48      0.00
   17    2    2     -8.14      0.00
   17    2    3     -1.35      0.00
   17    2    4     -5.92      0.00
   17    2    5      0.45      0.00
   17    2    6     -2.69      0.00
   17    2    7     -4.17      0.00
   17    2    8      1.28      0.00
   17    2    9     -2.45      0.00
   17    2   10      0.88      0.00
   17    2   11      1.57      0.00
   17    2   12     -1.14      0.00
  -17    3   16     -0.54      0.00
  -17    3   15      0.69      0.00
  -17    3   14     -0.15      0.00
  -17    3   13     -2.89      0.00
  -17    3   12      2.22      0.00
  -17    3   11     -0.23      0.00
  -17    3   10     -0.84      0.00
  -17    3    9      0.53      0.00
  -17    3    8     -2.07      0.00
  -17    3    7      2.15      0.00
  -17    3    6      3.52      0.00
  -17    3    5     -0.06      0.00
  -17    3    4      0.86      0.00
  -17    3    3      0.01      0.00
  -17    3    2      1.71      0.00
  -17    3    1     -9.78      0.00
   17    3    0      3.10      0.00
   17    3    1     -2.88      0.00
   17    3    2      4.30      0.00
   17    3    3      4.50      0.00
   17    3    4      2.48      0.00
   17    3    5     -1.18      0.00
   17    3    6     -4.60      0.00
   17    3    7     -1.40      0.00
   17    3    8      2.44      0.00
   17    3    9     -0.52      0.00
   17    3   10      0.07      0.00
   17    3   11      1.99      0.00
   17    3   12     -0.42      0.00
  -17    4   15      0.35      0.00
  -17    4   14     -0.38      0.00
  -17    4   13     -0.27      0.00
  -17    4   12     -0.08      0.00
  -17    4   11      1.09      0.00
  -17    4   10      0.93      0.00
  -17    4    9      2.33      0.00
  -17    4    8     -0.23      0.00
  -17    4    7      1.12      0.00
  -17    4    6      2.95      0.00
  -17    4    5     -4.28      0.00
  -17    4    4      1.56      0.00
  -17    4    3     -4.55      0.00
  -17    4    2     13.04      0.00
  -17    4    1      2.25      0.00
   17    4    0     10.45      0.00
   17    4    1      3.02      0.00
   17    4    2      5.96      0.00
   17    4    3     -1.82      0.00
   17    4    4      3.45      0.00
   17    4    5      6.29      0.00
   17    4    6      6.16      0.00
   17    4    7      6.90      0.00
   17    4    8      0.11      0.00
   17    4    9      0.90      0.00
   17    4   10     -2.38      0.00
   17    4   11     -1.70      0.00
  -17    5   15      1.07      0.00
  -17    5   14      1.95      0.00
  -17    5   13      1.19      0.00
  -17    5   12     -3.20      0.00
  -17    5   11      2.07      0.00
  -17    5   10     -3.53      0.00
  -17    5    9     -0.17      0.00
  -17    5    8      0.85      0.00
  -17    5    7     -2.22      0.00
  -17    5    6     -1.87      0.00
  -17    5    5      5.29      0.00
  -17    5    4      5.83      0.00
  -17    5    3      0.45      0.00
  -17    5    2     -0.59      0.00
  -17    5    1     -0.82      0.00
   17    5    0     -1.67      0.00
   17    5    1      1.88      0.00
   17    5    2     -1.05      0.00
   17    5    3     -0.53      0.00
   17    5    4     -3.36      0.00
   17    5    5     -2.04      0.00
   17    5    6     -3.69      0.00
   17    5    7     -4.27      0.00
   17    5    8     -3.02      0.00
   17    5    9      1.72      0.00
   17    5   10      1.59      0.00
   17    5   11     -2.51      0.00
  -17    6   15     -1.20      0.00
  -17    6   14      0.08      0.00
  -17    6   13     -1.11      0.00
  -17    6   12      0.22      0.00
  -17    6   11      3.81      0.00
  -17    6   10     -2.19      0.00
  -17    6    9     -0.94      0.00
  -17    6    8      3.04      0.00
  -17    6    7     -2.45      0.00
  -17    6    6     -4.11      0.00
  -17    6    5     -2.13      0.00
  -17    6    4     -6.72      0.00
  -17    6    3      2.48      0.00
  -17    6    2     -5.52      0.00
  -17    6    1     -0.92      0.00
   17    6    0     -4.72      0.00
   17    6    1     -1.43      0.00
   17    6    2     -4.62      0.00
   17    6    3      2.98      0.00
   17    6    4     -0.60      0.00
   17    6    5     -1.16      0.00
   17    6    6      0.53      0.00
   17    6    7     -1.81      0.00
   17    6    8      1.13      0.00
   17    6    9     -2.02      0.00
   17    6   10      2.44      0.00
   17    6   11      1.00      0.00
  -17    7   14     -2.30      0.00
  -17    7   13     -0.35      0.00
  -17    7   12     -0.51      0.00
  -17    7   11     -2.26      0.00
  -17    7   10      1.09      0.00
  -17    7    9      0.64      0.00
  -17    7    8      0.39      0.00
  -17    7    7      2.29      0.00
  -17    7    6      6.33      0.00
  -17    7    5      0.85      0.00
  -17    7    4     -1.98      0.00
  -17    7    3      0.91      0.00
  -17    7    2      0.81      0.00
  -17    7    1     -0.40      0.00
   17    7    0     -0.80      0.00
   17    7    1     -1.00      0.00
   17    7    2     -3.56      0.00
   17    7    3      0.64      0.00
   17    7    4      1.75      0.00
   17    7    5      1.02      0.00
   17    7    6      2.92      0.00
   17    7    7      1.47      0.00
   17    7    8      4.51      0.00
   17    7    9     -1.85      0.00
   17    7   10     -1.76      0.00
  -17    8   14     -1.66      0.00
  -17    8   13      2.66      0.00
  -17    8   12     -1.09      0.00
  -17    8   11     -1.19      0.00
  -17    8   10      1.97      0.00
  -17    8    9      1.21      0.00
  -17    8    8     -7.03      0.00
  -17    8    7      0.23      0.00
  -17    8    6     -2.40      0.00
  -17    8    5     -0.14      0.00
  -17    8    4      2.24      0.00
  -17    8    3     -2.16      0.00
  -17    8    2      0.97      0.00
  -17    8    1     -2.00      0.00
   17    8    0      0.48      0.00
   17    8    1      4.39      0.00
   17    8    2      0.90      0.00
   17    8    3     -0.78      0.00
   17    8    4     -3.71      0.00
   17    8    5     -1.78      0.00
   17    8    6     -2.44      0.00
   17    8    7     -4.42      0.00
   17    8    8     -0.20      0.00
   17    8    9      1.14      0.00
   17    8   10     -1.77      0.00
  -17    9   13      3.59      0.00
  -17    9   12      1.03      0.00
  -17    9   11      2.14      0.00
  -17    9   10     -1.43      0.00
  -17    9    9      2.84      0.00
  -17    9    8      0.30      0.00
  -17    9    7      4.76      0.00
  -17    9    6     -4.22      0.00
  -17    9    5      0.64      0.00
  -17    9    4      1.92      0.00
  -17    9    3     -0.06      0.00
  -17    9    2      2.23      0.00
  -17    9    1      2.50      0.00
   17    9    0     -3.38      0.00
   17    9    1      2.03      0.00
   17    9    2      2.93      0.00
   17    9    3      2.15      0.00
   17    9    4     -0.81      0.00
   17    9    5      3.27      0.00
   17    9    6      4.01      0.00
   17    9    7     -0.10      0.00
   17    9    8      1.47      0.00
   17    9    9      2.35      0.00
  -17   10   13     -4.99      0.00
  -17   10   12     -1.26      0.00
  -17   10   11      0.79      0.00
  -17   10   10     -3.12      0.00
  -17   10    9     -1.94      0.00
  -17   10    8      1.25      0.00
  -17   10    7     -1.42      0.00
  -17   10    6      2.20      0.00
  -17   10    5     -1.31      0.00
  -17   10    4      0.62      0.00
  -17   10    3     -1.76      0.00
  -17   10    2      0.34      0.00
  -17   10    1     -3.33      0.00
   17   10    0     -1.50      0.00
   17   10    1     -1.52      0.00
   17   10    2     -1.48      0.00
   17   10    3     -0.35      0.00
   17   10    4     -0.31      0.00
   17   10    5      0.32      0.00
   17   10    6     -0.17      0.00
   17   10    7     -1.73      0.00
   17   10    8     -0.08      0.00
   17   10    9     -1.80      0.00
  -17   11   12      1.41      0.00
  -17   11   11     -0.54      0.00
  -17   11   10      0.63      0.00
  -17   11    9     -0.03      0.00
  -17   11    8      1.42      0.00
  -17   11    7     -5.81      0.00
  -17   11    6      4.54      0.00
  -17   11    5     -1.83      0.00
  -17   11    4      0.78      0.00
  -17   11    3     -2.21      0.00
  -17   11    2      0.72      0.00
  -17   11    1     -0.09      0.00
   17   11    0      0.21      0.00
   17   11    1     -0.07      0.00
   17   11    2     -1.40      0.00
   17   11    3      0.54      0.00
   17   11    4      0.88      0.00
   17   11    5     -0.72      0.00
   17   11    6     -0.84      0.00
   17   11    7      0.01      0.00
   17   11    8     -1.29      0.00
  -17   12   11     -1.62      0.00
  -17   12   10      1.23      0.00
  -17   12    9      2.39      0.00
  -17   12    8      1.97      0.00
  -17   12    7     -1.70      0.00
  -17   12    6     -0.09      0.00
  -17   12    5      0.16      0.00
  -17   12    4     -0.44      0.00
  -17   12    3      2.32      0.00
  -17   12    2     -0.29      0.00
  -17   12    1      1.88      0.00
   17   12    0      0.30      0.00
   17   12    1      0.35      0.00
   17   12    2     -1.30      0.00
   17   12    3     -0.98      0.00
   17   12    4     -0.94      0.00
   17   12    5     -2.97      0.00
   17   12    6      0.05      0.00
   17   12    7      1.94      0.00
  -17   13   10     -0.68      0.00
  -17   13    9     -2.37      0.00
  -17   13    8     -0.78      0.00
  -17   13    7      2.62      0.00
  -17   13    6      0.53      0.00
  -17   13    5      0.72      0.00
  -17   13    4     -3.69      0.00
  -17   13    3      3.16      0.00
  -17   13    2     -1.38      0.00
  -17   13    1     -3.05      0.00
   17   13    0     -0.45      0.00
   17   13    1      1.42      0.00
   17   13    2      1.24      0.00
   17   13    3      2.54      0.00
   17   13    4      2.29      0.00
   17   13    5      1.70      0.00
   17   13    6     -0.57      0.00
  -17   14    7     -0.96      0.00
  -17   14    6      0.03      0.00
  -17   14    5     -0.04      0.00
  -17   14    4     -0.65      0.00
  -17   14    3      2.45      0.00
  -17   14    2      1.26      0.00
  -17   14    1     -2.55      0.00
   17   14    0      2.11      0.00
   17   14    1      0.94      0.00
   17   14    2     -1.14      0.00
   17   14    3     -1.00      0.00
   17   14    4     -1.66      0.00
  -17   15    6      0.47      0.00
  -17   15    5      0.32      0.00
  -17   15    4     -0.68      0.00
  -17   15    3     -2.61      0.00
  -17   15    2     -0.62      0.00
  -17   15    1      1.03      0.00
   17   15    0     -2.23      0.00
   17   15    1     -1.37      0.00
   17   15    2     -0.89      0.00
  -18    0   14      0.32      0.00
  -18    0   12     -0.67      0.00
  -18    0   10      3.99      0.00
  -18    0    8      7.63      0.00
  -18    0    6      5.57      0.00
  -18    0    4      6.58      0.00
  -18    0    2      6.33      0.00
   18    0    0     15.01      0.00
   18    0    2     -4.27      0.00
   18    0    4      5.32      0.00
   18    0    6     10.48      0.00
   18    0    8      0.55      0.00
   18    0   10     -2.80      0.00
  -18    1   15     -0.77      0.00
  -18    1   14     -2.33      0.00
  -18    1   13      0.61      0.00
  -18    1   12     -0.27      0.00
  -18    1   11      0.18      0.00
  -18    1   10      0.01      0.00
  -18    1    9     -2.68      0.00
  -18    1    8      0.74      0.00
  -18    1    7     -2.20      0.00
  -18    1    6     -6.04      0.00
  -18    1    5     -0.16      0.00
  -18    1    4     -5.46      0.00
  -18    1    3     -0.62      0.00
  -18    1    2     -3.45      0.00
  -18    1    1     -6.60      0.00
   18    1    0     -3.74      0.00
   18    1    1      0.33      0.00
   18    1    2     -4.83      0.00
   18    1    3      5.81      0.00
   18    1    4      2.49      0.00
   18    1    5     -3.16      0.00
   18    1    6     -0.63      0.00
   18    1    7     -1.49      0.00
   18    1    8     -1.10      0.00
   18    1    9      0.52      0.00
   18    1   10     -0.91      0.00
   18    1   11      0.87      0.00
  -18    2   15      1.37      0.00
  -18    2   14      0.31      0.00
  -18    2   13      1.92      0.00
  -18    2   12     -0.47      0.00
  -18    2   11     -1.76      0.00
  -18    2   10     -1.10      0.00
  -18    2    9     -0.70      0.00
  -18    2    8     -4.41      0.00
  -18    2    7     -0.52      0.00
  -18    2    6     -3.49      0.00
  -18    2    5      3.20      0.00
  -18    2    4     -7.01      0.00
  -18    2    3      7.46      0.00
  -18    2    2      1.08      0.00
  -18    2    1      1.91      0.00
   18    2    0     -7.42      0.00
   18    2    1      5.48      0.00
   18    2    2     -4.05      0.00
   18    2    3     -5.09      0.00
   18    2    4     -8.28      0.00
   18    2    5     -6.50      0.00
   18    2    6     -4.61      0.00
   18    2    7     -0.78      0.00
   18    2    8      1.07      0.00
   18    2    9     -1.25      0.00
   18    2   10      2.67      0.00
   18    2   11     -1.37      0.00
  -18    3   15      1.52      0.00
  -18    3   14     -1.73      0.00
  -18    3   13     -0.77      0.00
  -18    3   12      0.00      0.00
  -18    3   11     -1.19      0.00
  -18    3   10      1.29      0.00
  -18    3    9      2.25      0.00
  -18    3    8     -0.52      0.00
  -18    3    7      2.77      0.00
  -18    3    6      5.27      0.00
  -18    3    5     -0.47      0.00
  -18    3    4     -2.22      0.00
  -18    3    3     -4.38      0.00
  -18    3    2     -5.02      0.00
  -18    3    1      1.79      0.00
   18    3    0     -1.67      0.00
   18    3    1      0.85      0.00
   18    3    2      2.93      0.00
   18    3    3     -1.56      0.00
   18    3    4      6.28      0.00
   18    3    5      4.36      0.00
   18    3    6      4.01      0.00
   18    3    7     -0.72      0.00
   18    3    8     -1.43      0.00
   18    3    9     -3.72      0.00
   18    3   10      1.96      0.00
   18    3   11     -0.92      0.00
  -18    4   15      1.41      0.00
  -18    4   14     -0.48      0.00
  -18    4   13      2.13      0.00
  -18    4   12      0.94      0.00
  -18    4   11      1.96      0.00
  -18    4   10      0.32      0.00
  -18    4    9      1.70      0.00
  -18    4    8      1.94      0.00
  -18    4    7      0.00      0.00
  -18    4    6      2.20      0.00
  -18    4    5     -1.10      0.00
  -18    4    4     12.47      0.00
  -18    4    3      2.21      0.00
  -18    4    2      2.51      0.00
  -18    4    1     -1.24      0.00
   18    4    0      3.75      0.00
   18    4    1     -4.48      0.00
   18    4    2      2.57      0.00
   18    4    3      1.75      0.00
   18    4    4      5.14      0.00
   18    4    5     -0.19      0.00
   18    4    6      0.16      0.00
   18    4    7      3.28      0.00
   18    4    8      0.71      0.00
   18    4    9      3.08      0.00
   18    4   10      0.95      0.00
   18    4   11      0.92      0.00
  -18    5   15     -0.77      0.00
  -18    5   14     -0.79      0.00
  -18    5   13      0.12      0.00
  -18    5   12     -3.13      0.00
  -18    5   11      1.14      0.00
  -18    5   10     -2.67      0.00
  -18    5    9     -1.04      0.00
  -18    5    8     -1.23      0.00
  -18    5    7     -1.83      0.00
  -18    5    6     -3.78      0.00
  -18    5    5     -5.46      0.00
  -18    5    4     -3.94      0.00
  -18    5    3     -1.21      0.00
  -18    5    2      2.05      0.00
  -18    5    1      0.81      0.00
   18    5    0      6.45      0.00
   18    5    1      1.86      0.00
   18    5    2      2.14      0.00
   18    5    3      0.51      0.00
   18    5    4     -4.13      0.00
   18    5    5     -2.75      0.00
   18    5    6     -4.28      0.00
   18    5    7      3.27      0.00
   18    5    8     -2.71      0.00
   18    5    9      0.89      0.00
   18    5   10     -2.70      0.00
  -18    6   14      0.22      0.00
  -18    6   13      1.28      0.00
  -18    6   12      0.45      0.00
  -18    6   11      0.19      0.00
  -18    6   10      0.64      0.00
  -18    6    9     -0.15      0.00
  -18    6    8     -0.89      0.00
  -18    6    7      0.15      0.00
  -18    6    6      3.10      0.00
  -18    6    5      4.08      0.00
  -18    6    4     -3.52      0.00
  -18    6    3     -1.56      0.00
  -18    6    2     -1.92      0.00
  -18    6    1      4.56      0.00
   18    6    0     -2.84      0.00
   18    6    1     -4.95      0.00
   18    6    2     -2.16      0.00
   18    6    3     -2.95      0.00
   18    6    4      0.68      0.00
   18    6    5      2.30      0.00
   18    6    6      0.95      0.00
   18    6    7     -0.32      0.00
   18    6    8     -3.14      0.00
   18    6    9     -0.45      0.00
   18    6   10      0.78      0.00
  -18    7   14     -1.97      0.00
  -18    7   13     -0.99      0.00
  -18    7   12     -2.08      0.00
  -18    7   11     -3.23      0.00
  -18    7   10      2.46      0.00
  -18    7    9     -0.48      0.00
  -18    7    8      1.00      0.00
  -18    7    7      0.11      0.00
  -18    7    6     -0.20      0.00
  -18    7    5      1.21      0.00
  -18    7    4      3.78      0.00
  -18    7    3      0.03      0.00
  -18    7    2     -0.91      0.00
  -18    7    1     -1.25      0.00
   18    7    0      1.00      0.00
   18    7    1     -0.38      0.00
   18    7    2      1.68      0.00
   18    7    3     -1.56      0.00
   18    7    4      2.26      0.00
   18    7    5     -1.04      0.00
   18    7    6      3.24      0.00
   18    7    7      0.26      0.00
   18    7    8      1.57      0.00
   18    7    9      2.04      0.00
  -18    8   13      3.97      0.00
  -18    8   12      1.80      0.00
  -18    8   11      2.77      0.00
  -18    8   10      0.58      0.00
  -18    8    9     -1.43      0.00
  -18    8    8     -0.71      0.00
  -18    8    7      3.47      0.00
  -18    8    6     -4.85      0.00
  -18    8    5     -1.94      0.00
  -18    8    4     -1.37      0.00
  -18    8    3     -1.17      0.00
  -18    8    2      2.16      0.00
  -18    8    1     -1.02      0.00
   18    8    0     -0.01      0.00
   18    8    1      0.99      0.00
   18    8    2     -0.03      0.00
   18    8    3      2.02      0.00
   18    8    4     -0.86      0.00
   18    8    5     -2.11      0.00
   18    8    6     -3.37      0.00
   18    8    7      0.07      0.00
   18    8    8     -1.70      0.00
   18    8    9      1.22      0.00
  -18    9   13     -0.44      0.00
  -18    9   12     -2.20      0.00
  -18    9   11      1.59      0.00
  -18    9   10     -2.41      0.00
  -18    9    9      3.61      0.00
  -18    9    8     -1.88      0.00
  -18    9    7      2.95      0.00
  -18    9    6     -0.92      0.00
  -18    9    5      4.61      0.00
  -18    9    4     -1.03      0.00
  -18    9    3      1.20      0.00
  -18    9    2      2.56      0.00
  -18    9    1     -0.58      0.00
   18    9    0      0.57      0.00
   18    9    1      1.34      0.00
   18    9    2      0.22      0.00
   18    9    3      1.87      0.00
   18    9    4      0.33      0.00
   18    9    5      2.28      0.00
   18    9    6     -1.86      0.00
   18    9    7      2.92      0.00
   18    9    8     -2.43      0.00
  -18   10   12     -1.50      0.00
  -18   10   11     -0.14      0.00
  -18   10   10     -2.58      0.00
  -18   10    9      2.23      0.00
  -18   10    8     -3.42      0.00
  -18   10    7     -3.91      0.00
  -18   10    6      2.02      0.00
  -18   10    5     -0.77      0.00
  -18   10    4      0.13      0.00
  -18   10    3     -0.60      0.00
  -18   10    2     -0.04      0.00
  -18   10    1     -1.20      0.00
   18   10    0      1.03      0.00
   18   10    1     -1.57      0.00
   18   10    2     -0.68      0.00
   18   10    3     -4.10      0.00
   18   10    4     -1.22      0.00
   18   10    5     -0.36      0.00
   18   10    6      1.63      0.00
   18   10    7      0.21      0.00
   18   10    8      2.45      0.00
  -18   11   11      0.91      0.00
  -18   11   10      0.56      0.00
  -18   11    9     -0.95      0.00
  -18   11    8      1.91      0.00
  -18   11    7     -0.06      0.00
  -18   11    6      2.58      0.00
  -18   11    5     -4.99      0.00
  -18   11    4      1.10      0.00
  -18   11    3     -0.27      0.00
  -18   11    2     -3.29      0.00
  -18   11    1      2.18      0.00
   18   11    0     -1.92      0.00
   18   11    1     -0.30      0.00
   18   11    2      1.11      0.00
   18   11    3     -0.47      0.00
   18   11    4      0.66      0.00
   18   11    5      0.19      0.00
   18   11    6      2.79      0.00
   18   11    7     -4.81      0.00
  -18   12   10      0.85      0.00
  -18   12    9     -2.06      0.00
  -18   12    8      2.09      0.00
  -18   12    7      3.44      0.00
  -18   12    6     -1.14      0.00
  -18   12    5      1.17      0.00
  -18   12    4      0.54      0.00
  -18   12    3      2.12      0.00
  -18   12    2     -4.76      0.00
  -18   12    1      1.42      0.00
   18   12    0     -4.03      0.00
   18   12    1      2.59      0.00
   18   12    2      1.06      0.00
   18   12    3      2.32      0.00
   18   12    4      0.63      0.00
   18   12    5     -1.41      0.00
   18   12    6     -0.42      0.00
  -18   13    9      0.01      0.00
  -18   13    8     -1.80      0.00
  -18   13    7     -1.02      0.00
  -18   13    6     -5.50      0.00
  -18   13    5      2.69      0.00
  -18   13    4     -1.25      0.00
  -18   13    3      1.43      0.00
  -18   13    2      2.25      0.00
  -18   13    1      3.78      0.00
   18   13    0      0.08      0.00
   18   13    1      0.47      0.00
   18   13    2     -1.36      0.00
   18   13    3     -1.29      0.00
   18   13    4      0.79      0.00
  -18   14    7      1.67      0.00
  -18   14    6      0.33      0.00
  -18   14    5      2.41      0.00
  -18   14    4      1.47      0.00
  -18   14    3     -1.78      0.00
  -18   14    2      1.54      0.00
  -18   14    1     -2.41      0.00
   18   14    0     -0.34      0.00
   18   14    1     -1.09      0.00
   18   14    2      2.20      0.00
   18   14    3     -1.82      0.00
  -18   15    4     -1.91      0.00
  -18   15    3     -3.99      0.00
  -18   15    2      0.05      0.00
  -18   15    1      0.18      0.00
   18   15    0     -1.42      0.00
  -19    0   14     -0.09      0.00
  -19    0   12     -1.05      0.00
  -19    0   10      4.65      0.00
  -19    0    8      3.70      0.00
  -19    0    6      2.65      0.00
  -19    0    4      1.25      0.00
  -19    0    2      3.02      0.00
   19    0    0     -0.03      0.00
   19    0    2     18.78      0.00
   19    0    4      4.22      0.00
   19    0    6     -1.86      0.00
   19    0    8      0.35      0.00
   19    0   10      1.07      0.00
  -19    1   15      0.05      0.00
  -19    1   14     -1.92      0.00
  -19    1   13      1.02      0.00
  -19    1   12     -3.17      0.00
  -19    1   11     -1.05      0.00
  -19    1   10     -1.81      0.00
  -19    1    9     -1.27      0.00
  -19    1    8      0.37      0.00
  -19    1    7     -0.99      0.00
  -19    1    6     -3.61      0.00
  -19    1    5      1.52      0.00
  -19    1    4     -1.35      0.00
  -19    1    3      1.41      0.00
  -19    1    2      6.20      0.00
  -19    1    1      3.36      0.00
   19    1    0     -3.57      0.00
   19    1    1     -3.29      0.00
   19    1    2     -2.78      0.00
   19    1    3     -4.62      0.00
   19    1    4     -5.53      0.00
   19    1    5      3.78      0.00
   19    1    6      3.52      0.00
   19    1    7      1.94      0.00
   19    1    8      0.92      0.00
   19    1    9     -0.44      0.00
   19    1   10     -1.64      0.00
  -19    2   15      3.22      0.00
  -19    2   14     -1.38      0.00
  -19    2   13      2.50      0.00
  -19    2   12      1.42      0.00
  -19    2   11      1.04      0.00
  -19    2   10     -1.92      0.00
  -19    2    9      1.47      0.00
  -19    2    8     -3.09      0.00
  -19    2    7      1.09      0.00
  -19    2    6     -3.53      0.00
  -19    2    5      2.47      0.00
  -19    2    4     -3.67      0.00
  -19    2    3     -0.21      0.00
  -19    2    2     -7.04      0.00
  -19    2    1     -1.02      0.00
   19    2    0     -1.25      0.00
   19    2    1     -2.25      0.00
   19    2    2     -9.80      0.00
   19    2    3      0.79      0.00
   19    2    4     -5.06      0.00
   19    2    5     -0.45      0.00
   19    2    6     -5.86      0.00
   19    2    7     -3.34      0.00
   19    2    8      0.65      0.00
   19    2    9     -1.31      0.00
   19    2   10      0.80      0.00
  -19    3   14     -3.46      0.00
  -19    3   13     -0.28      0.00
  -19    3   12      1.35      0.00
  -19    3   11     -1.43      0.00
  -19    3   10      0.73      0.00
  -19    3    9      2.64      0.00
  -19    3    8     -2.14      0.00
  -19    3    7      3.86      0.00
  -19    3    6      0.19      0.00
  -19    3    5     -0.18      0.00
  -19    3    4      1.96      0.00
  -19    3    3      0.61      0.00
  -19    3    2     -3.65      0.00
  -19    3    1     -3.74      0.00
   19    3    0      4.30      0.00
   19    3    1      2.72      0.00
   19    3    2      3.17      0.00
   19    3    3      4.06      0.00
   19    3    4      2.40      0.00
   19    3    5      1.67      0.00
   19    3    6     -2.55      0.00
   19    3    7     -0.10      0.00
   19    3    8      0.23      0.00
   19    3    9     -2.58      0.00
   19    3   10      0.14      0.00
  -19    4   14      0.28      0.00
  -19    4   13      0.68      0.00
  -19    4   12      0.40      0.00
  -19    4   11     -1.72      0.00
  -19    4   10      0.50      0.00
  -19    4    9      0.32      0.00
  -19    4    8     -1.10      0.00
  -19    4    7      1.73      0.00
  -19    4    6      1.04      0.00
  -19    4    5     -2.02      0.00
  -19    4    4      1.11      0.00
  -19    4    3     -3.62      0.00
  -19    4    2      8.96      0.00
  -19    4    1      2.69      0.00
   19    4    0      1.53      0.00
   19    4    1      1.14      0.00
   19    4    2      3.38      0.00
   19    4    3     -2.32      0.00
   19    4    4      1.05      0.00
   19    4    5      3.57      0.00
   19    4    6      3.59      0.00
   19    4    7      4.35      0.00
   19    4    8      1.41      0.00
   19    4    9      2.34      0.00
   19    4   10     -0.77      0.00
  -19    5   14      1.74      0.00
  -19    5   13     -1.73      0.00
  -19    5   12      1.26      0.00
  -19    5   11      1.41      0.00
  -19    5   10     -1.21      0.00
  -19    5    9     -0.23      0.00
  -19    5    8     -0.65      0.00
  -19    5    7     -3.37      0.00
  -19    5    6     -1.79      0.00
  -19    5    5      2.61      0.00
  -19    5    4      0.21      0.00
  -19    5    3     -1.11      0.00
  -19    5    2      1.85      0.00
  -19    5    1      0.06      0.00
   19    5    0     -0.72      0.00
   19    5    1      1.07      0.00
   19    5    2      1.64      0.00
   19    5    3      1.00      0.00
   19    5    4     -2.29      0.00
   19    5    5      0.39      0.00
   19    5    6     -3.87      0.00
   19    5    7     -2.50      0.00
   19    5    8     -3.13      0.00
   19    5    9      2.29      0.00
  -19    6   14      1.55      0.00
  -19    6   13     -4.11      0.00
  -19    6   12      0.99      0.00
  -19    6   11     -0.13      0.00
  -19    6   10     -0.91      0.00
  -19    6    9      0.92      0.00
  -19    6    8      4.26      0.00
  -19    6    7      0.61      0.00
  -19    6    6      0.07      0.00
  -19    6    5      1.80      0.00
  -19    6    4     -1.65      0.00
  -19    6    3      4.29      0.00
  -19    6    2     -4.43      0.00
  -19    6    1     -1.31      0.00
   19    6    0      0.98      0.00
   19    6    1     -5.46      0.00
   19    6    2     -1.92      0.00
   19    6    3      1.55      0.00
   19    6    4     -2.63      0.00
   19    6    5      2.11      0.00
   19    6    6     -1.15      0.00
   19    6    7      2.16      0.00
   19    6    8     -0.26      0.00
   19    6    9     -1.16      0.00
  -19    7   13      0.86      0.00
  -19    7   12      0.76      0.00
  -19    7   11     -0.73      0.00
  -19    7   10      1.03      0.00
  -19    7    9     -3.26      0.00
  -19    7    8     -1.00      0.00
  -19    7    7     -0.19      0.00
  -19    7    6      0.42      0.00
  -19    7    5     -1.48      0.00
  -19    7    4     -2.70      0.00
  -19    7    3      0.62      0.00
  -19    7    2     -1.60      0.00
  -19    7    1     -2.05      0.00
   19    7    0      2.76      0.00
   19    7    1     -4.26      0.00
   19    7    2     -1.27      0.00
   19    7    3     -0.47      0.00
   19    7    4     -2.26      0.00
   19    7    5      0.27      0.00
   19    7    6     -0.38      0.00
   19    7    7      1.02      0.00
   19    7    8      1.22      0.00
   19    7    9     -1.71      0.00
  -19    8   13      2.33      0.00
  -19    8   12     -3.21      0.00
  -19    8   11     -0.16      0.00
  -19    8   10      1.80      0.00
  -19    8    9      1.75      0.00
  -19    8    8     -1.25      0.00
  -19    8    7      1.39      0.00
  -19    8    6     -0.86      0.00
  -19    8    5      2.16      0.00
  -19    8    4      0.80      0.00
  -19    8    3     -0.13      0.00
  -19    8    2      2.02      0.00
  -19    8    1      3.11      0.00
   19    8    0      1.27      0.00
   19    8    1      2.02      0.00
   19    8    2      0.55      0.00
   19    8    3      2.44      0.00
   19    8    4      0.29      0.00
   19    8    5      0.90      0.00
   19    8    6      0.99      0.00
   19    8    7     -0.53      0.00
   19    8    8      0.73      0.00
  -19    9   12      1.07      0.00
  -19    9   11      2.77      0.00
  -19    9   10     -3.15      0.00
  -19    9    9      1.94      0.00
  -19    9    8     -1.88      0.00
  -19    9    7      0.99      0.00
  -19    9    6     -2.21      0.00
  -19    9    5     -0.85      0.00
  -19    9    4     -1.44      0.00
  -19    9    3     -0.38      0.00
  -19    9    2     -0.83      0.00
  -19    9    1      1.58      0.00
   19    9    0      0.73      0.00
   19    9    1      2.83      0.00
   19    9    2      0.12      0.00
   19    9    3      2.30      0.00
   19    9    4     -0.17      0.00
   19    9    5     -0.90      0.00
   19    9    6     -2.47      0.00
   19    9    7     -0.93      0.00
  -19   10   11      0.85      0.00
  -19   10   10     -2.42      0.00
  -19   10    9      1.59      0.00
  -19   10    8     -0.14      0.00
  -19   10    7     -1.66      0.00
  -19   10    6      3.35      0.00
  -19   10    5     -1.06      0.00
  -19   10    4      3.08      0.00
  -19   10    3      0.19      0.00
  -19   10    2     -1.17      0.00
  -19   10    1      0.03      0.00
   19   10    0     -1.79      0.00
   19   10    1     -1.26      0.00
   19   10    2     -1.00      0.00
   19   10    3     -1.89      0.00
   19   10    4      0.09      0.00
   19   10    5      1.93      0.00
   19   10    6     -0.93      0.00
   19   10    7      4.76      0.00
  -19   11   10     -1.32      0.00
  -19   11    9      0.27      0.00
  -19   11    8      1.81      0.00
  -19   11    7     -2.03      0.00
  -19   11    6      3.48      0.00
  -19   11    5     -2.73      0.00
  -19   11    4      1.53      0.00
  -19   11    3     -2.21      0.00
  -19   11    2     -1.27      0.00
  -19   11    1      0.93      0.00
   19   11    0      2.57      0.00
   19   11    1     -0.69      0.00
   19   11    2      0.75      0.00
   19   11    3     -2.14      0.00
   19   11    4     -0.49      0.00
   19   11    5      1.13      0.00
   19   11    6     -1.55      0.00
  -19   12    9      1.88      0.00
  -19   12    8     -0.44      0.00
  -19   12    7     -2.09      0.00
  -19   12    6     -0.35      0.00
  -19   12    5      0.85      0.00
  -19   12    4      1.17      0.00
  -19   12    3      0.97      0.00
  -19   12    2     -0.49      0.00
  -19   12    1      3.36      0.00
   19   12    0     -0.56      0.00
   19   12    1     -2.68      0.00
   19   12    2     -0.78      0.00
   19   12    3      1.40      0.00
   19   12    4     -0.75      0.00
  -19   13    7      1.17      0.00
  -19   13    6     -0.63      0.00
  -19   13    5     -2.66      0.00
  -19   13    4     -2.96      0.00
  -19   13    3      2.61      0.00
  -19   13    2      0.61      0.00
  -19   13    1      0.98      0.00
   19   13    0      0.75      0.00
   19   13    1      2.99      0.00
   19   13    2      0.19      0.00
   19   13    3      4.14      0.00
  -19   14    5      0.62      0.00
  -19   14    4     -0.56      0.00
  -19   14    3      0.07      0.00
  -19   14    2     -2.33      0.00
  -19   14    1     -3.10      0.00
   19   14    0     -2.30      0.00
  -20    0   14     -0.44      0.00
  -20    0   12     -0.02      0.00
  -20    0   10      0.05      0.00
  -20    0    8      4.29      0.00
  -20    0    6      4.67      0.00
  -20    0    4      5.43      0.00
  -20    0    2      1.25      0.00
   20    0    0     10.35      0.00
   20    0    2      6.99      0.00
   20    0    4      4.71      0.00
   20    0    6      3.94      0.00
   20    0    8     -0.42      0.00
  -20    1   14     -0.82      0.00
  -20    1   13      0.55      0.00
  -20    1   12     -1.29      0.00
  -20    1   11      1.00      0.00
  -20    1   10     -1.67      0.00
  -20    1    9      0.25      0.00
  -20    1    8      1.42      0.00
  -20    1    7     -0.87      0.00
  -20    1    6     -2.64      0.00
  -20    1    5      0.40      0.00
  -20    1    4     -1.63      0.00
  -20    1    3      2.74      0.00
  -20    1    2     -3.02      0.00
  -20    1    1     -0.44      0.00
   20    1    0     -2.83      0.00
   20    1    1     -3.40      0.00
   20    1    2      0.55      0.00
   20    1    3     -0.35      0.00
   20    1    4      0.83      0.00
   20    1    5     -1.63      0.00
   20    1    6     -2.81      0.00
   20    1    7      0.17      0.00
   20    1    8     -0.47      0.00
   20    1    9      0.82      0.00
  -20    2   14      0.16      0.00
  -20    2   13      1.09      0.00
  -20    2   12     -0.23      0.00
  -20    2   11     -0.26      0.00
  -20    2   10     -0.42      0.00
  -20    2    9     -0.59      0.00
  -20    2    8     -4.08      0.00
  -20    2    7      0.03      0.00
  -20    2    6     -4.99      0.00
  -20    2    5      0.68      0.00
  -20    2    4     -8.22      0.00
  -20    2    3      1.19      0.00
  -20    2    2     -4.65      0.00
  -20    2    1      1.96      0.00
   20    2    0     -6.33      0.00
   20    2    1      0.87      0.00
   20    2    2     -3.12      0.00
   20    2    3     -4.40      0.00
   20    2    4     -4.11      0.00
   20    2    5     -2.15      0.00
   20    2    6     -1.56      0.00
   20    2    7     -0.09      0.00
   20    2    8     -0.95      0.00
   20    2    9     -1.15      0.00
  -20    3   14      0.66      0.00
  -20    3   13     -2.72      0.00
  -20    3   12      0.76      0.00
  -20    3   11     -2.72      0.00
  -20    3   10      1.22      0.00
  -20    3    9     -0.45      0.00
  -20    3    8     -0.97      0.00
  -20    3    7      3.71      0.00
  -20    3    6      2.47      0.00
  -20    3    5      2.72      0.00
  -20    3    4      1.75      0.00
  -20    3    3     -1.57      0.00
  -20    3    2     -0.23      0.00
  -20    3    1      1.75      0.00
   20    3    0      2.40      0.00
   20    3    1      1.09      0.00
   20    3    2      1.02      0.00
   20    3    3      0.07      0.00
   20    3    4      2.91      0.00
   20    3    5      0.76      0.00
   20    3    6      3.06      0.00
   20    3    7      0.13      0.00
   20    3    8      0.31      0.00
   20    3    9     -0.09      0.00
  -20    4   14      2.95      0.00
  -20    4   13     -2.27      0.00
  -20    4   12      4.60      0.00
  -20    4   11      1.02      0.00
  -20    4   10      1.32      0.00
  -20    4    9      0.59      0.00
  -20    4    8      1.74      0.00
  -20    4    7     -0.95      0.00
  -20    4    6     -0.59      0.00
  -20    4    5     -2.06      0.00
  -20    4    4      6.68      0.00
  -20    4    3     -0.90      0.00
  -20    4    2      4.48      0.00
  -20    4    1     -0.47      0.00
   20    4    0      3.65      0.00
   20    4    1     -1.61      0.00
   20    4    2      1.36      0.00
   20    4    3      2.87      0.00
   20    4    4      4.32      0.00
   20    4    5     -0.95      0.00
   20    4    6      0.97      0.00
   20    4    7      0.02      0.00
   20    4    8     -1.63      0.00
   20    4    9     -0.28      0.00
  -20    5   13     -3.65      0.00
  -20    5   12      0.88      0.00
  -20    5   11     -0.72      0.00
  -20    5   10     -1.18      0.00
  -20    5    9      1.00      0.00
  -20    5    8      2.12      0.00
  -20    5    7     -0.06      0.00
  -20    5    6     -1.82      0.00
  -20    5    5     -1.40      0.00
  -20    5    4     -0.91      0.00
  -20    5    3      0.43      0.00
  -20    5    2      0.77      0.00
  -20    5    1     -0.95      0.00
   20    5    0      0.99      0.00
   20    5    1      1.56      0.00
   20    5    2      0.16      0.00
   20    5    3     -2.57      0.00
   20    5    4     -1.59      0.00
   20    5    5     -3.57      0.00
   20    5    6     -1.49      0.00
   20    5    7      1.36      0.00
   20    5    8     -0.36      0.00
  -20    6   13     -0.92      0.00
  -20    6   12      0.81      0.00
  -20    6   11     -0.61      0.00
  -20    6   10      0.32      0.00
  -20    6    9     -2.54      0.00
  -20    6    8     -2.27      0.00
  -20    6    7      0.38      0.00
  -20    6    6      1.64      0.00
  -20    6    5      2.51      0.00
  -20    6    4     -4.10      0.00
  -20    6    3     -1.51      0.00
  -20    6    2     -2.73      0.00
  -20    6    1      1.90      0.00
   20    6    0     -2.91      0.00
   20    6    1     -1.99      0.00
   20    6    2      1.21      0.00
   20    6    3     -2.76      0.00
   20    6    4      3.94      0.00
   20    6    5      2.51      0.00
   20    6    6      2.38      0.00
   20    6    7      0.56      0.00
   20    6    8     -0.68      0.00
  -20    7   12     -2.26      0.00
  -20    7   11     -1.50      0.00
  -20    7   10      0.87      0.00
  -20    7    9     -1.14      0.00
  -20    7    8      0.91      0.00
  -20    7    7     -1.84      0.00
  -20    7    6     -0.36      0.00
  -20    7    5      0.44      0.00
  -20    7    4      4.20      0.00
  -20    7    3      0.19      0.00
  -20    7    2      0.39      0.00
  -20    7    1     -0.09      0.00
   20    7    0      2.38      0.00
   20    7    1     -0.50      0.00
   20    7    2      2.35      0.00
   20    7    3     -1.81      0.00
   20    7    4     -0.76      0.00
   20    7    5     -2.20      0.00
   20    7    6     -1.12      0.00
   20    7    7     -2.00      0.00
   20    7    8      1.39      0.00
  -20    8   12     -0.01      0.00
  -20    8   11      3.70      0.00
  -20    8   10     -0.17      0.00
  -20    8    9      0.46      0.00
  -20    8    8      2.18      0.00
  -20    8    7      1.83      0.00
  -20    8    6     -0.93      0.00
  -20    8    5     -3.20      0.00
  -20    8    4      0.13      0.00
  -20    8    3     -3.52      0.00
  -20    8    2      2.06      0.00
  -20    8    1      1.01      0.00
   20    8    0      1.10      0.00
   20    8    1     -2.54      0.00
   20    8    2     -0.85      0.00
   20    8    3      1.52      0.00
   20    8    4     -1.62      0.00
   20    8    5      0.38      0.00
   20    8    6      1.12      0.00
   20    8    7     -1.81      0.00
  -20    9   11      0.47      0.00
  -20    9   10     -2.02      0.00
  -20    9    9      2.84      0.00
  -20    9    8     -2.79      0.00
  -20    9    7      1.20      0.00
  -20    9    6     -0.85      0.00
  -20    9    5      0.11      0.00
  -20    9    4      1.00      0.00
  -20    9    3     -1.35      0.00
  -20    9    2      2.50      0.00
  -20    9    1     -1.25      0.00
   20    9    0      1.31      0.00
   20    9    1     -1.22      0.00
   20    9    2      0.59      0.00
   20    9    3      1.23      0.00
   20    9    4      0.72      0.00
   20    9    5     -0.17      0.00
   20    9    6      3.52      0.00
  -20   10   10     -0.95      0.00
  -20   10    9      2.20      0.00
  -20   10    8     -3.88      0.00
  -20   10    7     -0.66      0.00
  -20   10    6      2.46      0.00
  -20   10    5      0.31      0.00
  -20   10    4      3.68      0.00
  -20   10    3     -0.89      0.00
  -20   10    2      2.09      0.00
  -20   10    1     -2.13      0.00
   20   10    0      0.94      0.00
   20   10    1      0.82      0.00
   20   10    2      1.25      0.00
   20   10    3     -2.48      0.00
   20   10    4      0.25      0.00
   20   10    5     -3.61      0.00
  -20   11    9     -0.87      0.00
  -20   11    8      1.48      0.00
  -20   11    7      0.11      0.00
  -20   11    6      1.12      0.00
  -20   11    5     -2.94      0.00
  -20   11    4      1.12      0.00
  -20   11    3     -1.48      0.00
  -20   11    2     -1.35      0.00
  -20   11    1      0.66      0.00
   20   11    0     -1.75      0.00
   20   11    1      0.44      0.00
   20   11    2      1.01      0.00
   20   11    3     -0.33      0.00
   20   11    4      2.02      0.00
  -20   12    8      2.36      0.00
  -20   12    7      0.16      0.00
  -20   12    6     -2.42      0.00
  -20   12    5      0.18      0.00
  -20   12    4     -2.07      0.00
  -20   12    3      0.98      0.00
  -20   12    2     -3.33      0.00
  -20   12    1      2.76      0.00
   20   12    0     -0.58      0.00
   20   12    1     -1.26      0.00
   20   12    2     -0.19      0.00
   20   12    3     -1.10      0.00
  -20   13    5      3.95      0.00
  -20   13    4     -2.14      0.00
  -20   13    3      2.61      0.00
  -20   13    2     -1.12      0.00
  -20   13    1      0.42      0.00
   20   13    0      3.18      0.00
   20   13    1     -1.00      0.00
  -21    0   12     -1.18      0.00
  -21    0   10     -0.60      0.00
  -21    0    8      2.97      0.00
  -21    0    6      4.81      0.00
  -21    0    4      1.41      0.00
  -21    0    2      2.10      0.00
   21    0    0     -6.51      0.00
   21    0    2      7.73      0.00
   21    0    4      4.72      0.00
   21    0    6      2.75      0.00
   21    0    8      2.26      0.00
  -21    1   13      0.03      0.00
  -21    1   12      0.71      0.00
  -21    1   11      0.58      0.00
  -21    1   10     -1.86      0.00
  -21    1    9      1.43      0.00
  -21    1    8      0.69      0.00
  -21    1    7     -1.48      0.00
  -21    1    6     -2.79      0.00
  -21    1    5     -0.80      0.00
  -21    1    4     -3.67      0.00
  -21    1    3      0.23      0.00
  -21    1    2      5.24      0.00
  -21    1    1      2.54      0.00
   21    1    0     -1.68      0.00
   21    1    1     -0.06      0.00
   21    1    2     -2.82      0.00
   21    1    3     -1.61      0.00
   21    1    4     -2.28      0.00
   21    1    5      0.94      0.00
   21    1    6     -0.53      0.00
   21    1    7     -0.26      0.00
   21    1    8      1.36      0.00
  -21    2   13      0.04      0.00
  -21    2   12      1.32      0.00
  -21    2   11     -1.43      0.00
  -21    2   10     -1.63      0.00
  -21    2    9     -1.96      0.00
  -21    2    8     -4.96      0.00
  -21    2    7     -0.29      0.00
  -21    2    6     -2.57      0.00
  -21    2    5      2.95      0.00
  -21    2    4     -2.03      0.00
  -21    2    3      0.02      0.00
  -21    2    2     -3.83      0.00
  -21    2    1     -2.04      0.00
   21    2    0      3.32      0.00
   21    2    1     -0.86      0.00
   21    2    2     -5.21      0.00
   21    2    3      0.23      0.00
   21    2    4     -5.06      0.00
   21    2    5     -0.56      0.00
   21    2    6     -5.56      0.00
   21    2    7     -1.79      0.00
   21    2    8     -0.58      0.00
  -21    3   13     -0.28      0.00
  -21    3   12      0.72      0.00
  -21    3   11     -1.04      0.00
  -21    3   10      4.77      0.00
  -21    3    9      2.72      0.00
  -21    3    8      0.71      0.00
  -21    3    7      3.77      0.00
  -21    3    6     -0.32      0.00
  -21    3    5      1.79      0.00
  -21    3    4      2.98      0.00
  -21    3    3      1.49      0.00
  -21    3    2     -1.42      0.00
  -21    3    1     -4.69      0.00
   21    3    0      2.15      0.00
   21    3    1     -0.25      0.00
   21    3    2      2.28      0.00
   21    3    3      1.97      0.00
   21    3    4      0.49      0.00
   21    3    5      2.96      0.00
   21    3    6      0.65      0.00
   21    3    7      2.58      0.00
   21    3    8      0.10      0.00
  -21    4   13      1.50      0.00
  -21    4   12      0.39      0.00
  -21    4   11     -2.14      0.00
  -21    4   10     -0.27      0.00
  -21    4    9     -0.28      0.00
  -21    4    8      0.79      0.00
  -21    4    7      1.91      0.00
  -21    4    6     -0.28      0.00
  -21    4    5     -2.94      0.00
  -21    4    4     -1.22      0.00
  -21    4    3     -3.67      0.00
  -21    4    2      5.82      0.00
  -21    4    1      1.58      0.00
   21    4    0      2.58      0.00
   21    4    1     -0.06      0.00
   21    4    2      2.34      0.00
   21    4    3      0.46      0.00
   21    4    4      2.00      0.00
   21    4    5      2.53      0.00
   21    4    6      1.15      0.00
   21    4    7      1.85      0.00
   21    4    8      0.63      0.00
  -21    5   12     -0.07      0.00
  -21    5   11      0.45      0.00
  -21    5   10     -0.84      0.00
  -21    5    9     -0.32      0.00
  -21    5    8     -2.13      0.00
  -21    5    7     -1.87      0.00
  -21    5    6      1.14      0.00
  -21    5    5      1.14      0.00
  -21    5    4      0.15      0.00
  -21    5    3     -0.43      0.00
  -21    5    2      0.76      0.00
  -21    5    1     -0.31      0.00
   21    5    0     -0.90      0.00
   21    5    1     -1.10      0.00
   21    5    2      1.24      0.00
   21    5    3      0.15      0.00
   21    5    4     -0.99      0.00
   21    5    5     -1.16      0.00
   21    5    6     -2.78      0.00
   21    5    7     -1.70      0.00
  -21    6   12      0.43      0.00
  -21    6   11      0.08      0.00
  -21    6   10     -0.58      0.00
  -21    6    9     -0.09      0.00
  -21    6    8      0.11      0.00
  -21    6    7     -1.59      0.00
  -21    6    6     -0.36      0.00
  -21    6    5     -1.06      0.00
  -21    6    4      1.06      0.00
  -21    6    3      3.24      0.00
  -21    6    2     -4.16      0.00
  -21    6    1     -0.53      0.00
   21    6    0      1.23      0.00
   21    6    1     -2.62      0.00
   21    6    2      0.17      0.00
   21    6    3     -3.49      0.00
   21    6    4     -1.12      0.00
   21    6    5     -1.27      0.00
   21    6    6     -0.40      0.00
   21    6    7      1.51      0.00
  -21    7   11      0.94      0.00
  -21    7   10      1.42      0.00
  -21    7    9     -0.62      0.00
  -21    7    8      2.60      0.00
  -21    7    7      2.04      0.00
  -21    7    6      1.85      0.00
  -21    7    5     -1.16      0.00
  -21    7    4      2.42      0.00
  -21    7    3      0.63      0.00
  -21    7    2     -1.41      0.00
  -21    7    1     -1.31      0.00
   21    7    0      2.15      0.00
   21    7    1     -4.80      0.00
   21    7    2      0.57      0.00
   21    7    3     -0.52      0.00
   21    7    4      3.56      0.00
   21    7    5      1.91      0.00
   21    7    6      0.78      0.00
  -21    8   11     -0.60      0.00
  -21    8   10      0.11      0.00
  -21    8    9     -1.44      0.00
  -21    8    8     -2.54      0.00
  -21    8    7      0.14      0.00
  -21    8    6     -2.41      0.00
  -21    8    5     -1.26      0.00
  -21    8    4     -2.09      0.00
  -21    8    3     -2.73      0.00
  -21    8    2      2.24      0.00
  -21    8    1      3.24      0.00
   21    8    0      4.32      0.00
   21    8    1      0.29      0.00
   21    8    2      3.08      0.00
   21    8    3      1.02      0.00
   21    8    4     -2.57      0.00
   21    8    5     -0.94      0.00
   21    8    6     -3.39      0.00
  -21    9   10      1.45      0.00
  -21    9    9      2.78      0.00
  -21    9    8     -1.41      0.00
  -21    9    7      2.94      0.00
  -21    9    6     -1.22      0.00
  -21    9    5      2.61      0.00
  -21    9    4     -0.87      0.00
  -21    9    3      0.17      0.00
  -21    9    2     -0.74      0.00
  -21    9    1     -2.09      0.00
   21    9    0      2.08      0.00
   21    9    1     -1.28      0.00
   21    9    2      0.85      0.00
   21    9    3      1.00      0.00
   21    9    4     -0.38      0.00
   21    9    5      2.78      0.00
  -21   10    9     -1.50      0.00
  -21   10    8     -1.10      0.00
  -21   10    7      0.51      0.00
  -21   10    6      0.65      0.00
  -21   10    5      0.18      0.00
  -21   10    4      1.43      0.00
  -21   10    3      2.42      0.00
  -21   10    2      1.29      0.00
  -21   10    1      0.95      0.00
   21   10    0     -0.09      0.00
   21   10    1     -2.11      0.00
   21   10    2     -0.78      0.00
   21   10    3     -1.91      0.00
   21   10    4      0.07      0.00
  -21   11    8      2.31      0.00
  -21   11    7     -1.88      0.00
  -21   11    6      0.27      0.00
  -21   11    5     -1.34      0.00
  -21   11    4     -0.91      0.00
  -21   11    3     -1.67      0.00
  -21   11    2     -2.17      0.00
  -21   11    1      0.12      0.00
   21   11    0      0.44      0.00
   21   11    1      0.24      0.00
   21   11    2      0.97      0.00
  -21   12    5      2.52      0.00
  -21   12    4      0.67      0.00
  -21   12    3      1.86      0.00
  -21   12    2     -1.36      0.00
  -21   12    1     -0.62      0.00
   21   12    0     -0.21      0.00
  -22    0   12      0.88      0.00
  -22    0   10      0.24      0.00
  -22    0    8      3.92      0.00
  -22    0    6      3.73      0.00
  -22    0    4      3.79      0.00
  -22    0    2      5.80      0.00
   22    0    0      3.28      0.00
   22    0    2      6.12      0.00
   22    0    4      7.71      0.00
   22    0    6      3.86      0.00
  -22    1   12      0.06      0.00
  -22    1   11      1.66      0.00
  -22    1   10     -0.40      0.00
  -22    1    9     -1.24      0.00
  -22    1    8      0.14      0.00
  -22    1    7     -2.53      0.00
  -22    1    6     -1.39      0.00
  -22    1    5      0.25      0.00
  -22    1    4     -1.80      0.00
  -22    1    3     -0.40      0.00
  -22    1    2     -0.51      0.00
  -22    1    1     -0.06      0.00
   22    1    0     -7.30      0.00
   22    1    1      0.45      0.00
   22    1    2     -1.84      0.00
   22    1    3     -2.83      0.00
   22    1    4      1.72      0.00
   22    1    5     -2.20      0.00
   22    1    6     -0.28      0.00
   22    1    7     -1.38      0.00
  -22    2   12     -4.37      0.00
  -22    2   11      1.30      0.00
  -22    2   10     -0.62      0.00
  -22    2    9     -0.38      0.00
  -22    2    8      0.87      0.00
  -22    2    7     -1.05      0.00
  -22    2    6     -3.65      0.00
  -22    2    5      2.79      0.00
  -22    2    4     -3.68      0.00
  -22    2    3      1.52      0.00
  -22    2    2     -3.79      0.00
  -22    2    1     -1.17      0.00
   22    2    0     -5.57      0.00
   22    2    1      3.14      0.00
   22    2    2     -4.43      0.00
   22    2    3     -2.13      0.00
   22    2    4     -3.75      0.00
   22    2    5     -1.07      0.00
   22    2    6      0.02      0.00
   22    2    7     -1.50      0.00
  -22    3   12     -2.31      0.00
  -22    3   11      1.33      0.00
  -22    3   10     -0.96      0.00
  -22    3    9     -1.65      0.00
  -22    3    8      2.15      0.00
  -22    3    7      1.57      0.00
  -22    3    6      0.29      0.00
  -22    3    5      1.99      0.00
  -22    3    4     -0.76      0.00
  -22    3    3     -2.52      0.00
  -22    3    2      0.04      0.00
  -22    3    1      0.83      0.00
   22    3    0      2.51      0.00
   22    3    1      2.22      0.00
   22    3    2      0.62      0.00
   22    3    3      4.60      0.00
   22    3    4     -1.55      0.00
   22    3    5      0.25      0.00
   22    3    6      0.43      0.00
   22    3    7     -2.39      0.00
  -22    4   12      2.61      0.00
  -22    4   11      2.16      0.00
  -22    4   10     -0.90      0.00
  -22    4    9     -0.96      0.00
  -22    4    8      1.42      0.00
  -22    4    7     -1.64      0.00
  -22    4    6      2.39      0.00
  -22    4    5     -1.18      0.00
  -22    4    4      3.64      0.00
  -22    4    3     -1.66      0.00
  -22    4    2      4.38      0.00
  -22    4    1      0.62      0.00
   22    4    0      2.33      0.00
   22    4    1     -1.17      0.00
   22    4    2     -2.22      0.00
   22    4    3      3.34      0.00
   22    4    4     -0.62      0.00
   22    4    5      2.21      0.00
   22    4    6      2.20      0.00
  -22    5   11     -0.26      0.00
  -22    5   10     -0.96      0.00
  -22    5    9      1.24      0.00
  -22    5    8      1.82      0.00
  -22    5    7     -3.15      0.00
  -22    5    6     -0.48      0.00
  -22    5    5     -2.55      0.00
  -22    5    4      1.26      0.00
  -22    5    3      1.41      0.00
  -22    5    2      0.79      0.00
  -22    5    1      0.71      0.00
   22    5    0      0.52      0.00
   22    5    1      2.51      0.00
   22    5    2     -1.67      0.00
   22    5    3      0.82      0.00
   22    5    4     -0.06      0.00
   22    5    5     -0.37      0.00
   22    5    6     -0.65      0.00
  -22    6   11     -0.26      0.00
  -22    6   10      0.36      0.00
  -22    6    9     -0.20      0.00
  -22    6    8      0.64      0.00
  -22    6    7      0.86      0.00
  -22    6    6      0.96      0.00
  -22    6    5      1.39      0.00
  -22    6    4     -1.86      0.00
  -22    6    3     -1.72      0.00
  -22    6    2     -3.21      0.00
  -22    6    1     -0.04      0.00
   22    6    0     -3.82      0.00
   22    6    1      0.06      0.00
   22    6    2     -0.19      0.00
   22    6    3     -0.56      0.00
   22    6    4      2.05      0.00
   22    6    5     -2.37      0.00
   22    6    6      0.34      0.00
  -22    7   10      0.38      0.00
  -22    7    9     -1.14      0.00
  -22    7    8     -1.87      0.00
  -22    7    7     -0.56      0.00
  -22    7    6     -0.52      0.00
  -22    7    5      1.31      0.00
  -22    7    4      1.05      0.00
  -22    7    3      0.40      0.00
  -22    7    2      3.77      0.00
  -22    7    1      0.00      0.00
   22    7    0      0.51      0.00
   22    7    1      1.25      0.00
   22    7    2      0.33      0.00
   22    7    3     -1.66      0.00
   22    7    4      0.90      0.00
   22    7    5     -0.86      0.00
  -22    8   10     -1.88      0.00
  -22    8    9      1.06      0.00
  -22    8    8      0.04      0.00
  -22    8    7      0.69      0.00
  -22    8    6     -1.97      0.00
  -22    8    5     -0.25      0.00
  -22    8    4     -2.16      0.00
  -22    8    3     -2.79      0.00
  -22    8    2     -0.39      0.00
  -22    8    1     -2.75      0.00
   22    8    0      0.30      0.00
   22    8    1     -3.93      0.00
   22    8    2     -1.24      0.00
   22    8    3     -1.34      0.00
   22    8    4     -0.92      0.00
  -22    9    9      1.96      0.00
  -22    9    8      0.63      0.00
  -22    9    7      3.92      0.00
  -22    9    6      0.28      0.00
  -22    9    5      1.97      0.00
  -22    9    4     -0.65      0.00
  -22    9    3      2.48      0.00
  -22    9    2      2.65      0.00
  -22    9    1      0.05      0.00
   22    9    0      1.21      0.00
   22    9    1     -1.23      0.00
   22    9    2      5.25      0.00
   22    9    3      0.72      0.00
  -22   10    7     -3.60      0.00
  -22   10    6     -0.57      0.00
  -22   10    5     -0.21      0.00
  -22   10    4      0.31      0.00
  -22   10    3     -0.49      0.00
  -22   10    2      0.89      0.00
  -22   10    1      0.07      0.00
   22   10    0      3.46      0.00
   22   10    1     -0.48      0.00
   22   10    2      1.62      0.00
  -22   11    5     -1.64      0.00
  -22   11    4      1.59      0.00
  -22   11    3     -0.45      0.00
  -22   11    2     -1.33      0.00
  -22   11    1     -1.97      0.00
   22   11    0      0.23      0.00
  -23    0   10      0.94      0.00
  -23    0    8      0.88      0.00
  -23    0    6      2.19      0.00
  -23    0    4      0.88      0.00
  -23    0    2      4.47      0.00
   23    0    0      1.30      0.00
   23    0    2      2.94      0.00
   23    0    4      3.11      0.00
   23    0    6      2.60      0.00
  -23    1   11      0.02      0.00
  -23    1   10     -1.98      0.00
  -23    1    9      0.57      0.00
  -23    1    8      1.55      0.00
  -23    1    7      0.58      0.00
  -23    1    6     -1.95      0.00
  -23    1    5     -0.30      0.00
  -23    1    4     -3.89      0.00
  -23    1    3     -1.16      0.00
  -23    1    2      2.44      0.00
  -23    1    1     -2.29      0.00
   23    1    0      0.33      0.00
   23    1    1     -1.87      0.00
   23    1    2     -0.51      0.00
   23    1    3      0.42      0.00
   23    1    4      2.04      0.00
   23    1    5     -0.10      0.00
   23    1    6     -1.51      0.00
  -23    2   11     -0.51      0.00
  -23    2   10      0.08      0.00
  -23    2    9     -2.17      0.00
  -23    2    8     -2.27      0.00
  -23    2    7     -0.57      0.00
  -23    2    6     -2.36      0.00
  -23    2    5      1.34      0.00
  -23    2    4     -2.00      0.00
  -23    2    3      0.34      0.00
  -23    2    2     -0.87      0.00
  -23    2    1     -0.70      0.00
   23    2    0      2.72      0.00
   23    2    1      1.55      0.00
   23    2    2     -1.97      0.00
   23    2    3     -1.52      0.00
   23    2    4     -3.96      0.00
   23    2    5     -1.79      0.00
   23    2    6     -2.10      0.00
  -23    3   11     -2.41      0.00
  -23    3   10      4.01      0.00
  -23    3    9     -1.81      0.00
  -23    3    8      0.75      0.00
  -23    3    7     -0.02      0.00
  -23    3    6      0.39      0.00
  -23    3    5      3.22      0.00
  -23    3    4      3.70      0.00
  -23    3    3      2.12      0.00
  -23    3    2     -1.84      0.00
  -23    3    1     -2.75      0.00
   23    3    0      0.09      0.00
   23    3    1      0.26      0.00
   23    3    2     -0.89      0.00
   23    3    3      0.64      0.00
   23    3    4      1.11      0.00
   23    3    5      1.65      0.00
  -23    4   11     -2.46      0.00
  -23    4   10      4.08      0.00
  -23    4    9     -0.67      0.00
  -23    4    8      3.42      0.00
  -23    4    7      1.64      0.00
  -23    4    6     -0.48      0.00
  -23    4    5     -2.57      0.00
  -23    4    4     -0.99      0.00
  -23    4    3     -2.06      0.00
  -23    4    2      3.17      0.00
  -23    4    1      2.35      0.00
   23    4    0      0.85      0.00
   23    4    1      0.78      0.00
   23    4    2      0.59      0.00
   23    4    3      1.51      0.00
   23    4    4      1.45      0.00
   23    4    5      0.10      0.00
  -23    5   10      0.06      0.00
  -23    5    9     -3.29      0.00
  -23    5    8     -2.53      0.00
  -23    5    7      0.81      0.00
  -23    5    6     -1.24      0.00
  -23    5    5      0.48      0.00
  -23    5    4      0.75      0.00
  -23    5    3     -1.82      0.00
  -23    5    2     -0.24      0.00
  -23    5    1     -0.23      0.00
   23    5    0     -1.71      0.00
   23    5    1      0.60      0.00
   23    5    2     -0.99      0.00
   23    5    3     -0.69      0.00
   23    5    4     -1.44      0.00
   23    5    5      0.94      0.00
  -23    6   10      4.30      0.00
  -23    6    9      1.26      0.00
  -23    6    8     -0.11      0.00
  -23    6    7      2.69      0.00
  -23    6    6     -1.72      0.00
  -23    6    5      0.18      0.00
  -23    6    4     -0.94      0.00
  -23    6    3     -0.80      0.00
  -23    6    2     -1.59      0.00
  -23    6    1     -0.96      0.00
   23    6    0     -0.32      0.00
   23    6    1      1.31      0.00
   23    6    2     -0.42      0.00
   23    6    3     -0.26      0.00
   23    6    4     -0.61      0.00
  -23    7    9     -3.07      0.00
  -23    7    8     -0.12      0.00
  -23    7    7     -0.68      0.00
  -23    7    6     -1.13      0.00
  -23    7    5      1.24      0.00
  -23    7    4      4.57      0.00
  -23    7    3      2.47      0.00
  -23    7    2      0.20      0.00
  -23    7    1      0.20      0.00
   23    7    0      1.09      0.00
   23    7    1     -1.21      0.00
   23    7    2     -1.23      0.00
   23    7    3      1.96      0.00
  -23    8    8      2.20      0.00
  -23    8    7      0.84      0.00
  -23    8    6      0.52      0.00
  -23    8    5     -2.55      0.00
  -23    8    4     -1.06      0.00
  -23    8    3     -1.84      0.00
  -23    8    2     -0.40      0.00
  -23    8    1      1.59      0.00
   23    8    0      0.37      0.00
   23    8    1      2.03      0.00
   23    8    2      0.33      0.00
  -23    9    6      0.27      0.00
  -23    9    5     -0.45      0.00
  -23    9    4     -0.21      0.00
  -23    9    3     -0.67      0.00
  -23    9    2      0.31      0.00
  -23    9    1      1.38      0.00
   23    9    0     -2.98      0.00
   23    9    1     -0.39      0.00
  -23   10    4      2.00      0.00
  -23   10    3     -0.99      0.00
  -23   10    2     -0.98      0.00
  -24    0   10     -1.43      0.00
  -24    0    8      1.70      0.00
  -24    0    6      1.84      0.00
  -24    0    4      2.55      0.00
  -24    0    2      5.33      0.00
   24    0    0     -2.58      0.00
   24    0    2     -2.45      0.00
   24    0    4      3.18      0.00
  -24    1   10      2.16      0.00
  -24    1    9      0.65      0.00
  -24    1    8      1.17      0.00
  -24    1    7     -1.33      0.00
  -24    1    6      2.95      0.00
  -24    1    5     -0.48      0.00
  -24    1    4     -1.07      0.00
  -24    1    3     -3.21      0.00
  -24    1    2     -1.27      0.00
  -24    1    1      0.12      0.00
   24    1    0     -6.21      0.00
   24    1    1      3.06      0.00
   24    1    2     -3.22      0.00
   24    1    3     -0.32      0.00
   24    1    4      1.70      0.00
  -24    2   10     -1.58      0.00
  -24    2    9     -2.17      0.00
  -24    2    8     -0.32      0.00
  -24    2    7     -5.27      0.00
  -24    2    6     -1.92      0.00
  -24    2    5     -0.40      0.00
  -24    2    4      1.90      0.00
  -24    2    3      2.31      0.00
  -24    2    2     -0.56      0.00
  -24    2    1      1.26      0.00
   24    2    0     -3.11      0.00
   24    2    1      2.05      0.00
   24    2    2      0.20      0.00
   24    2    3      0.52      0.00
   24    2    4     -2.92      0.00
  -24    3   10      1.05      0.00
  -24    3    9      1.89      0.00
  -24    3    8      4.12      0.00
  -24    3    7      1.98      0.00
  -24    3    6      1.65      0.00
  -24    3    5     -0.42      0.00
  -24    3    4      0.29      0.00
  -24    3    3     -4.35      0.00
  -24    3    2      0.32      0.00
  -24    3    1      0.64      0.00
   24    3    0      4.45      0.00
   24    3    1     -0.57      0.00
   24    3    2      1.04      0.00
   24    3    3      1.49      0.00
   24    3    4     -3.74      0.00
  -24    4    9     -2.56      0.00
  -24    4    8     -3.60      0.00
  -24    4    7     -0.26      0.00
  -24    4    6      0.83      0.00
  -24    4    5     -1.74      0.00
  -24    4    4      3.63      0.00
  -24    4    3     -3.91      0.00
  -24    4    2      4.89      0.00
  -24    4    1     -1.14      0.00
   24    4    0      3.13      0.00
   24    4    1     -1.86      0.00
   24    4    2     -0.39      0.00
   24    4    3      2.71      0.00
  -24    5    9      2.70      0.00
  -24    5    8      0.72      0.00
  -24    5    7      1.66      0.00
  -24    5    6      0.20      0.00
  -24    5    5     -2.55      0.00
  -24    5    4      2.20      0.00
  -24    5    3     -1.68      0.00
  -24    5    2      1.25      0.00
  -24    5    1     -1.22      0.00
   24    5    0     -0.54      0.00
   24    5    1     -0.26      0.00
   24    5    2     -1.58      0.00
   24    5    3      0.58      0.00
  -24    6    8      0.35      0.00
  -24    6    7      0.02      0.00
  -24    6    6      0.96      0.00
  -24    6    5      0.04      0.00
  -24    6    4      2.47      0.00
  -24    6    3     -0.27      0.00
  -24    6    2     -3.59      0.00
  -24    6    1      0.78      0.00
   24    6    0     -2.77      0.00
   24    6    1      0.18      0.00
   24    6    2     -0.77      0.00
  -24    7    7     -3.09      0.00
  -24    7    6      0.71      0.00
  -24    7    5     -3.36      0.00
  -24    7    4      2.25      0.00
  -24    7    3      1.49      0.00
  -24    7    2      2.99      0.00
  -24    7    1      2.15      0.00
   24    7    0     -0.08      0.00
   24    7    1      1.17      0.00
  -24    8    5     -3.19      0.00
  -24    8    4     -1.33      0.00
  -24    8    3     -3.50      0.00
  -24    8    2     -0.64      0.00
  -24    8    1     -2.56      0.00
  -25    0    8      0.03      0.00
  -25    0    6      1.55      0.00
  -25    0    4     -2.48      0.00
  -25    0    2     -4.67      0.00
   25    0    0      0.60      0.00
   25    0    2      4.18      0.00
  -25    1    8      1.08      0.00
  -25    1    7      0.70      0.00
  -25    1    6     -0.51      0.00
  -25    1    5      0.55      0.00
  -25    1    4     -1.43      0.00
  -25    1    3      4.14      0.00
  -25    1    2      0.73      0.00
  -25    1    1      2.94      0.00
   25    1    0     -1.66      0.00
   25    1    1     -1.22      0.00
   25    1    2     -4.88      0.00
  -25    2    8     -2.47      0.00
  -25    2    7      1.98      0.00
  -25    2    6     -1.86      0.00
  -25    2    5     -0.81      0.00
  -25    2    4     -2.47      0.00
  -25    2    3     -1.09      0.00
  -25    2    2     -1.64      0.00
  -25    2    1      0.14      0.00
   25    2    0     -1.27      0.00
   25    2    1      3.97      0.00
   25    2    2     -1.71      0.00
  -25    3    8     -3.01      0.00
  -25    3    7      0.90      0.00
  -25    3    6     -1.79      0.00
  -25    3    5      1.50      0.00
  -25    3    4      2.14      0.00
  -25    3    3      0.22      0.00
  -25    3    2     -1.00      0.00
  -25    3    1     -2.73      0.00
   25    3    0     -0.53      0.00
   25    3    1      1.13      0.00
   25    3    2     -1.85      0.00
  -25    4    7      2.44      0.00
  -25    4    6     -0.26      0.00
  -25    4    5      0.61      0.00
  -25    4    4      0.34      0.00
  -25    4    3      2.01      0.00
  -25    4    2      1.04      0.00
  -25    4    1      2.22      0.00
   25    4    0      1.59      0.00
   25    4    1      1.11      0.00
  -25    5    6     -0.94      0.00
  -25    5    5      0.76      0.00
  -25    5    4     -0.53      0.00
  -25    5    3      0.95      0.00
  -25    5    2     -4.64      0.00
  -25    5    1      2.25      0.00
   25    5    0      0.99      0.00
  -25    6    5     -0.06      0.00
  -25    6    4     -1.73      0.00
  -25    6    3     -0.27      0.00
  -25    6    2     -2.43      0.00
  -25    6    1      2.22      0.00
  -26    0    4     -0.36      0.00
  -26    0    2      3.05      0.00
  -26    1    5      0.68      0.00
  -26    1    4      3.99      0.00
  -26    1    3     -0.92      0.00
  -26    1    2      3.09      0.00
  -26    1    1     -1.33      0.00
  -26    2    5     -3.59      0.00
  -26    2    4     -0.88      0.00
  -26    2    3     -5.46      0.00
  -26    2    2     -0.46      0.00
   26    0    0     -0.45      0.00
    2    1    0    -35.74      0.00
   26    1    0     -3.81      0.00
    0    2    0    -70.68      0.00
    7    2    0    -26.23      0.00
    1    3    0     52.24      0.00
    6    3    0     21.86      0.00
    7    3    0     -5.28      0.00
    0    4    0     20.43      0.00
    6    4    0    -11.30      0.00
    2    6    0    -17.18      0.00
   24    8    0      1.05      0.00
    0   10    0     -3.58      0.00
    2   12    0    -16.26      0.00
    4   12    0     -6.95      0.00
   15   17    0      1.62      0.00
   13   18    0      0.63      0.00
   11   19    0     -1.41      0.00
    8   20    0      0.55      0.00
  -26    2    1     -3.46      0.00
   -7    3    1    -13.01      0.00
    7    3    1     19.30      0.00
    8    3    1     16.49      0.00
    5    5    1     -1.54      0.00
    7    5    1    -10.07      0.00
   13    5    1     -2.20      0.00
   25    5    1     -0.25      0.00
    7    7    1     -6.46      0.00
    7    9    1      9.19      0.00
    8    9    1      6.27      0.00
    9    9    1     11.38      0.00
  -23   10    1     -2.04      0.00
    3   11    1    -10.41      0.00
    5   11    1     -8.03      0.00
    7   11    1     -4.79      0.00
    2   12    1      1.10      0.00
   21   12    1     -0.22      0.00
   19   14    1      1.09      0.00
  -17   16    1      1.19      0.00
   15   17    1      2.44      0.00
   13   18    1      0.17      0.00
  -11   19    1     -0.81      0.00
   -8   20    1     -2.69      0.00
    7   20    1      0.82      0.00
   -8    0    2     55.73      0.00
   -4    0    2     30.43      0.00
    2    0    2      8.84      0.00
    3    0    2     96.99      0.00
   -7    1    2     43.73      0.00
   -6    1    2     22.48      0.00
   -8    2    2    -18.25      0.00
   -7    2    2      0.44      0.00
  -26    3    2      3.33      0.00
    5    4    2     11.60      0.00
   13    4    2     -2.80      0.00
    3    5    2    -19.05      0.00
    0    6    2     -3.60      0.00
   12    6    2     -7.68      0.00
    8   10    2      1.82      0.00
  -17   16    2     -0.36      0.00
  -11   19    2     -1.34      0.00
   10   19    2      0.62      0.00
   -8   20    2      0.36      0.00
    7   20    2     -0.07      0.00
   -7    1    3    -25.77      0.00
    3    1    3     -3.23      0.00
    4    1    3      8.13      0.00
   25    1    3     -0.97      0.00
  -26    3    3      1.00      0.00
   -6    5    3     -2.30      0.00
   -1    6    3     29.04      0.00
   23    8    3      0.63      0.00
   21   11    3     -1.18      0.00
   17   15    3     -0.04      0.00
  -17   16    3      0.34      0.00
   14   17    3      0.40      0.00
  -13   18    3     -2.14      0.00
   12   18    3     -0.65      0.00
  -11   19    3      1.55      0.00
   -7   20    3     -1.25      0.00
    6   20    3     -1.02      0.00
    4    0    4     -6.62      0.00
    5    0    4     17.83      0.00
    4    1    4     -2.52      0.00
    5    1    4     19.49      0.00
  -26    3    4      2.41      0.00
   24    4    4     -0.32      0.00
   23    7    4      1.48      0.00
   15   16    4      0.85      0.00
  -15   17    4      0.42      0.00
  -13   18    4     -2.75      0.00
  -10   19    4      0.23      0.00
   -6   20    4     -1.66      0.00
    4   20    4      0.18      0.00
    5   20    4      0.06      0.00
    5    1    5     -2.02      0.00
  -26    3    5      3.10      0.00
    2    5    5    -13.06      0.00
  -23   10    5     -0.34      0.00
   19   12    5     -0.60      0.00
   18   13    5      0.53      0.00
   17   14    5      1.05      0.00
  -18   15    5     -1.64      0.00
  -10   19    5     -0.35      0.00
    7   19    5      0.07      0.00
   -5   20    5     -2.46      0.00
   -4   20    5     -2.87      0.00
    2   20    5     -1.10      0.00
    3   20    5     -1.25      0.00
  -26    0    6      0.51      0.00
    6    0    6    -11.69      0.00
    7    0    6    -18.86      0.00
  -26    1    6      3.25      0.00
  -26    2    6     -2.18      0.00
   23    3    6      1.89      0.00
    1    5    6     12.04      0.00
  -24    8    6      2.80      0.00
   20   10    6      0.31      0.00
  -22   11    6      2.64      0.00
  -21   12    6     -0.96      0.00
  -20   13    6     -0.78      0.00
  -19   14    6      3.51      0.00
  -16   16    6     -1.20      0.00
  -14   17    6     -0.84      0.00
  -12   18    6      0.84      0.00
    9   18    6      1.24      0.00
   -9   19    6      0.18      0.00
    6   19    6     -0.11      0.00
   22    4    7      1.63      0.00
  -25    5    7     -0.01      0.00
   21    7    7      2.87      0.00
  -23    9    7     -0.93      0.00
  -17   15    7     -0.04      0.00
  -11   18    7     -2.03      0.00
   -7   19    7      3.65      0.00
    3   19    7     -0.95      0.00
    4   19    7     -0.27      0.00
  -25    4    8      1.90      0.00
   21    5    8     -1.49      0.00
   19    9    8     -2.84      0.00
  -22   10    8     -4.33      0.00
  -19   13    8     -1.16      0.00
  -17   14    8     -0.80      0.00
  -16   14    8     -1.06      0.00
  -16   15    8     -1.10      0.00
   11   16    8      1.98      0.00
   -9   18    8     -1.81      0.00
    6   18    8      0.76      0.00
   -4   19    8     -0.41      0.00
   -3   19    8     -0.09      0.00
   -2   19    8      0.85      0.00
   -1   19    8      1.00      0.00
    0   19    8      0.55      0.00
  -25    1    9      0.96      0.00
   20    5    9      2.19      0.00
   18    9    9     -0.96      0.00
  -17   14    9     -1.36      0.00
   13   14    9      0.73      0.00
  -15   15    9     -1.12      0.00
  -11   17    9      0.91      0.00
    7   17    9      0.06      0.00
   -7   18    9      0.25      0.00
    3   18    9      0.00      0.00
   19    5   10      0.21      0.00
   18    7   10      1.65      0.00
   16   10   10      0.40      0.00
   14   12   10      1.07      0.00
   13   13   10      0.66      0.00
  -16   14   10     -2.39      0.00
  -15   14   10      0.22      0.00
  -14   15   10      0.37      0.00
  -13   15   10      0.79      0.00
  -12   16   10     -0.67      0.00
  -11   16   10      1.31      0.00
   -9   17   10     -0.49      0.00
    4   17   10     -1.34      0.00
  -22    7   11      0.93      0.00
  -13   15   11     -2.50      0.00
  -10   16   11      0.43      0.00
    5   16   11     -0.29      0.00
   -5   17   11      1.27      0.00
   -4   17   11     -1.21      0.00
   -3   17   11     -1.15      0.00
   -2   17   11     -0.56      0.00
   -1   17   11     -0.29      0.00
    0   17   11     -1.06      0.00
  -23    0   12     -0.51      0.00
  -23    1   12      0.38      0.00
  -22    5   12      0.43      0.00
   16    6   12     -0.42      0.00
  -21    7   12      0.13      0.00
   14    9   12      0.39      0.00
   11   12   12      2.47      0.00
  -15   13   12     -0.54      0.00
  -13   14   12     -1.32      0.00
  -10   15   12     -1.28      0.00
    5   15   12      0.19      0.00
   -7   16   12      0.54      0.00
   -6   16   12     -1.60      0.00
   -5   16   12     -2.66      0.00
    0   16   12      1.79      0.00
    1   16   12      0.28      0.00
  -22    1   13      1.55      0.00
   16    1   13     -0.05      0.00
  -21    5   13     -0.80      0.00
   15    5   13     -0.25      0.00
  -20    7   13      1.04      0.00
   14    7   13     -0.37      0.00
  -15   12   13      1.25      0.00
    9   12   13     -0.50      0.00
  -13   13   13      0.91      0.00
    7   13   13     -3.06      0.00
  -11   14   13     -0.57      0.00
    5   14   13     -0.81      0.00
   -7   15   13     -1.75      0.00
   -6   15   13      2.21      0.00
    0   15   13      1.72      0.00
    1   15   13      0.11      0.00
  -21    0   14      0.82      0.00
   14    3   14     -0.59      0.00
  -17    9   14      2.80      0.00
    9   10   14     -1.00      0.00
    8   11   14      0.42      0.00
    6   12   14     -0.40      0.00
  -10   13   14     -2.26      0.00
    4   13   14      0.62      0.00
   -7   14   14      0.71      0.00
   -6   14   14     -1.00      0.00
   -5   14   14     -0.91      0.00
   -4   14   14      1.17      0.00
   -2   14   14      2.03      0.00
   -1   14   14     -0.09      0.00
    0   14   14     -0.44      0.00
  -19    3   15      0.90      0.00
  -17    7   15     -0.35      0.00
   10    7   15      1.55      0.00
  -16    8   15      1.66      0.00
    9    8   15     -2.76      0.00
  -15    9   15      0.18      0.00
    8    9   15      1.54      0.00
  -12   11   15      1.89      0.00
    5   11   15      0.86      0.00
   -9   12   15     -0.61      0.00
    2   12   15      0.24      0.00
   -5   13   15      0.45      0.00
   -4   13   15      2.02      0.00
   -3   13   15      0.35      0.00
   -2   13   15     -0.20      0.00
  -18    0   16      0.86      0.00
    7    0   16      3.17      0.00
    8    0   16      0.58      0.00
    9    0   16      4.70      0.00
    9    1   16      3.15      0.00
   10    3   16     -0.87      0.00
  -17    4   16     -1.17      0.00
    9    5   16     -0.80      0.00
    8    6   16     -0.78      0.00
  -15    7   16     -0.73      0.00
  -14    8   16     -0.49      0.00
    6    8   16      1.88      0.00
  -12    9   16      2.17      0.00
    5    9   16      0.10      0.00
  -10   10   16     -0.36      0.00
    3   10   16     -0.11      0.00
   -8   11   16      0.81      0.00
   -7   11   16      2.21      0.00
   -6   11   16      3.33      0.00
   -1   11   16      1.67      0.00
    0   11   16      2.08      0.00
    7    1   17     -0.84      0.00
  -15    3   17      1.32      0.00
    7    3   17     -1.98      0.00
  -14    5   17     -1.36      0.00
    6    5   17      3.24      0.00
  -13    6   17     -0.58      0.00
    5    6   17      1.56      0.00
  -12    7   17      0.71      0.00
    4    7   17     -0.17      0.00
  -10    8   17      0.35      0.00
    2    8   17      1.55      0.00
   -8    9   17     -2.88      0.00
   -7    9   17     -3.19      0.00
   -1    9   17     -0.39      0.00
    0    9   17      1.82      0.00
  -13    0   18      1.09      0.00
    4    0   18     -1.78      0.00
    4    1   18      1.08      0.00
    4    2   18      1.50      0.00
  -12    3   18     -0.58      0.00
  -11    4   18     -1.14      0.00
    3    4   18     -0.50      0.00
  -10    5   18     -1.07      0.00
    1    5   18      2.68      0.00
    2    5   18      0.83      0.00
   -8    6   18      1.26      0.00
   -1    6   18      1.63      0.00
    0    6   18     -0.52      0.00
   -5    7   18     -1.30      0.00
   -4    7   18     -0.41      0.00
   -3    7   18      0.08      0.00
    0    0    0      0.00      0.00
# SQUEEZE RESULTS (Version =  70515)
# Note: Data are Listed for all Voids in the P1 Unit Cell
# i.e. Centre of Gravity, Solvent Accessible Volume,
# Recovered number of Electrons in the Void and
# Details about the Squeezed Material
loop_
  _platon_squeeze_void_nr
  _platon_squeeze_void_average_x
  _platon_squeeze_void_average_y
  _platon_squeeze_void_average_z
  _platon_squeeze_void_volume
  _platon_squeeze_void_count_electrons
  _platon_squeeze_void_content
   1 -0.023  0.319  0.016      1929       435 ' '
# Missing Reflections Below sin(th)/lambda = 0.25
loop_
  _platon_missing_refln_index_h
  _platon_missing_refln_index_k
  _platon_missing_refln_index_l
  _platon_missing_refln_theta
    2    1    0     2.403
    0    2    0     2.532
    7    2    0     7.604
    1    3    0     3.934
    6    3    0     7.226
    7    3    0     8.120
    0    4    0     5.068
    6    4    0     7.972
    2    6    0     7.887
   -7    3    1     8.033
    7    3    1     8.448
    8    3    1     9.367
    5    5    1     8.426
    7    5    1     9.871
   -8    0    2     8.211
   -4    0    2     4.563
    2    0    2     3.751
    3    0    2     4.502
   -7    1    2     7.361
   -6    1    2     6.440
   -8    2    2     8.598
   -7    2    2     7.684
    5    4    2     8.055
    3    5    2     7.787
    0    6    2     8.127
   -7    1    3     7.800
    3    1    3     5.773
    4    1    3     6.491
   -6    5    3     9.358
   -1    6    3     8.702
    4    0    4     7.518
    5    0    4     8.245
    4    1    4     7.625
    5    1    4     8.343
    5    1    5     9.500
    2    5    5     9.987
_platon_squeeze_void_probe_radius                  1.20
_platon_squeeze_details
)
TITL 1.res in P2(1)/c
CELL   20.2280   16.0900   14.6440     90.00     99.63     90.00
SPGR P21/c
# Solvent Accessible Volume =    1961.6
# Electrons Found in S.A.V. =     434.7
# Note: Atoms in Void as Cxxx and Qxxx all others
C101 1.002 0.234 0.016 !       8.13 eA-3
C102 0.019 0.174 0.404 !       6.20 eA-3
C103 0.549 0.268 0.238 !       6.12 eA-3
C104 0.921 0.253 0.155 !       5.79 eA-3
C105 0.510 0.376 0.141 !       5.72 eA-3
C106 0.997 0.205 0.480 !       5.31 eA-3
C107 0.765 0.436-0.002 !       4.85 eA-3
C108 0.953 0.723 0.136 !       3.40 eA-3
C109 0.995 0.592 0.120 !       3.32 eA-3
C110 0.767 0.370 0.061 !       3.26 eA-3
C111 0.506 0.315 0.202 !       3.22 eA-3
C112 0.288 0.551 0.043 !       2.88 eA-3
C113 0.823 0.031 0.487 !       2.70 eA-3
C114 0.547 0.925 0.378 !       2.69 eA-3
C115 0.568 0.374 0.113 !       2.53 eA-3
C116 0.879 0.452 0.032 !       2.44 eA-3
C117 0.551 0.331 0.169 !       2.19 eA-3
C118 0.444 0.371 0.154 !       2.14 eA-3
Q119 0.163 0.502 0.354 !       1.97 eA-3
C120 0.479 0.940 0.429 !       1.74 eA-3
Q121 0.695 0.035 0.069 !       1.71 eA-3
Q122 0.306 0.533 0.397 !       1.71 eA-3
Q123 0.694 0.983 0.079 !       1.69 eA-3
Q124 0.844 0.018 0.099 !       1.59 eA-3
C125 0.588 0.251 0.456 !       1.50 eA-3
Q126 0.594 0.530 0.331 !       1.35 eA-3
Q127 0.175 0.045 0.271 !       1.33 eA-3
Q128 0.714 0.404 0.493 !       1.32 eA-3
C129 0.541 0.780 0.299 !       1.30 eA-3
Q130 0.294 0.454 0.466 !       1.29 eA-3
C131 0.694 0.348 0.034 !       1.24 eA-3
Q132 0.845 0.974 0.096 !       1.23 eA-3
Q133 0.565 0.748 0.057 !       1.21 eA-3
Q134 0.299 0.419 0.298 !       1.20 eA-3
Q135 0.845 0.734 0.433 !       1.19 eA-3
Q136 0.904 0.501 0.333 !       1.17 eA-3
Q137 0.746 0.722 0.403 !       1.16 eA-3
Q138 0.298 0.734 0.218 !       1.16 eA-3
Q139 0.170 0.450 0.293 !       1.16 eA-3
Q140 0.844 0.214 0.327 !       1.14 eA-3
Q141 0.226 0.329 0.200 !       1.13 eA-3
Q142 0.408 0.483 0.406 !       1.08 eA-3
Q143 0.153 0.801 0.073 !       1.07 eA-3
Q144 0.840 0.921 0.250 !       1.03 eA-3
Q145 0.834 0.048 0.176 !       1.03 eA-3
Q146 0.536 0.531 0.363 !       1.02 eA-3
Q147 0.258 0.155 0.364 !       1.01 eA-3
Q148 0.176 0.624 0.294 !       1.01 eA-3
Q149 0.600 0.580 0.230 !       1.01 eA-3
Q150 0.858 0.108 0.217 !       1.00 eA-3
Q151 0.014 0.473 0.267 !       0.99 eA-3
Q152 0.254 0.611 0.317 !       0.98 eA-3
Q153 0.844 0.513 0.294 !       0.97 eA-3
Q154 0.726 0.889 0.031 !       0.97 eA-3
Q155 0.780 0.872 0.263 !       0.96 eA-3
Q156 0.197 0.701 0.202 !       0.96 eA-3
Q157 0.065 0.031 0.126 !       0.95 eA-3
Q158 0.492 0.421 0.378 !       0.94 eA-3
C159 0.831 0.352 0.106 !       0.93 eA-3
Q160 0.844 0.095 0.017 !       0.90 eA-3
Q161 0.281 0.767 0.171 !       0.90 eA-3
Q162 0.518 0.092 0.156 !       0.87 eA-3
Q163 0.762 0.391 0.494 !       0.86 eA-3
C164 0.515 0.298 0.116 !       0.85 eA-3
Q165 0.720 0.316 0.325 !       0.85 eA-3
Q166 0.232 0.065 0.302 !       0.84 eA-3
C167 0.691 0.328 0.093 !       0.82 eA-3
C168 0.232 0.816 0.383 !       0.82 eA-3
Q169 0.848 0.044 0.060 !       0.81 eA-3
Q170 0.224 0.675 0.194 !       0.81 eA-3
Q171 0.299 0.049 0.267 !       0.81 eA-3
Q172 0.711 0.767 0.304 !       0.80 eA-3
Q173 0.206 0.819 0.079 !       0.80 eA-3
Q174 0.526 0.468 0.343 !       0.80 eA-3
C175 0.347 0.610 0.040 !       0.79 eA-3
Q176 0.700 0.685 0.125 !       0.79 eA-3
Q177 0.496 0.574 0.390 !       0.78 eA-3
Q178 0.548 0.279 0.007 !       0.76 eA-3
Q179 0.768 0.651 0.480 !       0.76 eA-3
C180 0.593 0.297 0.080 !       0.75 eA-3
Q181 0.285 0.580 0.302 !       0.74 eA-3
C182 0.018 0.843 0.419 !       0.73 eA-3
Q183 0.588 0.093 0.126 !       0.73 eA-3
Q184 0.560 1.005 0.048 !       0.73 eA-3
C185 0.489 0.955 0.359 !       0.71 eA-3
C186 0.027 0.374 0.032 !       0.67 eA-3
Q187 0.827 0.576 0.543 !       0.67 eA-3
Q188 0.173 0.424 0.457 !       0.67 eA-3
C189 0.859 0.533 0.011 !       0.67 eA-3
Q190 0.539 0.800 0.406 !       0.66 eA-3
Q191 0.942 0.988 0.128 !       0.65 eA-3
C192 0.027 0.587 0.185 !       0.64 eA-3
Q193 0.702 0.705 0.268 !       0.64 eA-3
Q194 0.487 0.017 0.406 !       0.64 eA-3
Q195 0.293 0.265 0.163 !       0.64 eA-3
Q196 0.300 0.140 0.008 !       0.64 eA-3
C197 0.502 0.544 0.026 !       0.64 eA-3
Q198 0.830 0.800 0.323 !       0.64 eA-3
C199 0.057 0.547 0.171 !       0.63 eA-3
)
;
_shelx_fab_checksum              21451
_smtbx_masks_special_details
;
A solvent mask was calculated and 108.7 electrons were
found in a volume of 490.4\%A^3 in 1 void.
This is consistent with the presence of
2[C3H7NO],1[CH4O], 1[H2O] per formula unit
which account for 108.0 electrons.
;
_smtbx_masks_void_probe_radius   1.2
_smtbx_masks_void_truncation_radius 1.2
loop_
_space_group_symop_operation_xyz
'x, y, z'
'-x, y+1/2, -z+1/2'
'-x, -y, -z'
'x, -y-1/2, z-1/2'
loop_
_atom_site_label
_atom_site_type_symbol
_atom_site_fract_x
_atom_site_fract_y
_atom_site_fract_z
_atom_site_U_iso_or_equiv
_atom_site_adp_type
_atom_site_occupancy
_atom_site_site_symmetry_order
_atom_site_calc_flag
_atom_site_refinement_flags_posn
_atom_site_refinement_flags_adp
Zn1 Zn 0.15135(2) 0.49817(2) 0.37269(3) 0.01333(16) Uani 1 1 d . .
Zn2 Zn 0.29998(2) 0.50081(2) 0.41105(3) 0.01306(15) Uani 1 1 d . .
C1 C 0.6294(2) 0.6506(3) 0.1408(3) 0.0315(10) Uani 1 1 d . .
C2 C 0.64028(19) 0.5898(3) 0.2093(3) 0.0287(9) Uani 1 1 d . .
C3 C 0.70293(19) 0.5574(3) 0.2378(3) 0.0302(9) Uani 1 1 d . .
H3 H 0.709559 0.514932 0.283484 0.036 Uiso 1 1 calc R U
C4 C 0.75692(19) 0.5869(3) 0.1993(3) 0.0354(10) Uani 1 1 d . .
C5 C 0.7468(2) 0.6473(3) 0.1305(3) 0.0456(13) Uani 1 1 d . .
H5 H 0.783393 0.666752 0.103362 0.055 Uiso 1 1 calc R U
C6 C 0.6832(2) 0.6787(3) 0.1019(3) 0.0398(11) Uani 1 1 d . .
H6 H 0.676286 0.720041 0.054978 0.048 Uiso 1 1 calc R U
C7 C 0.5621(2) 0.6876(3) 0.1116(3) 0.0416(11) Uani 1 1 d . .
H7 H 0.526673 0.670800 0.142701 0.050 Uiso 1 1 calc R U
C8 C 0.5928(2) 0.5111(3) 0.3240(3) 0.0298(10) Uani 1 1 d . .
H8A H 0.627228 0.533165 0.374105 0.036 Uiso 1 1 calc R U
H8B H 0.606165 0.454585 0.307572 0.036 Uiso 1 1 calc R U
C9 C 0.5252(2) 0.5093(2) 0.3539(3) 0.0244(9) Uani 1 1 d . .
C10 C 0.4878(2) 0.5812(3) 0.3511(3) 0.0361(11) Uani 1 1 d . .
H10 H 0.504745 0.632372 0.332201 0.043 Uiso 1 1 calc R U
C11 C 0.4247(2) 0.5769(3) 0.3768(3) 0.0310(10) Uani 1 1 d . .
H11 H 0.398548 0.626121 0.374257 0.037 Uiso 1 1 calc R U
C12 C 0.4367(2) 0.4389(2) 0.4097(3) 0.0268(9) Uani 1 1 d . .
H12 H 0.419474 0.388623 0.430444 0.032 Uiso 1 1 calc R U
C13 C 0.50041(19) 0.4385(3) 0.3856(3) 0.0304(10) Uani 1 1 d . .
H13 H 0.526387 0.388982 0.391334 0.036 Uiso 1 1 calc R U
C14 C 0.8350(2) 0.5022(3) 0.2983(3) 0.0392(12) Uani 1 1 d . .
H14A H 0.815358 0.447422 0.278752 0.047 Uiso 1 1 calc R U
H14B H 0.816032 0.521508 0.352679 0.047 Uiso 1 1 calc R U
C15 C -0.0894(2) 0.4962(3) 0.3219(3) 0.0334(11) Uani 1 1 d . .
C16 C -0.0540(2) 0.5516(3) 0.3817(4) 0.0496(13) Uani 1 1 d . .
H16 H -0.076638 0.592325 0.411818 0.060 Uiso 1 1 calc R U
C17 C 0.0154(2) 0.5476(3) 0.3977(3) 0.0422(12) Uani 1 1 d . .
H17 H 0.039473 0.585843 0.440290 0.051 Uiso 1 1 calc R U
C18 C 0.0145(2) 0.4371(3) 0.3017(4) 0.0508(14) Uani 1 1 d . .
H18 H 0.038195 0.395241 0.274729 0.061 Uiso 1 1 calc R U
C19 C -0.0543(2) 0.4372(3) 0.2822(4) 0.0538(14) Uani 1 1 d . .
H19 H -0.077335 0.396763 0.241541 0.065 Uiso 1 1 calc R U
C20 C 0.22543(18) 0.3264(2) 0.1913(3) 0.0223(8) Uani 1 1 d . .
C21 C 0.16751(19) 0.2944(2) 0.1383(3) 0.0268(9) Uani 1 1 d . .
H21 H 0.125019 0.316691 0.144647 0.032 Uiso 1 1 calc R U
C22 C 0.17143(19) 0.2306(2) 0.0765(3) 0.0257(9) Uani 1 1 d . .
H22 H 0.131784 0.209373 0.040034 0.031 Uiso 1 1 calc R U
C23 C 0.23336(18) 0.1976(2) 0.0679(2) 0.0193(8) Uani 1 1 d . .
C24 C 0.2912(2) 0.2299(2) 0.1200(3) 0.0253(9) Uani 1 1 d . .
H24 H 0.333736 0.208046 0.113060 0.030 Uiso 1 1 calc R U
C25 C 0.28744(19) 0.2932(2) 0.1813(3) 0.0245(9) Uani 1 1 d . .
H25 H 0.327271 0.314571 0.217167 0.029 Uiso 1 1 calc R U
C26 C 0.22189(19) 0.3935(2) 0.2607(3) 0.0217(8) Uani 1 1 d . .
C27 C 0.2362(2) 0.3758(2) 0.5044(3) 0.0226(9) Uani 1 1 d . .
C28 C 0.22459(19) 0.6743(2) 0.5906(3) 0.0219(8) Uani 1 1 d . .
C29 C 0.1637(2) 0.7093(3) 0.6016(3) 0.0313(10) Uani 1 1 d . .
H29 H 0.123179 0.689049 0.566461 0.038 Uiso 1 1 calc R U
C30 C 0.1621(2) 0.7731(3) 0.6634(3) 0.0302(10) Uani 1 1 d . .
H30 H 0.120187 0.796074 0.671370 0.036 Uiso 1 1 calc R U
C31 C 0.22061(19) 0.8045(2) 0.7142(3) 0.0229(9) Uani 1 1 d . .
C32 C 0.2814(2) 0.7705(3) 0.7033(3) 0.0348(11) Uani 1 1 d . .
H32 H 0.321819 0.791852 0.737819 0.042 Uiso 1 1 calc R U
C33 C 0.2837(2) 0.7052(3) 0.6419(3) 0.0340(11) Uani 1 1 d . .
H33 H 0.325591 0.681514 0.634839 0.041 Uiso 1 1 calc R U
C34 C 0.2266(2) 0.6054(2) 0.5222(2) 0.0233(9) Uani 1 1 d . .
C35 C 0.2187(2) 0.6240(2) 0.2802(2) 0.0229(9) Uani 1 1 d . .
N1 N 0.39933(16) 0.50679(17) 0.4049(2) 0.0188(7) Uani 1 1 d . .
N2 N 0.04961(17) 0.49367(17) 0.3573(2) 0.0206(7) Uani 1 1 d . .
O1 O 0.55001(17) 0.7387(2) 0.0495(2) 0.0559(9) Uani 1 1 d . .
O2 O 0.58507(13) 0.5650(2) 0.2442(2) 0.0420(8) Uani 1 1 d . .
O3 O 0.82124(13) 0.5610(2) 0.2241(2) 0.0430(8) Uani 1 1 d . .
O4 O 0.27561(14) 0.42095(19) 0.3031(2) 0.0353(7) Uani 1 1 d . .
O5 O 0.16414(14) 0.41803(19) 0.2720(2) 0.0348(7) Uani 1 1 d . .
O6 O 0.29377(14) 0.40183(18) 0.4953(2) 0.0323(7) Uani 1 1 d . .
O7 O 0.18185(14) 0.40523(17) 0.4649(2) 0.0327(7) Uani 1 1 d . .
O8 O 0.17126(15) 0.57993(18) 0.4791(2) 0.0356(7) Uani 1 1 d . .
O9 O 0.28288(15) 0.57648(19) 0.5143(2) 0.0384(8) Uani 1 1 d . .
O10 O 0.16198(13) 0.59579(18) 0.2881(2) 0.0339(7) Uani 1 1 d . .
O11 O 0.27340(15) 0.59726(19) 0.3220(2) 0.0402(8) Uani 1 1 d . .
loop_
_atom_site_aniso_label
_atom_site_aniso_U_11
_atom_site_aniso_U_22
_atom_site_aniso_U_33
_atom_site_aniso_U_23
_atom_site_aniso_U_13
_atom_site_aniso_U_12
Zn1 0.0107(3) 0.0127(3) 0.0170(3) -0.00047(15) 0.00316(18) -0.00010(15)
Zn2 0.0102(3) 0.0128(3) 0.0166(3) 0.00023(15) 0.00359(18) -0.00023(15)
C1 0.028(2) 0.038(3) 0.029(2) 0.0017(19) 0.0046(18) -0.0036(19)
C2 0.019(2) 0.041(2) 0.027(2) 0.0004(19) 0.0051(17) -0.0017(18)
C3 0.019(2) 0.039(2) 0.032(2) 0.0080(19) 0.0063(17) -0.0001(18)
C4 0.015(2) 0.055(3) 0.037(2) 0.002(2) 0.0055(18) -0.001(2)
C5 0.028(3) 0.069(3) 0.043(3) 0.022(2) 0.013(2) -0.006(2)
C6 0.029(2) 0.050(3) 0.040(3) 0.015(2) 0.005(2) 0.001(2)
C7 0.037(3) 0.047(3) 0.040(3) 0.007(2) 0.002(2) 0.004(2)
C8 0.015(2) 0.041(3) 0.034(2) 0.0123(19) 0.0074(18) -0.0002(17)
C9 0.012(2) 0.032(2) 0.029(2) 0.0012(17) 0.0023(16) -0.0004(16)
C10 0.021(2) 0.035(3) 0.054(3) 0.007(2) 0.010(2) -0.0074(19)
C11 0.019(2) 0.029(2) 0.046(3) -0.0005(19) 0.0081(19) -0.0008(18)
C12 0.026(2) 0.022(2) 0.034(2) 0.0060(18) 0.0109(18) 0.0028(18)
C13 0.019(2) 0.034(2) 0.040(2) 0.0072(19) 0.0094(18) 0.0070(18)
C14 0.013(2) 0.067(4) 0.038(3) 0.009(2) 0.0061(19) 0.0016(19)
C15 0.012(2) 0.056(3) 0.034(2) 0.006(2) 0.0086(19) 0.0004(19)
C16 0.024(2) 0.054(3) 0.071(4) -0.028(3) 0.009(2) 0.009(2)
C17 0.018(2) 0.049(3) 0.058(3) -0.031(2) 0.002(2) 0.001(2)
C18 0.028(3) 0.048(3) 0.077(4) -0.031(3) 0.011(2) 0.000(2)
C19 0.026(3) 0.064(3) 0.071(3) -0.029(3) 0.008(2) -0.006(2)
C20 0.018(2) 0.025(2) 0.024(2) -0.0057(16) 0.0049(16) 0.0023(17)
C21 0.018(2) 0.028(2) 0.035(2) -0.0105(18) 0.0049(17) 0.0029(17)
C22 0.016(2) 0.027(2) 0.032(2) -0.0085(18) 0.0012(17) -0.0007(17)
C23 0.019(2) 0.021(2) 0.0179(18) -0.0043(15) 0.0042(15) 0.0001(16)
C24 0.021(2) 0.025(2) 0.031(2) -0.0072(17) 0.0076(17) 0.0024(17)
C25 0.016(2) 0.029(2) 0.027(2) -0.0061(17) 0.0002(16) -0.0030(17)
C26 0.022(2) 0.022(2) 0.0219(19) -0.0062(16) 0.0064(16) -0.0020(17)
C27 0.028(2) 0.0148(19) 0.025(2) 0.0019(16) 0.0053(17) -0.0025(17)
C28 0.023(2) 0.0170(19) 0.025(2) -0.0062(16) 0.0016(16) 0.0032(16)
C29 0.021(2) 0.032(2) 0.041(2) -0.016(2) 0.0025(18) -0.0012(18)
C30 0.020(2) 0.033(2) 0.037(2) -0.0127(19) 0.0048(18) 0.0026(18)
C31 0.022(2) 0.017(2) 0.029(2) -0.0081(16) 0.0018(17) 0.0014(16)
C32 0.019(2) 0.041(3) 0.042(3) -0.023(2) 0.0008(19) -0.0026(19)
C33 0.024(2) 0.032(2) 0.045(3) -0.021(2) 0.003(2) 0.0076(19)
C34 0.027(2) 0.026(2) 0.0165(18) -0.0030(16) 0.0019(16) 0.0038(18)
C35 0.025(2) 0.024(2) 0.0197(19) 0.0053(16) 0.0028(16) 0.0014(17)
N1 0.0112(16) 0.0213(18) 0.0231(17) 0.0007(12) 0.0005(13) -0.0008(12)
N2 0.0144(17) 0.0262(19) 0.0219(17) -0.0005(13) 0.0051(14) 0.0017(13)
O1 0.045(2) 0.059(2) 0.061(2) 0.0184(19) -0.0013(18) 0.0054(18)
O2 0.0150(14) 0.068(2) 0.0449(18) 0.0255(16) 0.0096(13) 0.0027(14)
O3 0.0162(15) 0.068(2) 0.0474(18) 0.0202(17) 0.0121(13) 0.0017(15)
O4 0.0273(17) 0.0406(18) 0.0396(17) -0.0246(14) 0.0104(14) -0.0063(14)
O5 0.0240(16) 0.0410(18) 0.0377(17) -0.0216(14) 0.0001(13) 0.0099(13)
O6 0.0263(16) 0.0312(16) 0.0386(17) 0.0175(13) 0.0030(13) -0.0052(13)
O7 0.0296(17) 0.0294(16) 0.0393(17) 0.0198(13) 0.0062(14) 0.0015(13)
O8 0.0352(18) 0.0363(17) 0.0364(17) -0.0213(14) 0.0086(14) -0.0027(14)
O9 0.0329(18) 0.0405(19) 0.0386(17) -0.0225(14) -0.0032(14) 0.0124(15)
O10 0.0175(15) 0.0372(17) 0.0456(17) 0.0236(14) 0.0016(13) -0.0081(13)
O11 0.0253(17) 0.0422(19) 0.0513(19) 0.0313(15) 0.0017(15) 0.0020(14)
loop_
_atom_type_symbol
_atom_type_description
_atom_type_scat_dispersion_real
_atom_type_scat_dispersion_imag
_atom_type_scat_source
C C 0.0033 0.0016 'International Tables Vol C Tables 4.2.6.8 and 6.1.1.4'
H H 0.0000 0.0000 'International Tables Vol C Tables 4.2.6.8 and 6.1.1.4'
N N 0.0061 0.0033 'International Tables Vol C Tables 4.2.6.8 and 6.1.1.4'
O O 0.0106 0.0060 'International Tables Vol C Tables 4.2.6.8 and 6.1.1.4'
Zn Zn 0.2839 1.4301 'International Tables Vol C Tables 4.2.6.8 and 6.1.1.4'
loop_
_geom_angle_atom_site_label_1
_geom_angle_atom_site_label_2
_geom_angle_atom_site_label_3
_geom_angle
_geom_angle_site_symmetry_1
_geom_angle_site_symmetry_3
O5 Zn1 O8 161.38(12) . .
O5 Zn1 N2 98.50(12) . .
O8 Zn1 N2 100.12(12) . .
O5 Zn1 O10 90.50(14) . .
O8 Zn1 O10 86.53(13) . .
N2 Zn1 O10 99.67(12) . .
O5 Zn1 O7 87.35(12) . .
O8 Zn1 O7 88.13(14) . .
N2 Zn1 O7 103.64(12) . .
O10 Zn1 O7 156.66(11) . .
O5 Zn1 Zn2 84.11(8) . .
O8 Zn1 Zn2 77.31(8) . .
N2 Zn1 Zn2 175.36(9) . .
O10 Zn1 Zn2 84.10(8) . .
O7 Zn1 Zn2 72.56(8) . .
O9 Zn2 N1 107.48(12) . .
O9 Zn2 O4 156.27(12) . .
N1 Zn2 O4 96.22(12) . .
O9 Zn2 O6 88.97(13) . .
N1 Zn2 O6 103.09(12) . .
O4 Zn2 O6 86.87(13) . .
O9 Zn2 O11 87.73(13) . .
N1 Zn2 O11 95.30(12) . .
O4 Zn2 O11 88.84(15) . .
O6 Zn2 O11 161.45(12) . .
O9 Zn2 Zn1 81.67(9) . .
N1 Zn2 Zn1 166.58(9) . .
O4 Zn2 Zn1 74.77(8) . .
O6 Zn2 Zn1 86.57(8) . .
O11 Zn2 Zn1 74.90(8) . .
C6 C1 C2 119.0(4) . .
C6 C1 C7 119.8(4) . .
C2 C1 C7 121.1(4) . .
O2 C2 C3 123.4(4) . .
O2 C2 C1 115.8(4) . .
C3 C2 C1 120.9(4) . .
C2 C3 C4 119.7(4) . .
C2 C3 H3 120.2 . .
C4 C3 H3 120.2 . .
O3 C4 C5 115.3(4) . .
O3 C4 C3 124.6(4) . .
C5 C4 C3 120.1(4) . .
C6 C5 C4 119.5(4) . .
C6 C5 H5 120.2 . .
C4 C5 H5 120.2 . .
C5 C6 C1 120.8(4) . .
C5 C6 H6 119.6 . .
C1 C6 H6 119.6 . .
O1 C7 C1 123.0(4) . .
O1 C7 H7 118.5 . .
C1 C7 H7 118.5 . .
O2 C8 C9 105.5(3) . .
O2 C8 H8A 110.6 . .
C9 C8 H8A 110.6 . .
O2 C8 H8B 110.6 . .
C9 C8 H8B 110.6 . .
H8A C8 H8B 108.8 . .
C13 C9 C10 118.9(4) . .
C13 C9 C8 121.4(3) . .
C10 C9 C8 119.7(3) . .
C9 C10 C11 118.2(4) . .
C9 C10 H10 120.9 . .
C11 C10 H10 120.9 . .
N1 C11 C10 123.0(4) . .
N1 C11 H11 118.5 . .
C10 C11 H11 118.5 . .
N1 C12 C13 122.3(4) . .
N1 C12 H12 118.8 . .
C13 C12 H12 118.8 . .
C9 C13 C12 119.5(4) . .
C9 C13 H13 120.2 . .
C12 C13 H13 120.2 . .
O3 C14 C15 106.1(3) . 1_655
O3 C14 H14A 110.5 . .
C15 C14 H14A 110.5 1_655 .
O3 C14 H14B 110.5 . .
C15 C14 H14B 110.5 1_655 .
H14A C14 H14B 108.7 . .
C19 C15 C16 118.1(4) . .
C19 C15 C14 121.6(4) . 1_455
C16 C15 C14 120.3(4) . 1_455
C15 C16 C17 119.1(4) . .
C15 C16 H16 120.5 . .
C17 C16 H16 120.5 . .
N2 C17 C16 123.4(4) . .
N2 C17 H17 118.3 . .
C16 C17 H17 118.3 . .
N2 C18 C19 122.7(4) . .
N2 C18 H18 118.6 . .
C19 C18 H18 118.6 . .
C15 C19 C18 119.4(5) . .
C15 C19 H19 120.3 . .
C18 C19 H19 120.3 . .
C21 C20 C25 119.2(3) . .
C21 C20 C26 121.0(3) . .
C25 C20 C26 119.7(3) . .
C20 C21 C22 120.4(3) . .
C20 C21 H21 119.8 . .
C22 C21 H21 119.8 . .
C21 C22 C23 119.8(4) . .
C21 C22 H22 120.1 . .
C23 C22 H22 120.1 . .
C24 C23 C22 119.9(3) . .
C24 C23 C27 121.1(3) . 4_565
C22 C23 C27 119.0(3) . 4_565
C25 C24 C23 120.4(4) . .
C25 C24 H24 119.8 . .
C23 C24 H24 119.8 . .
C24 C25 C20 120.3(4) . .
C24 C25 H25 119.8 . .
C20 C25 H25 119.8 . .
O4 C26 O5 125.0(3) . .
O4 C26 C20 117.4(3) . .
O5 C26 C20 117.6(3) . .
O7 C27 O6 125.5(3) . .
O7 C27 C23 117.5(3) . 4_566
O6 C27 C23 117.0(3) . 4_566
C29 C28 C33 119.4(3) . .
C29 C28 C34 120.1(4) . .
C33 C28 C34 120.4(3) . .
C28 C29 C30 120.0(4) . .
C28 C29 H29 120.0 . .
C30 C29 H29 120.0 . .
C31 C30 C29 121.0(4) . .
C31 C30 H30 119.5 . .
C29 C30 H30 119.5 . .
C32 C31 C30 119.5(4) . .
C32 C31 C35 119.7(4) . 4_576
C30 C31 C35 120.8(3) . 4_576
C31 C32 C33 120.1(4) . .
C31 C32 H32 120.0 . .
C33 C32 H32 120.0 . .
C28 C33 C32 120.0(4) . .
C28 C33 H33 120.0 . .
C32 C33 H33 120.0 . .
O8 C34 O9 125.4(4) . .
O8 C34 C28 117.0(3) . .
O9 C34 C28 117.6(4) . .
O11 C35 O10 125.3(4) . .
O11 C35 C31 117.5(3) . 4_575
O10 C35 C31 117.2(3) . 4_575
C12 N1 C11 118.0(3) . .
C12 N1 Zn2 121.3(2) . .
C11 N1 Zn2 119.3(3) . .
C17 N2 C18 117.2(4) . .
C17 N2 Zn1 121.8(3) . .
C18 N2 Zn1 121.0(3) . .
C2 O2 C8 119.7(3) . .
C4 O3 C14 117.6(3) . .
C26 O4 Zn2 133.9(2) . .
C26 O5 Zn1 122.0(3) . .
C27 O6 Zn2 118.4(3) . .
C27 O7 Zn1 137.0(3) . .
C34 O8 Zn1 130.0(3) . .
C34 O9 Zn2 124.5(3) . .
C35 O10 Zn1 121.7(3) . .
C35 O11 Zn2 133.9(3) . .
loop_
_geom_bond_atom_site_label_1
_geom_bond_atom_site_label_2
_geom_bond_distance
_geom_bond_site_symmetry_2
Zn1 O5 2.008(3) .
Zn1 O8 2.028(3) .
Zn1 N2 2.034(3) .
Zn1 O10 2.034(3) .
Zn1 O7 2.040(3) .
Zn1 Zn2 2.9649(7) .
Zn2 O9 2.016(3) .
Zn2 N1 2.029(3) .
Zn2 O4 2.033(3) .
Zn2 O6 2.031(3) .
Zn2 O11 2.041(3) .
C1 C6 1.386(5) .
C1 C2 1.393(6) .
C1 C7 1.482(6) .
C2 O2 1.363(4) .
C2 C3 1.369(5) .
C3 C4 1.393(5) .
C3 H3 0.9500 .
C4 O3 1.357(5) .
C4 C5 1.390(6) .
C5 C6 1.380(6) .
C5 H5 0.9500 .
C6 H6 0.9500 .
C7 O1 1.220(5) .
C7 H7 0.9500 .
C8 O2 1.443(5) .
C8 C9 1.504(5) .
C8 H8A 0.9900 .
C8 H8B 0.9900 .
C9 C13 1.358(5) .
C9 C10 1.379(6) .
C10 C11 1.392(5) .
C10 H10 0.9500 .
C11 N1 1.332(5) .
C11 H11 0.9500 .
C12 N1 1.324(5) .
C12 C13 1.391(5) .
C12 H12 0.9500 .
C13 H13 0.9500 .
C14 O3 1.432(5) .
C14 C15 1.514(6) 1_655
C14 H14A 0.9900 .
C14 H14B 0.9900 .
C15 C19 1.371(6) .
C15 C16 1.366(6) .
C16 C17 1.386(6) .
C16 H16 0.9500 .
C17 N2 1.311(5) .
C17 H17 0.9500 .
C18 N2 1.343(5) .
C18 C19 1.372(6) .
C18 H18 0.9500 .
C19 H19 0.9500 .
C20 C21 1.391(5) .
C20 C25 1.394(5) .
C20 C26 1.493(5) .
C21 C22 1.379(5) .
C21 H21 0.9500 .
C22 C23 1.386(5) .
C22 H22 0.9500 .
C23 C24 1.388(5) .
C23 C27 1.509(5) 4_565
C24 C25 1.367(5) .
C24 H24 0.9500 .
C25 H25 0.9500 .
C26 O4 1.239(5) .
C26 O5 1.270(4) .
C27 O7 1.247(5) .
C27 O6 1.266(5) .
C28 C29 1.387(5) .
C28 C33 1.393(6) .
C28 C34 1.499(5) .
C29 C30 1.372(6) .
C29 H29 0.9500 .
C30 C31 1.384(5) .
C30 H30 0.9500 .
C31 C32 1.380(5) .
C31 C35 1.507(5) 4_576
C32 C33 1.390(6) .
C32 H32 0.9500 .
C33 H33 0.9500 .
C34 O8 1.258(5) .
C34 O9 1.252(5) .
C35 O11 1.248(5) .
C35 O10 1.257(5) .
loop_
_smtbx_masks_void_nr
_smtbx_masks_void_average_x
_smtbx_masks_void_average_y
_smtbx_masks_void_average_z
_smtbx_masks_void_volume
_smtbx_masks_void_count_electrons
_smtbx_masks_void_content
1 -0.023 0.319 0.016 1929.0 435.0 '2 DMF,MeOH, H2O'
