#------------------------------------------------------------------------------
#$Date: 2019-11-07 23:24:18 +0200 (Thu, 07 Nov 2019) $
#$Revision: 224007 $
#$URL: file:///home/coder/svn-repositories/cod/cif/7/04/84/7048449.cif $
#------------------------------------------------------------------------------
#
# This file is available in the Crystallography Open Database (COD),
# http://www.crystallography.net/
#
# All data on this site have been placed in the public domain by the
# contributors.
#
data_7048449
loop_
_publ_author_name
'Wang, Dong'
'Hu, Zhiyong'
'Xu, Shasha'
'Li, Dandan'
'Zhang, Qiong'
'Ma, Wen'
'Zhou, Hongping'
'Wu, Jieying'
'Tian, Yupeng'
_publ_section_title
;
 Fluorescent metal-organic frameworks based on mixed organic ligands: new
 candidates for highly sensitive detection of TNP.
;
_journal_issue                   5
_journal_name_full
'Dalton transactions (Cambridge, England : 2003)'
_journal_page_first              1900
_journal_page_last               1905
_journal_paper_doi               10.1039/c8dt03811b
_journal_volume                  48
_journal_year                    2019
_chemical_formula_sum            'C60 H48 N12 O9 Zn2'
_chemical_formula_weight         1211.84
_space_group_crystal_system      monoclinic
_space_group_IT_number           15
_space_group_name_Hall           '-C 2yc'
_space_group_name_H-M_alt        'C 1 2/c 1'
_symmetry_space_group_name_Hall  '-C 2yc'
_symmetry_space_group_name_H-M   'C 1 2/c 1'
_atom_sites_solution_hydrogens   mixed
_audit_creation_method           SHELXL-2018/3
_audit_update_record
;
2018-11-12 deposited with the CCDC.
2019-01-02 downloaded from the CCDC.
;
_cell_angle_alpha                90
_cell_angle_beta                 91.584(2)
_cell_angle_gamma                90
_cell_formula_units_Z            4
_cell_length_a                   26.882(3)
_cell_length_b                   10.8337(13)
_cell_length_c                   21.914(3)
_cell_measurement_reflns_used    26.52
_cell_measurement_temperature    296(2)
_cell_measurement_theta_max      26.52
_cell_measurement_theta_min      2.22
_cell_volume                     6379.6(14)
_computing_cell_refinement       'Bruker SMART'
_computing_data_collection       'Bruker SMART'
_computing_data_reduction        'Bruker SAINT'
_computing_molecular_graphics    'Bruker SHELXTL'
_computing_publication_material  'Bruker SHELXTL'
_computing_structure_refinement  'SHELXL-2018/3 (Sheldrick, 2018)'
_computing_structure_solution    'Bruker SHELXTL'
_diffrn_ambient_temperature      296(2)
_diffrn_measured_fraction_theta_full 0.977
_diffrn_measured_fraction_theta_max 0.978
_diffrn_measurement_device_type  'CCD area detector'
_diffrn_measurement_method       'phi and omega scans'
_diffrn_radiation_type           MoK\a
_diffrn_radiation_wavelength     0.71073
_diffrn_reflns_av_R_equivalents  0.0348
_diffrn_reflns_av_unetI/netI     0.0358
_diffrn_reflns_Laue_measured_fraction_full 0.977
_diffrn_reflns_Laue_measured_fraction_max 0.978
_diffrn_reflns_limit_h_max       32
_diffrn_reflns_limit_h_min       -32
_diffrn_reflns_limit_k_max       12
_diffrn_reflns_limit_k_min       -13
_diffrn_reflns_limit_l_max       26
_diffrn_reflns_limit_l_min       -24
_diffrn_reflns_number            22428
_diffrn_reflns_point_group_measured_fraction_full 0.977
_diffrn_reflns_point_group_measured_fraction_max 0.978
_diffrn_reflns_theta_full        25.242
_diffrn_reflns_theta_max         25.499
_diffrn_reflns_theta_min         1.516
_exptl_absorpt_coefficient_mu    0.813
_exptl_crystal_colour            colorless
_exptl_crystal_density_diffrn    1.262
_exptl_crystal_description       block
_exptl_crystal_F_000             2496
_exptl_crystal_size_max          0.200
_exptl_crystal_size_mid          0.130
_exptl_crystal_size_min          0.110
_refine_diff_density_max         0.378
_refine_diff_density_min         -0.306
_refine_diff_density_rms         0.056
_refine_ls_extinction_method     none
_refine_ls_goodness_of_fit_ref   0.626
_refine_ls_hydrogen_treatment    constr
_refine_ls_matrix_type           full
_refine_ls_number_parameters     419
_refine_ls_number_reflns         5823
_refine_ls_number_restraints     125
_refine_ls_restrained_S_all      0.639
_refine_ls_R_factor_all          0.0451
_refine_ls_R_factor_gt           0.0367
_refine_ls_shift/su_max          0.011
_refine_ls_shift/su_mean         0.001
_refine_ls_structure_factor_coef Fsqd
_refine_ls_weighting_details
'w=1/[\s^2^(Fo^2^)+(0.2000P)^2^] where P=(Fo^2^+2Fc^2^)/3'
_refine_ls_weighting_scheme      calc
_refine_ls_wR_factor_gt          0.1315
_refine_ls_wR_factor_ref         0.1454
_reflns_Friedel_coverage         0.000
_reflns_number_gt                4823
_reflns_number_total             5823
_reflns_threshold_expression     'I > 2\s(I)'
_cod_data_source_file            c8dt03811b2.cif
_cod_data_source_block           Zn-AHU-TW3
_cod_depositor_comments
'Adding full bibliography for 7048445--7048450.cif.'
_cod_original_cell_volume        6379.7(13)
_cod_database_code               7048449
_shelx_shelxl_version_number     2018/3
_shelx_space_group_comment
;
The symmetry employed for this shelxl refinement is uniquely defined
by the following loop, which should always be used as a source of
symmetry information in preference to the above space-group names.
They are only intended as comments.
;
_shelx_res_file
;

TITL SIR97 run in space group C 2/c
    1_sq.res
    created by SHELXL-2018/3 at 22:44:30 on 29-Oct-2018
CELL 0.71073 26.8824 10.8337 21.9141 90 91.584 90
ZERR 4 0.0032 0.0013 0.0026 0 0.002 0
LATT 7
SYMM -X,+Y,0.5-Z
SFAC C H Zn N O
UNIT 240 192 8 48 36
DFIX 1.5 N1 C9
DFIX 1.5 N1 C9A
DFIX 2.5 N1 C10A
ISOR 0.01 0.02 C9 C10 C8 C12 C11 C13 C8A C13A C12A C11A C10A C9A
isor 0.01 O3 N2 C20 N6 O1 C1 O5
dfix 4.36 0.01 zn1 o5
delu  c20 n6 o1 c1 o5
L.S. 5 0   19
PLAN  25
TEMP 23

BOND $H
eqiv $1 0.5 + x, 0.5+y, z
eqiv $2 x, 1-y, 0.5+z
CONF
MORE -1
fmap 2
isor 0.01 c14
OMIT 0 51
OMIT 5 1 4
OMIT 3 1 4
OMIT -2 0 4
OMIT 6 0 4
OMIT -1 1 1
OMIT -8 2 1
OMIT 6 2 3
OMIT 1 3 1
OMIT -1 5 8
OMIT 6 0 2
OMIT -4 4 3
OMIT -3 5 2
OMIT -4 2 3
OMIT -9 1 3
OMIT -5 3 1
OMIT -11 3 2
OMIT 7 1 2
OMIT 9 3 0
OMIT 4 0 6
OMIT -2 4 7
OMIT 1 1 7
OMIT 1 3 6
OMIT 1 5 0
OMIT -1 5 2
OMIT 0 0 2
OMIT 8 0 12
OMIT 13 3 0
OMIT -9 3 3
OMIT 2 2 8
OMIT -4 2 7
OMIT -3 1 2
OMIT 3 5 0
OMIT 7 1 4
OMIT -3 5 7
OMIT -5 1 3
OMIT 6 0 10
OMIT -3 5 9
OMIT -2 2 6
OMIT -14 0 2
OMIT -7 3 8
OMIT 3 1 3
OMIT 4 4 7
OMIT -2 6 5
OMIT -11 3 6
OMIT -12 0 2
OMIT 5 1 6
OMIT -4 2 2
OMIT -1 1 4
OMIT 0 2 4
OMIT -2 2 3
OMIT 16 0 0
OMIT -7 1 5
OMIT 4 2 13
OMIT -6 0 4
OMIT -10 0 2
OMIT 6 6 1
OMIT -9 3 4
OMIT -2 4 8
OMIT -3 3 11
OMIT 7 5 5
OMIT 2 6 2
OMIT -1 1 9
OMIT 5 5 9
OMIT -9 1 7
OMIT -1 3 13
OMIT 15 1 4
OMIT 5 5 0
OMIT 10 2 1
OMIT -3 3 2
OMIT -3 1 7
OMIT -9 1 1
OMIT -1 1 5
OMIT 1 3 0
OMIT -3 3 3
OMIT 15 5 1
OMIT 7 7 4
OMIT -10 4 5
OMIT -5 7 3
OMIT -7 3 5
OMIT 4 2 5
OMIT 1 1 9
OMIT -6 2 5
OMIT 6 0 0
OMIT 11 1 9
OMIT -6 2 6
OMIT 8 0 0
OMIT 3 3 9
OMIT -3 1 3
OMIT -4 2 4
OMIT 0 4 0
OMIT -19 1 2
OMIT -1 5 9
OMIT -1 7 2
OMIT -10 4 8
OMIT 0 4 7
OMIT 8 0 2
OMIT 10 0 4
OMIT 5 7 0
OMIT 13 3 10
OMIT 0 6 4
OMIT 6 4 14
OMIT -2 2 1
OMIT -15 3 10
OMIT 9 1 4
OMIT 5 3 1
OMIT -5 5 9
OMIT -8 2 4
OMIT 0 6 5
OMIT -14 2 2
OMIT 4 4 4
OMIT -3 5 4
OMIT 5 3 9
OMIT -5 5 4
OMIT 11 3 0
OMIT 0 0 12
OMIT -13 1 5
OMIT 4 2 14
OMIT 9 1 2
OMIT 1 5 8
OMIT 10 0 12

acta
MERG 2

REM <olex2.extras>
REM <HklSrc "%.\\1.hkl">
REM </olex2.extras>

ABIN
ACTA
WGHT    0.200000
FVAR       0.05043   0.36407
O5    5    0.755821    0.343516    0.001428    10.50000    0.23364    0.09104 =
         0.15032    0.01406    0.08683   -0.00363
AFIX   3
H5A   2    0.753452    0.272706    0.017848    10.50000   -1.50000
H5B   2    0.771380    0.337166   -0.031662    10.50000   -1.50000
AFIX   0

ZN1   3    0.727628    0.381467    0.196075    11.00000    0.03710    0.03110 =
         0.02543    0.00287   -0.00042   -0.00467
N4    4    0.693709    0.676137   -0.014586    11.00000    0.03573    0.03092 =
         0.02713    0.00221    0.00205    0.00209
C24   1    0.690069    0.729249   -0.068622    11.00000    0.03771    0.03281 =
         0.02653    0.00223    0.00488    0.00298
N3    4    0.687505    0.685892    0.090831    11.00000    0.03798    0.03262 =
         0.02377    0.00109    0.00108    0.00545
N5    4    0.703111    0.653347   -0.118889    11.00000    0.04466    0.03500 =
         0.02514    0.00016    0.00270    0.00328
C28   1    0.683228    0.745722    0.033209    11.00000    0.03210    0.03458 =
         0.02621    0.00376    0.00350    0.00392
O3    5    0.679536    0.246546    0.183213    11.00000    0.04767    0.04541 =
         0.04322   -0.00219   -0.00732   -0.01352
N1    4    0.517506   -0.143447    0.086103    11.00000    0.03462    0.05251 =
         0.09006   -0.02989    0.00955   -0.00970
C27   1    0.669160    0.868888    0.029559    11.00000    0.06276    0.03653 =
         0.03244   -0.00058    0.00823    0.01386
AFIX  43
H27   2    0.662085    0.914246    0.064290    11.00000   -1.20000
AFIX   0
N2    4    0.702576    0.539418    0.158301    11.00000    0.04189    0.03853 =
         0.02619    0.00051   -0.00159    0.00123
C2    1    0.375288   -0.115982    0.159898    11.00000    0.03503    0.04231 =
         0.04358    0.00594   -0.00286   -0.00252
C18   1    0.614836    0.049470    0.163591    11.00000    0.03746    0.04088 =
         0.04107   -0.00443   -0.00268   -0.00384
AFIX  43
H18   2    0.631708    0.053809    0.201155    11.00000   -1.20000
AFIX   0
N6    4    0.719600    0.598578   -0.212591    11.00000    0.04443    0.03865 =
         0.02799   -0.00162   -0.00134    0.00884
C17   1    0.625170    0.134280    0.118280    11.00000    0.03083    0.03254 =
         0.04517   -0.00842   -0.00098    0.00317
C20   1    0.664855    0.230653    0.128228    11.00000    0.03659    0.03525 =
         0.04192   -0.00545    0.00248   -0.00215
O4    5    0.681042    0.288614    0.084890    11.00000    0.08863    0.06480 =
         0.05065   -0.00241    0.01040   -0.03531
C14   1    0.553777   -0.047369    0.096998    11.00000    0.02881    0.04764 =
         0.06192   -0.02280    0.00031   -0.00475
C22   1    0.680980    0.737235    0.147577    11.00000    0.05692    0.03664 =
         0.02988   -0.00343    0.00087    0.00736
AFIX  43
H22   2    0.671935    0.818188    0.156008    11.00000   -1.20000
AFIX   0
C31   1    0.701173    0.685641   -0.178747    11.00000    0.04135    0.03947 =
         0.02481    0.00229    0.00171    0.00866
AFIX  43
H31   2    0.688424    0.759868   -0.193671    11.00000   -1.20000
AFIX   0
C25   1    0.676846    0.851493   -0.078339    11.00000    0.06960    0.03884 =
         0.03086    0.00985    0.01007    0.01667
AFIX  43
H25   2    0.675266    0.885213   -0.117372    11.00000   -1.20000
AFIX   0
C6    1    0.457163   -0.033078    0.144855    11.00000    0.03618    0.04255 =
         0.06035   -0.00992   -0.00040   -0.00882
AFIX  43
H6    2    0.479850    0.030732    0.151272    11.00000   -1.20000
AFIX   0
C5    1    0.471113   -0.136007    0.111728    11.00000    0.03043    0.04486 =
         0.06031   -0.01201   -0.00166   -0.00508
C29   1    0.723601    0.536917   -0.115467    11.00000    0.05819    0.03523 =
         0.02914    0.00367   -0.00090    0.00815
AFIX  43
H29   2    0.729066    0.489903   -0.080412    11.00000   -1.20000
AFIX   0
C16   1    0.598814    0.128112    0.062611    11.00000    0.04657    0.04083 =
         0.04394   -0.00286   -0.00429    0.00014
AFIX  43
H16   2    0.605260    0.184791    0.031952    11.00000   -1.20000
AFIX   0
C30   1    0.734150    0.504767   -0.173164    11.00000    0.05797    0.03589 =
         0.03403   -0.00432   -0.00487    0.01392
AFIX  43
H30   2    0.748909    0.431001   -0.184646    11.00000   -1.20000
AFIX   0
C7    1    0.410391   -0.023701    0.168375    11.00000    0.04090    0.04194 =
         0.04665   -0.00392    0.00420   -0.00600
AFIX  43
H7    2    0.402172    0.046307    0.190493    11.00000   -1.20000
AFIX   0
C23   1    0.690309    0.646852    0.188279    11.00000    0.05501    0.04477 =
         0.02428   -0.00234   -0.00021    0.00602
AFIX  43
H23   2    0.688739    0.655376    0.230411    11.00000   -1.20000
AFIX   0
C19   1    0.579539   -0.041554    0.153157    11.00000    0.04117    0.04226 =
         0.05364   -0.00056    0.00989   -0.00663
AFIX  43
H19   2    0.572965   -0.098826    0.183502    11.00000   -1.20000
AFIX   0
C26   1    0.666151    0.920843   -0.027705    11.00000    0.07429    0.03556 =
         0.04181    0.00633    0.01062    0.01863
AFIX  43
H26   2    0.656861    1.003095   -0.032234    11.00000   -1.20000
AFIX   0
C3    1    0.389185   -0.219225    0.126795    11.00000    0.03659    0.04682 =
         0.08445   -0.01247    0.00203   -0.01257
AFIX  43
H3    2    0.366094   -0.282003    0.120008    11.00000   -1.20000
AFIX   0
C4    1    0.435555   -0.231376    0.103975    11.00000    0.04220    0.05202 =
         0.08767   -0.02791    0.00609   -0.01058
AFIX  43
H4    2    0.443897   -0.302906    0.083142    11.00000   -1.20000
AFIX   0
C15   1    0.563271    0.038157    0.053047    11.00000    0.03945    0.05666 =
         0.05188   -0.01254   -0.01163    0.00146
AFIX  43
H15   2    0.545452    0.035599    0.016084    11.00000   -1.20000
AFIX   0
C21   1    0.700438    0.566485    0.099694    11.00000    0.04655    0.03269 =
         0.02691    0.00096    0.00118    0.00383
AFIX  43
H21   2    0.706951    0.510908    0.068572    11.00000   -1.20000
AFIX   0
O2    5    0.312461    0.000257    0.208461    11.00000    0.04312    0.05162 =
         0.04632   -0.00101    0.00680   -0.00214
C1    1    0.324030   -0.097987    0.183279    11.00000    0.03593    0.04329 =
         0.03453    0.00979   -0.00224   -0.00263
O1    5    0.292468   -0.185656    0.173397    11.00000    0.03832    0.04498 =
         0.06313    0.00025    0.00490   -0.00676
PART 1
AFIX  66
C9    1    0.535559   -0.241829    0.047062    21.00000    0.04406    0.05125 =
         0.05297   -0.01587    0.00522   -0.01254
C10   1    0.542595   -0.237162   -0.015496    21.00000    0.10781    0.09006 =
         0.10100   -0.03463    0.02445   -0.00086
AFIX  43
H10   2    0.534000   -0.166406   -0.037383    21.00000   -1.20000
AFIX  65
C8    1    0.562477   -0.338246   -0.045343    21.00000    0.12587    0.14566 =
         0.12152   -0.02969    0.01796    0.01239
AFIX  43
H8    2    0.567184   -0.335123   -0.087199    21.00000   -1.20000
AFIX  65
C12   1    0.575324   -0.443999   -0.012631    21.00000    0.07846    0.08735 =
         0.12291   -0.02830    0.01966    0.00045
AFIX  43
H12   2    0.588626   -0.511632   -0.032600    21.00000   -1.20000
AFIX  65
C11   1    0.568288   -0.448669    0.049928    21.00000    0.10943    0.09641 =
         0.13865   -0.01780    0.02384    0.00629
AFIX  43
H11   2    0.576883   -0.519425    0.071814    21.00000   -1.20000
AFIX  65
C13   1    0.548406   -0.347585    0.079775    21.00000    0.09299    0.07001 =
         0.09788   -0.01719   -0.00255    0.00939
AFIX  43
H13   2    0.543699   -0.350709    0.121631    21.00000   -1.20000
AFIX  66
PART 0
PART 2
C8A   1    0.542960   -0.281346    0.006464   -21.00000    0.09573    0.07190 =
         0.10193   -0.03928    0.00996   -0.00446
AFIX  43
H8A   2    0.532757   -0.220577   -0.021120   -21.00000   -1.20000
AFIX  65
C13A  1    0.563783   -0.390275   -0.014539   -21.00000    0.09981    0.11253 =
         0.12385   -0.06777    0.02151    0.00243
AFIX  43
H13A  2    0.567513   -0.402387   -0.056177   -21.00000   -1.20000
AFIX  65
C12A  1    0.579032   -0.481101    0.026690   -21.00000    0.07611    0.08024 =
         0.13144   -0.03418    0.01777   -0.00274
AFIX  43
H12A  2    0.592964   -0.553982    0.012637   -21.00000   -1.20000
AFIX  65
C11A  1    0.573457   -0.462999    0.088923   -21.00000    0.07493    0.07536 =
         0.17866   -0.00430   -0.01125    0.00812
AFIX  43
H11A  2    0.583660   -0.523768    0.116507   -21.00000   -1.20000
AFIX  65
C10A  1    0.552634   -0.354070    0.109927   -21.00000    0.08074    0.06263 =
         0.11733   -0.01646   -0.01475    0.00197
AFIX  43
H10A  2    0.548905   -0.341959    0.151565   -21.00000   -1.20000
AFIX  65
C9A   1    0.537385   -0.263243    0.068698   -21.00000    0.03663    0.04734 =
         0.08202   -0.02092    0.00766   -0.00727
AFIX   0
HKLF 4




REM  SIR97 run in space group C 2/c
REM wR2 = 0.1454, GooF = S = 0.626, Restrained GooF = 0.639 for all data
REM R1 = 0.0367 for 4823 Fo > 4sig(Fo) and 0.0451 for all 5823 data
REM 419 parameters refined using 125 restraints

END

WGHT      0.0715      0.0000

REM Highest difference peak  0.378,  deepest hole -0.306,  1-sigma level  0.056
Q1    1   0.7063  0.3991  0.2212  11.00000  0.05    0.38
Q2    1   0.7866  0.2060  0.0316  11.00000  0.05    0.36
Q3    1   0.5716 -0.4415  0.0123  11.00000  0.05    0.34
Q4    1   0.7615  0.3720 -0.0026  11.00000  0.05    0.29
Q5    1   0.5398 -0.2968  0.0971  11.00000  0.05    0.29
Q6    1   0.5778 -0.4609  0.0653  11.00000  0.05    0.27
Q7    1   0.2614 -0.1130  0.1566  11.00000  0.05    0.26
Q8    1   0.5000 -0.5019  0.2500  10.50000  0.05    0.26
Q9    1   0.6696  0.7993  0.0332  11.00000  0.05    0.25
Q10   1   0.5707 -0.3994 -0.0337  11.00000  0.05    0.25
Q11   1   0.3625 -0.1104  0.1745  11.00000  0.05    0.24
Q12   1   0.4520 -0.1732  0.1029  11.00000  0.05    0.24
Q13   1   0.3803 -0.2374  0.1366  11.00000  0.05    0.23
Q14   1   0.5216 -0.1634  0.0692  11.00000  0.05    0.23
Q15   1   0.4296 -0.0107  0.1417  11.00000  0.05    0.23
Q16   1   0.7172  0.4611  0.1731  11.00000  0.05    0.23
Q17   1   0.7212  0.4503  0.2269  11.00000  0.05    0.22
Q18   1   0.6764  0.2375  0.1993  11.00000  0.05    0.22
Q19   1   0.5386 -0.3119  0.0409  11.00000  0.05    0.22
Q20   1   0.5631 -0.3354 -0.1278  11.00000  0.05    0.22
Q21   1   0.6843  0.8042 -0.0691  11.00000  0.05    0.22
Q22   1   0.3823 -0.1835  0.1554  11.00000  0.05    0.21
Q23   1   0.6812  0.6379 -0.0145  11.00000  0.05    0.21
Q24   1   0.5000 -0.4155  0.2500  10.50000  0.05    0.20
Q25   1   0.5382 -0.2897 -0.1694  11.00000  0.05    0.20
;
_shelx_res_checksum              57898
_shelx_fab_file
;
    2    0    0    140.04      0.00
    4    0    0     39.40      0.00
    6    0    0    -35.79      0.00
    8    0    0    -46.32      0.00
   10    0    0    -15.51      0.00
   12    0    0     10.42      0.00
   14    0    0     10.47      0.00
   18    0    0     -7.17      0.00
   20    0    0     -3.39      0.00
   22    0    0      0.77      0.00
   24    0    0      1.12      0.00
   26    0    0     -0.37      0.00
   28    0    0     -0.73      0.00
   30    0    0      0.53      0.00
   32    0    0      1.33      0.00
    1    1    0    103.13      0.00
    3    1    0     49.29      0.00
    5    1    0    -12.65      0.00
    7    1    0    -38.81      0.00
    9    1    0    -24.79      0.00
   11    1    0      1.19      0.00
   13    1    0     11.92      0.00
   15    1    0      5.24      0.00
   17    1    0     -3.24      0.00
   19    1    0     -3.83      0.00
   21    1    0     -0.32      0.00
   23    1    0      1.35      0.00
   25    1    0      0.44      0.00
   27    1    0     -0.82      0.00
   29    1    0     -0.79      0.00
   31    1    0     -0.01      0.00
    0    2    0      1.47      0.00
    2    2    0     -3.56      0.00
    4    2    0    -13.99      0.00
    6    2    0    -20.51      0.00
    8    2    0    -17.33      0.00
   10    2    0     -6.69      0.00
   12    2    0      2.83      0.00
   14    2    0      4.78      0.00
   16    2    0      1.46      0.00
   18    2    0     -0.80      0.00
   20    2    0     -0.16      0.00
   22    2    0      1.01      0.00
   24    2    0      1.02      0.00
   26    2    0      0.28      0.00
   28    2    0     -0.05      0.00
   30    2    0      0.35      0.00
   32    2    0      0.51      0.00
    1    3    0    -19.96      0.00
    3    3    0    -15.87      0.00
    5    3    0    -10.70      0.00
    7    3    0     -6.95      0.00
   11    3    0     -2.55      0.00
   15    3    0     -0.64      0.00
   17    3    0     -0.46      0.00
   19    3    0      0.14      0.00
   21    3    0      1.06      0.00
   23    3    0      1.40      0.00
   25    3    0      0.83      0.00
   27    3    0      0.42      0.00
   29    3    0      1.12      0.00
   31    3    0      2.06      0.00
    0    4    0      4.82      0.00
    2    4    0      2.79      0.00
    4    4    0     -1.43      0.00
    6    4    0     -3.90      0.00
    8    4    0     -2.80      0.00
   10    4    0     -0.48      0.00
   12    4    0      0.18      0.00
   14    4    0     -0.63      0.00
   16    4    0     -1.35      0.00
   18    4    0     -1.23      0.00
   20    4    0     -0.23      0.00
   22    4    0      0.82      0.00
   24    4    0      0.67      0.00
   26    4    0     -0.25      0.00
   28    4    0     -0.42      0.00
   30    4    0      0.24      0.00
    7    5    0     -5.21      0.00
    9    5    0     -2.57      0.00
   11    5    0      0.65      0.00
   13    5    0      0.98      0.00
   15    5    0     -0.41      0.00
   17    5    0     -1.50      0.00
   19    5    0     -1.51      0.00
   21    5    0     -0.72      0.00
   23    5    0     -0.15      0.00
   25    5    0     -0.12      0.00
   27    5    0      0.00      0.00
   29    5    0      0.03      0.00
    0    6    0      4.62      0.00
    2    6    0      3.27      0.00
    4    6    0      0.28      0.00
    6    6    0     -1.59      0.00
    8    6    0     -0.76      0.00
   10    6    0      0.75      0.00
   12    6    0      0.55      0.00
   14    6    0     -0.60      0.00
   16    6    0     -1.08      0.00
   18    6    0     -0.89      0.00
   20    6    0     -0.65      0.00
   22    6    0     -0.55      0.00
   24    6    0     -0.25      0.00
   26    6    0      0.64      0.00
   28    6    0      1.43      0.00
    1    7    0     -5.09      0.00
    3    7    0     -2.74      0.00
    5    7    0      0.37      0.00
    7    7    0      2.54      0.00
    9    7    0      2.69      0.00
   11    7    0      1.09      0.00
   13    7    0     -0.48      0.00
   15    7    0     -0.56      0.00
   17    7    0      0.18      0.00
   19    7    0      0.29      0.00
   21    7    0     -0.49      0.00
   23    7    0     -1.27      0.00
   25    7    0     -1.12      0.00
   27    7    0     -0.15      0.00
    0    8    0     -1.25      0.00
    2    8    0     -1.01      0.00
    4    8    0     -0.34      0.00
    6    8    0      0.33      0.00
    8    8    0      0.41      0.00
   10    8    0     -0.13      0.00
   12    8    0     -0.72      0.00
   14    8    0     -0.88      0.00
   16    8    0     -0.50      0.00
   18    8    0      0.07      0.00
   20    8    0      0.09      0.00
   22    8    0     -0.71      0.00
   24    8    0     -1.59      0.00
    1    9    0      4.85      0.00
    3    9    0      1.85      0.00
    5    9    0     -1.33      0.00
    7    9    0     -2.56      0.00
    9    9    0     -1.77      0.00
   11    9    0     -0.17      0.00
   13    9    0      0.59      0.00
   15    9    0      0.13      0.00
   17    9    0     -0.17      0.00
   19    9    0      0.36      0.00
   21    9    0      0.71      0.00
   23    9    0      0.34      0.00
    0   10    0      2.78      0.00
    2   10    0      1.67      0.00
    4   10    0     -0.32      0.00
    6   10    0     -1.30      0.00
    8   10    0     -0.88      0.00
   10   10    0      0.62      0.00
   12   10    0      2.23      0.00
   14   10    0      2.46      0.00
   16   10    0      1.32      0.00
   18   10    0      0.27      0.00
   20   10    0     -0.04      0.00
    1   11    0     -1.14      0.00
    3   11    0     -0.43      0.00
    5   11    0      0.49      0.00
    7   11    0      0.62      0.00
    9   11    0      0.09      0.00
   11   11    0      0.12      0.00
   13   11    0      0.80      0.00
   15   11    0      0.95      0.00
   17   11    0      0.25      0.00
    0   12    0     -1.66      0.00
    2   12    0     -1.10      0.00
    4   12    0      0.04      0.00
    6   12    0      0.69      0.00
    8   12    0      0.32      0.00
   10   12    0     -0.46      0.00
   12   12    0     -0.86      0.00
    1   13    0      1.14      0.00
    3   13    0      1.02      0.00
  -31    1    1      0.43      0.00
  -29    1    1     -0.11      0.00
  -27    1    1     -0.78      0.00
  -25    1    1     -0.84      0.00
  -23    1    1     -0.98      0.00
  -21    1    1     -2.04      0.00
  -19    1    1     -2.64      0.00
  -17    1    1     -0.48      0.00
  -15    1    1      4.09      0.00
  -13    1    1      6.49      0.00
  -11    1    1      1.42      0.00
   -9    1    1     -8.27      0.00
   -7    1    1     -7.78      0.00
   -5    1    1     15.85      0.00
   -3    1    1     54.26      0.00
    1    1    1     71.10      0.00
    3    1    1     35.71      0.00
    5    1    1      2.16      0.00
    7    1    1     -8.48      0.00
    9    1    1     -0.73      0.00
   11    1    1      7.45      0.00
   13    1    1      6.80      0.00
   15    1    1      1.35      0.00
   17    1    1     -2.17      0.00
   19    1    1     -1.91      0.00
   21    1    1     -0.31      0.00
   23    1    1      0.14      0.00
   25    1    1     -0.33      0.00
   27    1    1     -0.17      0.00
   29    1    1      0.66      0.00
   31    1    1      1.07      0.00
  -32    2    1     -0.67      0.00
  -30    2    1     -0.67      0.00
  -28    2    1     -0.82      0.00
  -26    2    1     -0.62      0.00
  -24    2    1     -0.29      0.00
  -22    2    1     -1.30      0.00
  -20    2    1     -3.22      0.00
  -18    2    1     -2.94      0.00
  -16    2    1      1.29      0.00
  -14    2    1      6.71      0.00
  -12    2    1      7.13      0.00
  -10    2    1     -0.40      0.00
   -6    2    1      0.22      0.00
   -4    2    1     26.58      0.00
   -2    2    1     54.64      0.00
    0    2    1     61.94      0.00
    2    2    1     41.86      0.00
    4    2    1     10.40      0.00
    6    2    1     -8.75      0.00
    8    2    1     -7.05      0.00
   12    2    1      8.65      0.00
   14    2    1      5.28      0.00
   16    2    1     -0.26      0.00
   18    2    1     -2.59      0.00
   20    2    1     -1.45      0.00
   22    2    1     -0.01      0.00
   24    2    1     -0.14      0.00
   26    2    1     -0.65      0.00
   28    2    1     -0.51      0.00
   30    2    1     -0.34      0.00
   32    2    1     -0.41      0.00
  -31    3    1      0.01      0.00
  -29    3    1     -0.31      0.00
  -27    3    1     -0.37      0.00
  -25    3    1      0.22      0.00
  -23    3    1      0.55      0.00
  -21    3    1     -0.29      0.00
  -19    3    1     -1.23      0.00
  -17    3    1     -0.60      0.00
  -15    3    1      1.69      0.00
  -13    3    1      3.86      0.00
  -11    3    1      3.16      0.00
   -9    3    1     -0.96      0.00
   -7    3    1     -4.35      0.00
   -3    3    1      2.91      0.00
   -1    3    1      7.84      0.00
    3    3    1      3.10      0.00
    5    3    1     -3.86      0.00
    7    3    1     -6.53      0.00
    9    3    1     -3.45      0.00
   11    3    1      0.96      0.00
   13    3    1      2.65      0.00
   15    3    1      1.39      0.00
   17    3    1     -0.62      0.00
   19    3    1     -1.17      0.00
   21    3    1     -0.38      0.00
   23    3    1      0.06      0.00
   25    3    1     -0.15      0.00
   27    3    1     -0.06      0.00
   29    3    1      0.33      0.00
   31    3    1      0.50      0.00
  -30    4    1     -0.07      0.00
  -28    4    1     -1.07      0.00
  -26    4    1     -0.77      0.00
  -24    4    1      0.36      0.00
  -22    4    1      0.96      0.00
  -20    4    1      0.66      0.00
  -18    4    1      0.13      0.00
  -16    4    1     -0.02      0.00
  -14    4    1      0.69      0.00
  -12    4    1      2.12      0.00
  -10    4    1      2.66      0.00
   -8    4    1      0.76      0.00
   -6    4    1     -3.23      0.00
   -4    4    1     -7.58      0.00
   -2    4    1    -10.09      0.00
    0    4    1     -9.07      0.00
    2    4    1     -5.54      0.00
    4    4    1     -2.64      0.00
    6    4    1     -1.85      0.00
    8    4    1     -2.08      0.00
   10    4    1     -1.92      0.00
   12    4    1     -1.01      0.00
   14    4    1      0.01      0.00
   16    4    1      0.22      0.00
   18    4    1     -0.03      0.00
   20    4    1      0.23      0.00
   22    4    1      0.72      0.00
   24    4    1      0.53      0.00
   26    4    1     -0.02      0.00
   28    4    1      0.13      0.00
   30    4    1      1.09      0.00
  -29    5    1     -1.00      0.00
  -27    5    1     -1.36      0.00
  -25    5    1     -0.82      0.00
  -23    5    1     -0.38      0.00
  -21    5    1     -0.55      0.00
  -19    5    1     -0.79      0.00
  -17    5    1     -0.43      0.00
  -15    5    1      0.31      0.00
  -13    5    1      0.67      0.00
  -11    5    1      0.54      0.00
   -9    5    1      0.58      0.00
   -7    5    1      1.03      0.00
   -5    5    1      1.46      0.00
   -3    5    1      1.50      0.00
   -1    5    1      1.24      0.00
    1    5    1      0.83      0.00
    3    5    1      0.35      0.00
    5    5    1     -0.27      0.00
    7    5    1     -1.05      0.00
    9    5    1     -1.47      0.00
   11    5    1     -0.78      0.00
   13    5    1      0.48      0.00
   15    5    1      0.83      0.00
   17    5    1      0.13      0.00
   19    5    1     -0.42      0.00
   21    5    1     -0.20      0.00
   23    5    1      0.07      0.00
   25    5    1     -0.36      0.00
   27    5    1     -1.06      0.00
   29    5    1     -0.83      0.00
  -28    6    1      0.73      0.00
  -26    6    1      0.52      0.00
  -24    6    1     -0.16      0.00
  -22    6    1     -0.97      0.00
  -20    6    1     -1.47      0.00
  -18    6    1     -1.19      0.00
  -16    6    1      0.05      0.00
  -14    6    1      0.75      0.00
  -12    6    1     -0.59      0.00
  -10    6    1     -2.23      0.00
   -8    6    1     -1.32      0.00
   -6    6    1      2.00      0.00
   -4    6    1      5.41      0.00
   -2    6    1      7.10      0.00
    0    6    1      6.42      0.00
    2    6    1      4.17      0.00
    4    6    1      1.90      0.00
    8    6    1     -1.18      0.00
   10    6    1     -0.89      0.00
   12    6    1      0.64      0.00
   14    6    1      1.21      0.00
   16    6    1      0.14      0.00
   18    6    1     -1.07      0.00
   20    6    1     -1.37      0.00
   22    6    1     -0.82      0.00
   24    6    1      0.10      0.00
   26    6    1      0.42      0.00
   28    6    1     -0.01      0.00
  -27    7    1      2.73      0.00
  -25    7    1      1.77      0.00
  -23    7    1      0.10      0.00
  -21    7    1     -0.81      0.00
  -19    7    1     -1.02      0.00
  -17    7    1     -0.78      0.00
  -15    7    1     -0.14      0.00
  -13    7    1      0.00      0.00
  -11    7    1     -0.33      0.00
   -9    7    1      0.35      0.00
   -7    7    1      1.74      0.00
   -5    7    1      1.98      0.00
   -3    7    1      1.00      0.00
   -1    7    1      0.05      0.00
    1    7    1     -0.09      0.00
    3    7    1      1.06      0.00
    5    7    1      2.58      0.00
    7    7    1      2.34      0.00
    9    7    1      0.58      0.00
   11    7    1     -0.37      0.00
   13    7    1     -0.29      0.00
   15    7    1     -0.39      0.00
   17    7    1     -0.61      0.00
   19    7    1     -0.69      0.00
   21    7    1     -0.51      0.00
   23    7    1      0.62      0.00
   25    7    1      2.19      0.00
   27    7    1      2.41      0.00
  -24    8    1      0.30      0.00
  -22    8    1     -0.91      0.00
  -20    8    1     -0.97      0.00
  -18    8    1     -0.86      0.00
  -16    8    1     -1.12      0.00
  -14    8    1     -1.35      0.00
  -12    8    1     -0.89      0.00
  -10    8    1      1.03      0.00
   -8    8    1      3.25      0.00
   -6    8    1      2.73      0.00
   -4    8    1     -0.92      0.00
   -2    8    1     -4.53      0.00
    0    8    1     -5.42      0.00
    2    8    1     -3.09      0.00
    4    8    1      1.08      0.00
    6    8    1      3.62      0.00
    8    8    1      2.40      0.00
   10    8    1     -0.32      0.00
   12    8    1     -1.46      0.00
   14    8    1     -0.92      0.00
   16    8    1      0.06      0.00
   18    8    1      0.48      0.00
   20    8    1     -0.02      0.00
   22    8    1     -0.26      0.00
   24    8    1      0.83      0.00
  -23    9    1     -1.06      0.00
  -21    9    1     -0.91      0.00
  -19    9    1     -0.51      0.00
  -17    9    1     -0.56      0.00
  -15    9    1     -1.01      0.00
  -13    9    1     -1.47      0.00
  -11    9    1     -1.20      0.00
   -9    9    1      0.22      0.00
   -7    9    1      1.42      0.00
   -5    9    1      0.71      0.00
   -3    9    1     -1.23      0.00
   -1    9    1     -2.51      0.00
    1    9    1     -2.22      0.00
    3    9    1     -0.50      0.00
    5    9    1      1.33      0.00
    7    9    1      1.49      0.00
    9    9    1      0.08      0.00
   11    9    1     -1.07      0.00
   13    9    1     -1.16      0.00
   15    9    1     -0.66      0.00
   17    9    1     -0.12      0.00
   19    9    1     -0.18      0.00
   21    9    1     -0.83      0.00
   23    9    1     -0.93      0.00
  -20   10    1     -0.19      0.00
  -18   10    1      0.35      0.00
  -16   10    1      0.98      0.00
  -14   10    1      1.23      0.00
  -12   10    1      0.66      0.00
  -10   10    1     -0.34      0.00
   -8   10    1     -0.71      0.00
   -6   10    1     -0.11      0.00
   -4   10    1      0.84      0.00
   -2   10    1      1.39      0.00
    0   10    1      1.27      0.00
    2   10    1      0.65      0.00
    4   10    1     -0.06      0.00
    6   10    1     -0.47      0.00
    8   10    1     -0.34      0.00
   10   10    1      0.19      0.00
   12   10    1      0.60      0.00
   14   10    1      0.44      0.00
   16   10    1     -0.07      0.00
   18   10    1     -0.43      0.00
   20   10    1     -0.60      0.00
  -17   11    1      0.59      0.00
  -15   11    1      1.31      0.00
  -13   11    1      1.12      0.00
  -11   11    1      0.27      0.00
   -9   11    1     -0.37      0.00
   -7   11    1     -0.02      0.00
   -5   11    1      0.99      0.00
   -3   11    1      1.49      0.00
   -1   11    1      1.26      0.00
    1   11    1      1.03      0.00
    3   11    1      0.76      0.00
    5   11    1      0.07      0.00
    7   11    1     -0.46      0.00
    9   11    1     -0.13      0.00
   11   11    1      0.87      0.00
   13   11    1      1.74      0.00
   15   11    1      1.61      0.00
   17   11    1      0.43      0.00
  -12   12    1     -0.56      0.00
  -10   12    1     -0.65      0.00
   -8   12    1     -0.17      0.00
   -6   12    1      0.33      0.00
   -4   12    1     -0.13      0.00
   -2   12    1     -1.45      0.00
    0   12    1     -1.77      0.00
    2   12    1     -0.51      0.00
    4   12    1      0.45      0.00
    6   12    1      0.00      0.00
    8   12    1     -0.89      0.00
   10   12    1     -1.08      0.00
   12   12    1     -0.23      0.00
   -3   13    1     -2.15      0.00
   -1   13    1     -3.63      0.00
    1   13    1     -2.96      0.00
    3   13    1     -1.02      0.00
  -32    0    2      0.06      0.00
  -30    0    2      0.98      0.00
  -28    0    2      1.33      0.00
  -26    0    2      0.44      0.00
  -24    0    2     -0.06      0.00
  -22    0    2      1.93      0.00
  -20    0    2      5.92      0.00
  -18    0    2      6.20      0.00
  -16    0    2     -2.14      0.00
   -8    0    2     41.71      0.00
   -6    0    2     12.99      0.00
   -4    0    2    -63.06      0.00
   -2    0    2   -136.51      0.00
    2    0    2    -80.26      0.00
    4    0    2      4.00      0.00
    8    0    2     33.68      0.00
   10    0    2      1.34      0.00
   12    0    2    -14.43      0.00
   14    0    2     -8.10      0.00
   16    0    2      2.12      0.00
   18    0    2      3.63      0.00
   20    0    2      0.15      0.00
   22    0    2     -1.50      0.00
   24    0    2     -0.64      0.00
   26    0    2      0.27      0.00
   28    0    2     -0.28      0.00
   30    0    2     -1.55      0.00
   32    0    2     -1.58      0.00
  -31    1    2      1.34      0.00
  -29    1    2      1.78      0.00
  -27    1    2      0.98      0.00
  -25    1    2     -0.30      0.00
  -23    1    2     -0.10      0.00
  -21    1    2      2.59      0.00
  -19    1    2      5.14      0.00
  -17    1    2      1.90      0.00
  -15    1    2     -6.87      0.00
  -13    1    2     -9.57      0.00
  -11    1    2      3.51      0.00
   -9    1    2     22.83      0.00
   -7    1    2     23.49      0.00
   -5    1    2    -10.09      0.00
   -1    1    2    -90.32      0.00
    1    1    2    -68.61      0.00
    3    1    2    -13.47      0.00
    5    1    2     31.47      0.00
    9    1    2     17.27      0.00
   11    1    2     -5.15      0.00
   13    1    2    -10.46      0.00
   15    1    2     -3.67      0.00
   17    1    2      1.42      0.00
   19    1    2      0.69      0.00
   21    1    2     -1.21      0.00
   23    1    2     -1.23      0.00
   25    1    2     -0.16      0.00
   27    1    2      0.45      0.00
   29    1    2      0.05      0.00
   31    1    2     -0.34      0.00
  -32    2    2      0.52      0.00
  -30    2    2      1.06      0.00
  -28    2    2      0.98      0.00
  -26    2    2     -0.10      0.00
  -24    2    2     -1.09      0.00
  -22    2    2     -0.75      0.00
  -20    2    2      0.79      0.00
  -18    2    2      1.30      0.00
  -16    2    2     -1.49      0.00
  -14    2    2     -5.41      0.00
  -12    2    2     -5.05      0.00
  -10    2    2      0.81      0.00
   -8    2    2      7.26      0.00
   -6    2    2      8.91      0.00
   -2    2    2      0.20      0.00
    0    2    2      0.65      0.00
    2    2    2      8.16      0.00
    4    2    2     17.93      0.00
    6    2    2     22.76      0.00
    8    2    2     18.44      0.00
   10    2    2      7.44      0.00
   12    2    2     -2.16      0.00
   14    2    2     -4.76      0.00
   16    2    2     -2.53      0.00
   18    2    2     -0.51      0.00
   20    2    2     -0.19      0.00
   22    2    2     -0.34      0.00
   24    2    2     -0.15      0.00
   26    2    2      0.13      0.00
   28    2    2     -0.06      0.00
   30    2    2     -0.50      0.00
   32    2    2     -0.39      0.00
  -31    3    2     -0.72      0.00
  -29    3    2      0.34      0.00
  -27    3    2      0.49      0.00
  -25    3    2     -0.44      0.00
  -23    3    2     -1.12      0.00
  -21    3    2     -0.76      0.00
  -19    3    2      0.29      0.00
  -17    3    2      1.04      0.00
  -15    3    2      0.56      0.00
  -13    3    2     -0.93      0.00
   -9    3    2     -1.30      0.00
   -7    3    2      1.69      0.00
   -5    3    2      7.17      0.00
   -3    3    2     13.68      0.00
   -1    3    2     17.91      0.00
    1    3    2     17.39      0.00
    3    3    2     13.15      0.00
    5    3    2      8.54      0.00
    7    3    2      5.62      0.00
    9    3    2      3.70      0.00
   11    3    2      1.57      0.00
   13    3    2     -0.34      0.00
   15    3    2     -0.86      0.00
   17    3    2     -0.22      0.00
   19    3    2      0.23      0.00
   21    3    2      0.03      0.00
   23    3    2     -0.07      0.00
   25    3    2      0.15      0.00
   27    3    2     -0.17      0.00
   29    3    2     -1.34      0.00
   31    3    2     -2.16      0.00
  -30    4    2      0.09      0.00
  -28    4    2      0.77      0.00
  -26    4    2      0.39      0.00
  -24    4    2     -0.32      0.00
  -22    4    2     -0.01      0.00
  -20    4    2      1.09      0.00
  -18    4    2      1.98      0.00
  -16    4    2      2.20      0.00
  -14    4    2      1.62      0.00
  -12    4    2      0.89      0.00
  -10    4    2      0.93      0.00
   -8    4    2      0.65      0.00
   -6    4    2     -1.88      0.00
   -4    4    2     -5.43      0.00
   -2    4    2     -6.15      0.00
    0    4    2     -2.26      0.00
    2    4    2      3.76      0.00
    4    4    2      7.11      0.00
    6    4    2      5.04      0.00
    8    4    2      0.28      0.00
   10    4    2     -2.21      0.00
   12    4    2     -1.28      0.00
   14    4    2      0.50      0.00
   16    4    2      1.25      0.00
   18    4    2      0.82      0.00
   20    4    2     -0.20      0.00
   22    4    2     -0.58      0.00
   24    4    2      0.21      0.00
   26    4    2      0.97      0.00
   28    4    2      0.68      0.00
   30    4    2     -0.10      0.00
  -29    5    2     -0.31      0.00
  -27    5    2     -0.05      0.00
  -25    5    2     -0.03      0.00
  -23    5    2      0.13      0.00
  -21    5    2      0.75      0.00
  -19    5    2      1.16      0.00
  -17    5    2      1.03      0.00
  -15    5    2      0.75      0.00
  -13    5    2      1.09      0.00
  -11    5    2      2.99      0.00
   -9    5    2      5.06      0.00
   -7    5    2      3.05      0.00
   -5    5    2     -4.39      0.00
    1    5    2     -6.64      0.00
    3    5    2      2.84      0.00
    5    5    2      7.52      0.00
    7    5    2      4.44      0.00
    9    5    2     -1.17      0.00
   11    5    2     -3.03      0.00
   13    5    2     -1.14      0.00
   15    5    2      0.93      0.00
   17    5    2      1.38      0.00
   19    5    2      0.68      0.00
   21    5    2      0.20      0.00
   23    5    2      0.64      0.00
   25    5    2      1.05      0.00
   27    5    2      0.75      0.00
   29    5    2      0.68      0.00
  -28    6    2     -1.14      0.00
  -26    6    2     -0.36      0.00
  -24    6    2      0.21      0.00
  -22    6    2      0.29      0.00
  -20    6    2      0.03      0.00
  -18    6    2     -0.14      0.00
  -16    6    2     -0.06      0.00
  -14    6    2     -0.18      0.00
  -12    6    2     -0.25      0.00
  -10    6    2      0.88      0.00
   -8    6    2      2.37      0.00
   -6    6    2      1.77      0.00
   -4    6    2     -0.88      0.00
   -2    6    2     -2.96      0.00
    0    6    2     -2.65      0.00
    4    6    2      1.96      0.00
    6    6    2      1.31      0.00
    8    6    2     -1.46      0.00
   10    6    2     -2.71      0.00
   12    6    2     -1.25      0.00
   14    6    2      0.67      0.00
   16    6    2      1.28      0.00
   18    6    2      0.91      0.00
   20    6    2      0.61      0.00
   22    6    2      0.86      0.00
   24    6    2      0.82      0.00
   26    6    2     -0.27      0.00
   28    6    2     -1.20      0.00
  -27    7    2      0.03      0.00
  -25    7    2      0.70      0.00
  -23    7    2      0.71      0.00
  -21    7    2      0.00      0.00
  -19    7    2     -0.69      0.00
  -17    7    2     -0.55      0.00
  -15    7    2      0.01      0.00
  -13    7    2     -0.33      0.00
  -11    7    2     -1.62      0.00
   -9    7    2     -2.34      0.00
   -7    7    2     -1.44      0.00
   -5    7    2      0.74      0.00
   -3    7    2      3.04      0.00
   -1    7    2      3.97      0.00
    1    7    2      2.82      0.00
    3    7    2      0.44      0.00
    5    7    2     -1.75      0.00
    7    7    2     -2.74      0.00
    9    7    2     -2.03      0.00
   11    7    2     -0.29      0.00
   13    7    2      0.84      0.00
   15    7    2      0.60      0.00
   17    7    2     -0.18      0.00
   19    7    2     -0.41      0.00
   21    7    2      0.21      0.00
   23    7    2      0.91      0.00
   25    7    2      0.64      0.00
   27    7    2     -0.44      0.00
  -24    8    2      0.86      0.00
  -22    8    2     -0.28      0.00
  -20    8    2     -1.04      0.00
  -18    8    2     -0.93      0.00
  -16    8    2     -0.21      0.00
  -14    8    2      0.64      0.00
  -12    8    2      1.01      0.00
  -10    8    2      0.53      0.00
   -8    8    2     -0.29      0.00
   -6    8    2     -0.56      0.00
   -4    8    2     -0.11      0.00
   -2    8    2      0.46      0.00
    0    8    2      0.68      0.00
    2    8    2      0.47      0.00
    4    8    2     -0.01      0.00
    6    8    2     -0.38      0.00
    8    8    2     -0.35      0.00
   10    8    2      0.08      0.00
   12    8    2      0.79      0.00
   14    8    2      1.41      0.00
   16    8    2      1.32      0.00
   18    8    2      0.57      0.00
   20    8    2      0.10      0.00
   22    8    2      0.39      0.00
   24    8    2      0.82      0.00
  -23    9    2     -0.25      0.00
  -21    9    2     -1.19      0.00
  -19    9    2     -1.19      0.00
  -17    9    2     -0.97      0.00
  -15    9    2     -1.07      0.00
  -13    9    2     -0.66      0.00
  -11    9    2      0.60      0.00
   -9    9    2      1.74      0.00
   -7    9    2      1.80      0.00
   -5    9    2      0.28      0.00
   -3    9    2     -2.37      0.00
   -1    9    2     -4.02      0.00
    1    9    2     -2.86      0.00
    3    9    2     -0.02      0.00
    5    9    2      1.98      0.00
    7    9    2      1.90      0.00
    9    9    2      0.40      0.00
   11    9    2     -0.58      0.00
   13    9    2      0.44      0.00
   15    9    2      2.30      0.00
   17    9    2      2.67      0.00
   19    9    2      1.44      0.00
   21    9    2      0.16      0.00
   23    9    2     -0.44      0.00
  -20   10    2     -0.32      0.00
  -18   10    2     -0.49      0.00
  -16   10    2     -1.18      0.00
  -14   10    2     -1.87      0.00
  -12   10    2     -1.64      0.00
  -10   10    2     -0.71      0.00
   -8   10    2      0.29      0.00
   -6   10    2      0.77      0.00
   -4   10    2     -0.15      0.00
   -2   10    2     -1.95      0.00
    0   10    2     -2.38      0.00
    2   10    2     -0.63      0.00
    4   10    2      1.55      0.00
    6   10    2      2.50      0.00
    8   10    2      1.65      0.00
   10   10    2     -0.44      0.00
   12   10    2     -1.84      0.00
   14   10    2     -1.17      0.00
   16   10    2      0.41      0.00
   18   10    2      1.15      0.00
   20   10    2      0.83      0.00
  -17   11    2     -0.29      0.00
  -15   11    2     -0.47      0.00
  -13   11    2     -0.41      0.00
  -11   11    2     -0.43      0.00
   -9   11    2     -0.61      0.00
   -7   11    2     -0.24      0.00
   -5   11    2      0.69      0.00
   -3   11    2      1.11      0.00
   -1   11    2      0.76      0.00
    1   11    2      0.31      0.00
    3   11    2      0.16      0.00
    5   11    2      0.53      0.00
    7   11    2      1.30      0.00
    9   11    2      1.30      0.00
   11   11    2      0.00      0.00
   13   11    2     -1.27      0.00
   15   11    2     -1.28      0.00
   17   11    2     -0.35      0.00
  -12   12    2     -0.95      0.00
  -10   12    2     -1.28      0.00
   -8   12    2     -1.01      0.00
   -6   12    2     -0.16      0.00
   -4   12    2      0.70      0.00
   -2   12    2      1.12      0.00
    0   12    2      1.05      0.00
    2   12    2      0.57      0.00
    4   12    2      0.04      0.00
    6   12    2      0.06      0.00
    8   12    2      0.60      0.00
   10   12    2      1.05      0.00
   12   12    2      1.07      0.00
   -3   13    2     -1.70      0.00
   -1   13    2     -1.33      0.00
    1   13    2     -0.47      0.00
    3   13    2      0.18      0.00
  -31    1    3     -0.27      0.00
  -29    1    3     -0.04      0.00
  -27    1    3      0.36      0.00
  -25    1    3      0.85      0.00
  -23    1    3      2.01      0.00
  -21    1    3      3.16      0.00
  -19    1    3      2.15      0.00
  -17    1    3     -1.51      0.00
  -15    1    3     -4.80      0.00
  -13    1    3     -2.91      0.00
  -11    1    3      5.13      0.00
   -7    1    3      3.33      0.00
   -3    1    3    -45.33      0.00
   -1    1    3    -50.43      0.00
    1    1    3    -31.24      0.00
    5    1    3     10.01      0.00
    7    1    3      5.27      0.00
    9    1    3     -5.35      0.00
   11    1    3     -8.83      0.00
   13    1    3     -4.82      0.00
   15    1    3     -0.13      0.00
   17    1    3      1.21      0.00
   19    1    3      0.21      0.00
   21    1    3     -0.50      0.00
   23    1    3     -0.09      0.00
   25    1    3      0.15      0.00
   27    1    3     -0.57      0.00
   29    1    3     -1.39      0.00
   31    1    3     -1.50      0.00
  -32    2    3      0.74      0.00
  -30    2    3      0.56      0.00
  -28    2    3      0.21      0.00
  -26    2    3     -0.45      0.00
  -24    2    3     -0.23      0.00
  -22    2    3      1.59      0.00
  -20    2    3      2.91      0.00
  -18    2    3      1.23      0.00
  -16    2    3     -2.67      0.00
  -14    2    3     -4.78      0.00
  -12    2    3     -1.26      0.00
  -10    2    3      5.86      0.00
   -8    2    3      6.88      0.00
   -6    2    3     -5.69      0.00
    0    2    3    -33.09      0.00
    2    2    3    -13.07      0.00
    4    2    3      5.84      0.00
    8    2    3      2.76      0.00
   10    2    3     -5.14      0.00
   12    2    3     -6.11      0.00
   14    2    3     -2.46      0.00
   16    2    3      0.74      0.00
   18    2    3      1.07      0.00
   20    2    3     -0.19      0.00
   22    2    3     -0.64      0.00
   24    2    3     -0.15      0.00
   26    2    3     -0.01      0.00
   28    2    3     -0.11      0.00
   30    2    3      0.16      0.00
  -31    3    3      0.98      0.00
  -29    3    3      1.16      0.00
  -27    3    3      0.36      0.00
  -25    3    3     -0.95      0.00
  -23    3    3     -1.17      0.00
  -21    3    3     -0.18      0.00
  -19    3    3      0.45      0.00
  -17    3    3     -0.33      0.00
  -15    3    3     -2.50      0.00
  -13    3    3     -4.71      0.00
  -11    3    3     -4.32      0.00
   -7    3    3      2.53      0.00
   -5    3    3      3.06      0.00
   -3    3    3      0.69      0.00
   -1    3    3     -3.01      0.00
    1    3    3     -4.78      0.00
    3    3    3     -1.87      0.00
    5    3    3      3.37      0.00
    7    3    3      5.74      0.00
    9    3    3      3.66      0.00
   11    3    3     -0.19      0.00
   13    3    3     -2.49      0.00
   15    3    3     -1.87      0.00
   17    3    3      0.01      0.00
   19    3    3      0.66      0.00
   21    3    3      0.19      0.00
   23    3    3     -0.02      0.00
   25    3    3     -0.05      0.00
   27    3    3     -0.22      0.00
   29    3    3     -0.18      0.00
   31    3    3     -0.10      0.00
  -30    4    3      1.87      0.00
  -28    4    3      2.27      0.00
  -26    4    3      1.16      0.00
  -24    4    3     -0.25      0.00
  -22    4    3     -0.63      0.00
  -20    4    3     -0.05      0.00
  -18    4    3      0.75      0.00
  -16    4    3      0.48      0.00
  -14    4    3     -2.25      0.00
  -12    4    3     -6.26      0.00
  -10    4    3     -7.67      0.00
   -8    4    3     -4.15      0.00
   -6    4    3      2.51      0.00
   -2    4    3      8.80      0.00
    0    4    3      4.44      0.00
    2    4    3     -0.48      0.00
    4    4    3     -1.65      0.00
    6    4    3      0.60      0.00
    8    4    3      2.94      0.00
   10    4    3      2.82      0.00
   12    4    3      0.49      0.00
   14    4    3     -1.27      0.00
   16    4    3     -0.77      0.00
   18    4    3      0.41      0.00
   20    4    3      0.44      0.00
   22    4    3     -0.14      0.00
   24    4    3     -0.22      0.00
   26    4    3      0.01      0.00
   28    4    3     -0.19      0.00
   30    4    3     -0.99      0.00
  -29    5    3      1.87      0.00
  -27    5    3      1.78      0.00
  -25    5    3      0.90      0.00
  -23    5    3      0.31      0.00
  -21    5    3      0.49      0.00
  -19    5    3      1.04      0.00
  -17    5    3      1.21      0.00
  -15    5    3      0.66      0.00
  -13    5    3     -0.36      0.00
  -11    5    3     -1.38      0.00
   -9    5    3     -2.24      0.00
   -7    5    3     -2.83      0.00
   -5    5    3     -2.85      0.00
   -3    5    3     -2.26      0.00
   -1    5    3     -1.45      0.00
    1    5    3     -0.76      0.00
    3    5    3     -0.36      0.00
    5    5    3      0.00      0.00
    7    5    3      0.83      0.00
    9    5    3      1.68      0.00
   11    5    3      1.44      0.00
   13    5    3      0.42      0.00
   15    5    3      0.02      0.00
   17    5    3      0.39      0.00
   19    5    3      0.53      0.00
   21    5    3      0.18      0.00
   23    5    3      0.05      0.00
   25    5    3      0.72      0.00
   27    5    3      1.57      0.00
   29    5    3      1.29      0.00
  -28    6    3      0.11      0.00
  -26    6    3      0.42      0.00
  -24    6    3      0.52      0.00
  -22    6    3      0.51      0.00
  -20    6    3      0.64      0.00
  -18    6    3      0.48      0.00
  -16    6    3     -0.20      0.00
  -14    6    3     -0.04      0.00
  -12    6    3      1.69      0.00
  -10    6    3      2.83      0.00
   -8    6    3      1.11      0.00
   -6    6    3     -2.54      0.00
   -4    6    3     -5.22      0.00
   -2    6    3     -4.83      0.00
    0    6    3     -1.71      0.00
    2    6    3      1.34      0.00
    4    6    3      2.01      0.00
    6    6    3      1.14      0.00
    8    6    3      0.47      0.00
   10    6    3      0.05      0.00
   12    6    3     -0.29      0.00
   14    6    3     -0.15      0.00
   16    6    3      0.22      0.00
   18    6    3      0.41      0.00
   20    6    3      0.55      0.00
   22    6    3      0.50      0.00
   24    6    3      0.41      0.00
   26    6    3      0.98      0.00
   28    6    3      1.72      0.00
  -27    7    3     -1.33      0.00
  -25    7    3     -0.52      0.00
  -23    7    3      0.15      0.00
  -21    7    3      0.38      0.00
  -19    7    3      0.61      0.00
  -17    7    3      0.44      0.00
  -15    7    3     -0.27      0.00
  -13    7    3     -0.44      0.00
  -11    7    3      0.04      0.00
   -9    7    3      0.15      0.00
   -7    7    3     -0.12      0.00
   -5    7    3     -0.24      0.00
   -3    7    3     -0.08      0.00
   -1    7    3      0.69      0.00
    1    7    3      1.52      0.00
    3    7    3      0.85      0.00
    5    7    3     -0.86      0.00
    7    7    3     -1.46      0.00
    9    7    3     -0.81      0.00
   11    7    3     -0.31      0.00
   13    7    3     -0.17      0.00
   15    7    3     -0.31      0.00
   17    7    3     -0.69      0.00
   19    7    3     -0.60      0.00
   21    7    3     -0.17      0.00
   23    7    3     -0.46      0.00
   25    7    3     -0.92      0.00
   27    7    3     -0.45      0.00
  -24    8    3     -0.76      0.00
  -22    8    3     -0.27      0.00
  -20    8    3     -0.08      0.00
  -18    8    3      0.30      0.00
  -16    8    3      0.71      0.00
  -14    8    3      0.85      0.00
  -12    8    3      0.42      0.00
  -10    8    3     -0.71      0.00
   -8    8    3     -1.24      0.00
   -6    8    3      0.10      0.00
   -4    8    3      2.09      0.00
   -2    8    3      2.83      0.00
    0    8    3      2.07      0.00
    2    8    3      0.09      0.00
    4    8    3     -2.12      0.00
    6    8    3     -2.43      0.00
    8    8    3     -0.53      0.00
   10    8    3      1.08      0.00
   12    8    3      0.87      0.00
   14    8    3     -0.53      0.00
   16    8    3     -2.07      0.00
   18    8    3     -2.57      0.00
   20    8    3     -1.64      0.00
   22    8    3     -0.84      0.00
   24    8    3     -1.11      0.00
  -23    9    3     -0.30      0.00
  -21    9    3     -0.46      0.00
  -19    9    3     -0.44      0.00
  -17    9    3     -0.16      0.00
  -15    9    3      0.38      0.00
  -13    9    3      1.00      0.00
  -11    9    3      0.92      0.00
   -9    9    3     -0.13      0.00
   -7    9    3     -0.81      0.00
   -5    9    3     -0.07      0.00
   -3    9    3      1.25      0.00
   -1    9    3      1.89      0.00
    1    9    3      1.37      0.00
    3    9    3     -0.06      0.00
    5    9    3     -1.13      0.00
    7    9    3     -0.79      0.00
    9    9    3      0.22      0.00
   11    9    3      0.62      0.00
   13    9    3      0.29      0.00
   15    9    3     -0.52      0.00
   17    9    3     -1.34      0.00
   19    9    3     -1.23      0.00
   21    9    3     -0.31      0.00
   23    9    3      0.14      0.00
  -20   10    3      0.16      0.00
  -18   10    3     -0.06      0.00
  -16   10    3     -0.57      0.00
  -14   10    3     -0.83      0.00
  -12   10    3     -0.41      0.00
  -10   10    3      0.08      0.00
   -8   10    3     -0.29      0.00
   -6   10    3     -1.20      0.00
   -4   10    3     -1.47      0.00
   -2   10    3     -0.68      0.00
    0   10    3      0.46      0.00
    2   10    3      1.04      0.00
    4   10    3      0.76      0.00
    6   10    3     -0.05      0.00
    8   10    3     -0.83      0.00
   10   10    3     -1.07      0.00
   12   10    3     -0.61      0.00
   14   10    3      0.23      0.00
   16   10    3      0.78      0.00
   18   10    3      0.80      0.00
   20   10    3      0.68      0.00
  -17   11    3      0.06      0.00
  -15   11    3      0.07      0.00
  -13   11    3      0.39      0.00
  -11   11    3      0.93      0.00
   -9   11    3      1.05      0.00
   -7   11    3      0.16      0.00
   -5   11    3     -0.91      0.00
   -3   11    3     -1.04      0.00
   -1   11    3     -0.57      0.00
    1   11    3     -0.24      0.00
    3   11    3      0.16      0.00
    5   11    3      0.63      0.00
    7   11    3      0.61      0.00
    9   11    3     -0.01      0.00
   11   11    3     -0.87      0.00
   13   11    3     -1.35      0.00
   15   11    3     -0.79      0.00
   17   11    3      0.43      0.00
  -12   12    3      0.80      0.00
  -10   12    3      0.90      0.00
   -8   12    3      0.89      0.00
   -6   12    3      0.97      0.00
   -4   12    3      1.52      0.00
   -2   12    3      1.77      0.00
    0   12    3      0.76      0.00
    2   12    3     -0.32      0.00
    4   12    3      0.18      0.00
    6   12    3      1.55      0.00
    8   12    3      2.18      0.00
   10   12    3      1.49      0.00
   12   12    3     -0.17      0.00
   -1   13    3      2.46      0.00
    1   13    3      1.08      0.00
  -32    0    4     -1.25      0.00
  -30    0    4     -1.42      0.00
  -28    0    4     -0.67      0.00
  -26    0    4      0.13      0.00
  -24    0    4     -0.41      0.00
  -22    0    4     -2.60      0.00
  -20    0    4     -4.41      0.00
  -18    0    4     -1.81      0.00
  -16    0    4      4.93      0.00
  -14    0    4      6.34      0.00
  -12    0    4     -6.04      0.00
  -10    0    4    -24.55      0.00
   -8    0    4    -27.27      0.00
   -4    0    4     48.87      0.00
    0    0    4     64.13      0.00
    2    0    4     16.70      0.00
    4    0    4    -23.93      0.00
    8    0    4    -13.80      0.00
   10    0    4      5.42      0.00
   12    0    4     10.33      0.00
   14    0    4      5.08      0.00
   16    0    4      0.81      0.00
   18    0    4      0.36      0.00
   20    0    4      0.29      0.00
   22    0    4     -0.44      0.00
   24    0    4     -0.62      0.00
   26    0    4     -0.03      0.00
   28    0    4      0.88      0.00
   30    0    4      1.44      0.00
   32    0    4      1.03      0.00
  -31    1    4     -2.28      0.00
  -29    1    4     -1.98      0.00
  -27    1    4     -0.67      0.00
  -25    1    4      0.23      0.00
  -23    1    4     -0.48      0.00
  -21    1    4     -2.35      0.00
  -19    1    4     -2.60      0.00
  -17    1    4      1.56      0.00
  -15    1    4      6.75      0.00
  -13    1    4      4.73      0.00
  -11    1    4     -6.24      0.00
   -9    1    4    -15.65      0.00
   -7    1    4     -9.65      0.00
   -5    1    4     14.19      0.00
   -3    1    4     39.92      0.00
    1    1    4     22.76      0.00
    9    1    4     -6.37      0.00
   11    1    4      4.75      0.00
   13    1    4      5.93      0.00
   17    1    4      0.52      0.00
   19    1    4      0.18      0.00
   21    1    4     -0.04      0.00
   23    1    4     -0.12      0.00
   25    1    4      0.01      0.00
   27    1    4      0.07      0.00
   29    1    4      0.10      0.00
   31    1    4     -0.01      0.00
  -30    2    4     -2.66      0.00
  -28    2    4     -2.10      0.00
  -26    2    4     -0.55      0.00
  -24    2    4      0.62      0.00
  -22    2    4      0.60      0.00
  -20    2    4     -0.13      0.00
  -18    2    4      0.30      0.00
  -16    2    4      3.13      0.00
  -14    2    4      6.50      0.00
  -12    2    4      7.18      0.00
  -10    2    4      4.61      0.00
   -8    2    4      0.78      0.00
   -6    2    4     -2.12      0.00
   -4    2    4     -2.99      0.00
   -2    2    4     -2.66      0.00
    2    2    4     -5.87      0.00
    4    2    4     -9.88      0.00
    6    2    4    -12.60      0.00
    8    2    4    -10.80      0.00
   10    2    4     -4.51      0.00
   12    2    4      1.65      0.00
   14    2    4      3.66      0.00
   16    2    4      2.19      0.00
   18    2    4      0.11      0.00
   20    2    4     -0.90      0.00
   22    2    4     -0.81      0.00
   24    2    4     -0.36      0.00
   26    2    4     -0.15      0.00
   28    2    4     -0.07      0.00
   30    2    4      0.05      0.00
  -31    3    4     -1.34      0.00
  -29    3    4     -2.17      0.00
  -27    3    4     -1.60      0.00
  -25    3    4     -0.23      0.00
  -23    3    4      0.61      0.00
  -21    3    4      0.40      0.00
  -19    3    4     -0.52      0.00
  -17    3    4     -0.95      0.00
  -15    3    4      0.66      0.00
  -13    3    4      4.09      0.00
  -11    3    4      6.92      0.00
   -7    3    4      3.06      0.00
   -5    3    4     -3.09      0.00
   -3    3    4     -8.97      0.00
   -1    3    4    -11.65      0.00
    1    3    4    -10.21      0.00
    3    3    4     -6.49      0.00
    5    3    4     -3.27      0.00
    7    3    4     -1.83      0.00
    9    3    4     -1.16      0.00
   11    3    4      0.14      0.00
   13    3    4      1.57      0.00
   15    3    4      1.63      0.00
   17    3    4      0.38      0.00
   19    3    4     -0.71      0.00
   21    3    4     -1.07      0.00
   23    3    4     -1.18      0.00
   25    3    4     -1.07      0.00
   27    3    4     -0.29      0.00
   29    3    4      0.98      0.00
   31    3    4      1.75      0.00
  -30    4    4     -1.26      0.00
  -28    4    4     -1.56      0.00
  -26    4    4     -0.72      0.00
  -24    4    4      0.08      0.00
  -22    4    4     -0.04      0.00
  -20    4    4     -0.72      0.00
  -18    4    4     -1.54      0.00
  -16    4    4     -2.01      0.00
  -14    4    4     -1.56      0.00
  -12    4    4     -0.77      0.00
  -10    4    4     -0.15      0.00
   -8    4    4      1.42      0.00
   -6    4    4      4.22      0.00
   -4    4    4      5.68      0.00
   -2    4    4      3.30      0.00
    0    4    4     -2.06      0.00
    2    4    4     -6.52      0.00
    4    4    4     -6.07      0.00
    6    4    4     -1.02      0.00
    8    4    4      3.33      0.00
   10    4    4      3.08      0.00
   12    4    4      0.19      0.00
   14    4    4     -1.69      0.00
   16    4    4     -1.62      0.00
   18    4    4     -0.56      0.00
   20    4    4      0.13      0.00
   22    4    4     -0.45      0.00
   24    4    4     -1.49      0.00
   26    4    4     -1.57      0.00
   28    4    4     -0.68      0.00
   30    4    4      0.27      0.00
  -29    5    4     -0.55      0.00
  -27    5    4     -0.80      0.00
  -25    5    4     -0.41      0.00
  -23    5    4     -0.08      0.00
  -21    5    4      0.08      0.00
  -19    5    4      0.35      0.00
  -17    5    4      0.40      0.00
  -15    5    4     -0.09      0.00
  -13    5    4     -1.51      0.00
  -11    5    4     -3.85      0.00
   -9    5    4     -4.74      0.00
   -7    5    4     -1.38      0.00
   -5    5    4      4.49      0.00
   -3    5    4      7.66      0.00
   -1    5    4      5.12      0.00
    1    5    4     -1.55      0.00
    3    5    4     -7.06      0.00
    5    5    4     -6.36      0.00
    7    5    4     -0.82      0.00
    9    5    4      2.88      0.00
   11    5    4      1.64      0.00
   13    5    4     -1.25      0.00
   15    5    4     -2.23      0.00
   17    5    4     -1.09      0.00
   19    5    4      0.22      0.00
   21    5    4     -0.03      0.00
   23    5    4     -1.21      0.00
   25    5    4     -1.36      0.00
   27    5    4     -0.59      0.00
   29    5    4     -0.44      0.00
  -28    6    4      0.07      0.00
  -26    6    4     -0.36      0.00
  -24    6    4     -0.33      0.00
  -22    6    4      0.00      0.00
  -20    6    4      0.44      0.00
  -18    6    4      0.65      0.00
  -16    6    4      0.70      0.00
  -14    6    4      0.98      0.00
  -12    6    4      0.63      0.00
  -10    6    4     -1.03      0.00
   -8    6    4     -2.31      0.00
   -6    6    4     -1.40      0.00
   -4    6    4      0.61      0.00
   -2    6    4      1.53      0.00
    0    6    4      0.36      0.00
    2    6    4     -2.10      0.00
    4    6    4     -3.18      0.00
    6    6    4     -1.07      0.00
    8    6    4      1.90      0.00
   10    6    4      2.41      0.00
   12    6    4      0.82      0.00
   14    6    4     -0.44      0.00
   16    6    4     -0.44      0.00
   18    6    4      0.08      0.00
   20    6    4     -0.11      0.00
   22    6    4     -1.03      0.00
   24    6    4     -1.05      0.00
   26    6    4      0.37      0.00
   28    6    4      1.33      0.00
  -27    7    4      0.04      0.00
  -25    7    4     -0.04      0.00
  -23    7    4      0.14      0.00
  -21    7    4      0.54      0.00
  -19    7    4      0.84      0.00
  -17    7    4      0.72      0.00
  -15    7    4      0.59      0.00
  -13    7    4      0.88      0.00
  -11    7    4      1.07      0.00
   -9    7    4      0.56      0.00
   -7    7    4     -0.30      0.00
   -5    7    4     -0.97      0.00
   -3    7    4     -1.20      0.00
   -1    7    4     -0.67      0.00
    1    7    4      0.49      0.00
    3    7    4      1.66      0.00
    5    7    4      2.37      0.00
    7    7    4      2.20      0.00
    9    7    4      1.08      0.00
   11    7    4     -0.11      0.00
   13    7    4     -0.37      0.00
   15    7    4      0.15      0.00
   17    7    4      0.67      0.00
   19    7    4      0.61      0.00
   21    7    4     -0.11      0.00
   23    7    4     -0.67      0.00
   25    7    4     -0.10      0.00
  -24    8    4      0.37      0.00
  -22    8    4      1.09      0.00
  -20    8    4      1.27      0.00
  -18    8    4      1.09      0.00
  -16    8    4      0.68      0.00
  -14    8    4     -0.09      0.00
  -12    8    4     -0.78      0.00
  -10    8    4     -0.61      0.00
   -8    8    4      0.27      0.00
   -6    8    4      0.95      0.00
   -4    8    4      0.85      0.00
   -2    8    4      0.27      0.00
    0    8    4     -0.09      0.00
    2    8    4      0.24      0.00
    4    8    4      0.82      0.00
    6    8    4      0.90      0.00
    8    8    4      0.38      0.00
   10    8    4     -0.41      0.00
   12    8    4     -1.32      0.00
   14    8    4     -1.93      0.00
   16    8    4     -1.58      0.00
   18    8    4     -0.51      0.00
   20    8    4      0.27      0.00
   22    8    4      0.35      0.00
   24    8    4      0.19      0.00
  -23    9    4      0.50      0.00
  -21    9    4      0.81      0.00
  -19    9    4      0.26      0.00
  -17    9    4     -0.01      0.00
  -15    9    4      0.20      0.00
  -13    9    4      0.05      0.00
  -11    9    4     -0.36      0.00
   -9    9    4     -0.43      0.00
   -7    9    4      0.01      0.00
   -5    9    4      0.99      0.00
   -3    9    4      1.98      0.00
   -1    9    4      1.69      0.00
    1    9    4      0.00      0.00
    3    9    4     -1.52      0.00
    5    9    4     -1.69      0.00
    7    9    4     -0.54      0.00
    9    9    4      0.82      0.00
   11    9    4      0.54      0.00
   13    9    4     -1.74      0.00
   15    9    4     -3.63      0.00
   17    9    4     -3.17      0.00
   19    9    4     -1.28      0.00
   21    9    4      0.34      0.00
   23    9    4      0.99      0.00
  -20   10    4      0.18      0.00
  -18   10    4     -0.15      0.00
  -16   10    4      0.02      0.00
  -14   10    4      0.43      0.00
  -12   10    4      0.53      0.00
  -10   10    4      0.14      0.00
   -8   10    4     -0.79      0.00
   -6   10    4     -1.26      0.00
   -4   10    4     -0.09      0.00
   -2   10    4      1.55      0.00
    0   10    4      1.38      0.00
    2   10    4     -0.52      0.00
    4   10    4     -2.30      0.00
    6   10    4     -2.59      0.00
    8   10    4     -1.08      0.00
   10   10    4      0.85      0.00
   12   10    4      1.03      0.00
   14   10    4     -0.53      0.00
   16   10    4     -1.74      0.00
   18   10    4     -1.59      0.00
   20   10    4     -0.57      0.00
  -17   11    4      0.66      0.00
  -15   11    4      0.56      0.00
  -13   11    4      0.42      0.00
  -11   11    4      0.21      0.00
   -9   11    4     -0.61      0.00
   -7   11    4     -2.00      0.00
   -5   11    4     -2.40      0.00
   -3   11    4     -1.08      0.00
   -1   11    4      0.35      0.00
    1   11    4      0.35      0.00
    3   11    4     -0.80      0.00
    5   11    4     -2.09      0.00
    7   11    4     -2.38      0.00
    9   11    4     -1.12      0.00
   11   11    4      0.54      0.00
   13   11    4      1.12      0.00
   15   11    4      0.69      0.00
  -12   12    4      1.82      0.00
  -10   12    4      1.33      0.00
   -8   12    4     -0.10      0.00
   -6   12    4     -1.17      0.00
   -4   12    4     -0.88      0.00
   -2   12    4     -0.09      0.00
    0   12    4     -0.05      0.00
    2   12    4     -0.63      0.00
    4   12    4     -0.97      0.00
    6   12    4     -0.70      0.00
    8   12    4     -0.09      0.00
   10   12    4      0.19      0.00
   12   12    4     -0.06      0.00
  -31    1    5      0.63      0.00
  -29    1    5      0.82      0.00
  -27    1    5      0.55      0.00
  -25    1    5     -0.50      0.00
  -23    1    5     -2.14      0.00
  -21    1    5     -2.75      0.00
  -19    1    5     -0.99      0.00
  -17    1    5      1.85      0.00
  -15    1    5      2.35      0.00
  -13    1    5     -1.94      0.00
  -11    1    5     -8.21      0.00
   -9    1    5     -8.38      0.00
   -5    1    5     17.03      0.00
   -3    1    5     22.97      0.00
   -1    1    5     14.26      0.00
    1    1    5     -1.91      0.00
    3    1    5    -12.00      0.00
    5    1    5     -9.28      0.00
    7    1    5      0.10      0.00
    9    1    5      5.74      0.00
   11    1    5      4.89      0.00
   13    1    5      1.98      0.00
   15    1    5      0.58      0.00
   17    1    5      0.58      0.00
   19    1    5      0.50      0.00
   21    1    5     -0.19      0.00
   23    1    5     -0.62      0.00
   25    1    5      0.04      0.00
   27    1    5      1.12      0.00
   29    1    5      1.62      0.00
   31    1    5      1.46      0.00
  -30    2    5      0.20      0.00
  -28    2    5      0.94      0.00
  -26    2    5      1.44      0.00
  -24    2    5      0.48      0.00
  -22    2    5     -1.28      0.00
  -20    2    5     -1.38      0.00
  -18    2    5      0.74      0.00
  -16    2    5      2.72      0.00
  -14    2    5      1.58      0.00
  -12    2    5     -3.16      0.00
  -10    2    5     -6.94      0.00
   -8    2    5     -3.78      0.00
   -6    2    5      5.25      0.00
   -4    2    5     11.92      0.00
   -2    2    5     10.38      0.00
    0    2    5      2.32      0.00
    2    2    5     -5.65      0.00
    4    2    5     -7.26      0.00
    6    2    5     -2.24      0.00
    8    2    5      3.38      0.00
   10    2    5      4.91      0.00
   12    2    5      3.30      0.00
   14    2    5      1.13      0.00
   16    2    5     -0.32      0.00
   18    2    5     -0.66      0.00
   20    2    5     -0.45      0.00
   22    2    5     -0.32      0.00
   24    2    5      0.13      0.00
   26    2    5      0.71      0.00
   28    2    5      0.51      0.00
   30    2    5     -0.09      0.00
  -31    3    5     -1.34      0.00
  -29    3    5     -1.14      0.00
  -27    3    5      0.17      0.00
  -25    3    5      1.30      0.00
  -23    3    5      1.03      0.00
  -21    3    5      0.24      0.00
  -19    3    5      0.11      0.00
  -17    3    5      0.77      0.00
  -15    3    5      2.33      0.00
  -13    3    5      4.07      0.00
  -11    3    5      4.07      0.00
   -9    3    5      1.83      0.00
   -7    3    5     -1.47      0.00
   -5    3    5     -4.53      0.00
   -3    3    5     -5.26      0.00
   -1    3    5     -2.37      0.00
    1    3    5      1.26      0.00
    3    3    5      1.80      0.00
    5    3    5     -0.28      0.00
    7    3    5     -1.90      0.00
    9    3    5     -1.24      0.00
   11    3    5      1.26      0.00
   13    3    5      3.00      0.00
   15    3    5      1.96      0.00
   17    3    5     -0.21      0.00
   19    3    5     -1.02      0.00
   21    3    5     -0.62      0.00
   23    3    5     -0.02      0.00
   25    3    5      0.49      0.00
   27    3    5      0.45      0.00
   29    3    5     -0.09      0.00
  -30    4    5     -2.58      0.00
  -28    4    5     -1.99      0.00
  -26    4    5     -0.47      0.00
  -24    4    5      0.47      0.00
  -22    4    5      0.29      0.00
  -20    4    5     -0.55      0.00
  -18    4    5     -1.59      0.00
  -16    4    5     -1.35      0.00
  -14    4    5      1.77      0.00
  -12    4    5      6.09      0.00
  -10    4    5      7.60      0.00
   -8    4    5      4.49      0.00
   -6    4    5     -1.25      0.00
   -4    4    5     -5.34      0.00
   -2    4    5     -4.43      0.00
    0    4    5      0.06      0.00
    2    4    5      3.24      0.00
    4    4    5      2.53      0.00
    6    4    5     -0.44      0.00
    8    4    5     -2.48      0.00
   10    4    5     -1.56      0.00
   12    4    5      1.19      0.00
   14    4    5      2.40      0.00
   16    4    5      1.09      0.00
   18    4    5     -0.37      0.00
   20    4    5     -0.54      0.00
   22    4    5     -0.21      0.00
   24    4    5     -0.15      0.00
   26    4    5     -0.32      0.00
   28    4    5     -0.21      0.00
   30    4    5      0.42      0.00
  -29    5    5     -1.86      0.00
  -27    5    5     -1.09      0.00
  -25    5    5     -0.24      0.00
  -23    5    5      0.11      0.00
  -21    5    5      0.04      0.00
  -19    5    5     -0.28      0.00
  -17    5    5     -0.73      0.00
  -15    5    5     -0.88      0.00
  -13    5    5     -0.42      0.00
  -11    5    5      0.54      0.00
   -9    5    5      1.59      0.00
   -7    5    5      1.91      0.00
   -5    5    5      0.90      0.00
   -3    5    5     -0.70      0.00
   -1    5    5     -1.50      0.00
    1    5    5     -0.87      0.00
    3    5    5      0.70      0.00
    5    5    5      1.78      0.00
    9    5    5     -0.44      0.00
   11    5    5     -1.10      0.00
   13    5    5     -0.70      0.00
   15    5    5     -0.35      0.00
   17    5    5     -0.34      0.00
   19    5    5     -0.38      0.00
   21    5    5     -0.42      0.00
   23    5    5     -0.70      0.00
   25    5    5     -1.42      0.00
   27    5    5     -1.99      0.00
   29    5    5     -1.40      0.00
  -28    6    5     -0.65      0.00
  -26    6    5     -0.63      0.00
  -24    6    5     -0.22      0.00
  -22    6    5      0.24      0.00
  -20    6    5      0.43      0.00
  -18    6    5      0.56      0.00
  -16    6    5      0.55      0.00
  -14    6    5     -0.36      0.00
  -12    6    5     -1.81      0.00
  -10    6    5     -1.96      0.00
   -8    6    5     -0.16      0.00
   -6    6    5      1.82      0.00
   -4    6    5      1.84      0.00
    0    6    5     -3.60      0.00
    2    6    5     -4.46      0.00
    4    6    5     -2.54      0.00
    6    6    5     -0.26      0.00
    8    6    5      0.36      0.00
   10    6    5     -0.36      0.00
   12    6    5     -1.22      0.00
   14    6    5     -1.29      0.00
   16    6    5     -0.44      0.00
   18    6    5      0.24      0.00
   20    6    5      0.04      0.00
   22    6    5     -0.39      0.00
   24    6    5     -0.81      0.00
   26    6    5     -1.61      0.00
   28    6    5     -2.04      0.00
  -27    7    5      0.00      0.00
  -25    7    5      0.10      0.00
  -23    7    5      0.53      0.00
  -21    7    5      0.61      0.00
  -19    7    5      0.03      0.00
  -17    7    5     -0.35      0.00
  -15    7    5     -0.18      0.00
  -13    7    5     -0.11      0.00
  -11    7    5     -0.32      0.00
   -9    7    5     -0.56      0.00
   -7    7    5     -0.62      0.00
   -5    7    5     -0.17      0.00
   -3    7    5      0.23      0.00
   -1    7    5     -0.64      0.00
    1    7    5     -2.09      0.00
    3    7    5     -2.13      0.00
    5    7    5     -0.83      0.00
    7    7    5      0.20      0.00
    9    7    5      0.44      0.00
   11    7    5      0.21      0.00
   13    7    5      0.08      0.00
   15    7    5      0.76      0.00
   17    7    5      1.65      0.00
   19    7    5      1.36      0.00
   21    7    5      0.40      0.00
   23    7    5     -0.04      0.00
   25    7    5     -0.30      0.00
  -24    8    5      1.21      0.00
  -22    8    5      1.47      0.00
  -20    8    5      1.27      0.00
  -18    8    5      0.65      0.00
  -16    8    5     -0.01      0.00
  -14    8    5     -0.50      0.00
  -12    8    5     -0.64      0.00
  -10    8    5     -0.66      0.00
   -8    8    5     -1.27      0.00
   -6    8    5     -2.08      0.00
   -4    8    5     -1.75      0.00
   -2    8    5     -0.46      0.00
    0    8    5      0.60      0.00
    2    8    5      1.30      0.00
    4    8    5      1.58      0.00
    6    8    5      0.84      0.00
    8    8    5     -0.29      0.00
   10    8    5     -0.53      0.00
   12    8    5      0.26      0.00
   14    8    5      1.60      0.00
   16    8    5      2.84      0.00
   18    8    5      2.75      0.00
   20    8    5      1.28      0.00
   22    8    5      0.11      0.00
   24    8    5     -0.07      0.00
  -23    9    5      1.55      0.00
  -21    9    5      1.36      0.00
  -19    9    5      0.79      0.00
  -17    9    5      0.18      0.00
  -15    9    5     -0.48      0.00
  -13    9    5     -0.98      0.00
  -11    9    5     -0.63      0.00
   -9    9    5      0.41      0.00
   -7    9    5      0.90      0.00
   -5    9    5      0.28      0.00
   -3    9    5     -0.75      0.00
   -1    9    5     -1.30      0.00
    1    9    5     -0.86      0.00
    3    9    5      0.20      0.00
    5    9    5      0.72      0.00
    7    9    5      0.27      0.00
    9    9    5     -0.25      0.00
   11    9    5     -0.24      0.00
   13    9    5      0.30      0.00
   15    9    5      1.29      0.00
   17    9    5      2.05      0.00
   19    9    5      1.55      0.00
   21    9    5      0.20      0.00
  -20   10    5     -0.17      0.00
  -18   10    5     -1.03      0.00
  -16   10    5     -1.26      0.00
  -14   10    5     -0.92      0.00
  -12   10    5     -0.39      0.00
  -10   10    5      0.43      0.00
   -8   10    5      1.64      0.00
   -6   10    5      2.35      0.00
   -4   10    5      1.58      0.00
   -2   10    5     -0.20      0.00
    0   10    5     -1.49      0.00
    2   10    5     -1.42      0.00
    4   10    5     -0.30      0.00
    6   10    5      0.90      0.00
    8   10    5      1.39      0.00
   10   10    5      1.03      0.00
   12   10    5      0.28      0.00
   14   10    5     -0.18      0.00
   16   10    5      0.00      0.00
   18   10    5      0.39      0.00
   20   10    5      0.28      0.00
  -15   11    5     -1.32      0.00
  -13   11    5     -1.25      0.00
  -11   11    5     -1.18      0.00
   -9   11    5     -0.96      0.00
   -7   11    5     -0.26      0.00
   -5   11    5      0.28      0.00
   -3   11    5      0.22      0.00
   -1   11    5      0.07      0.00
    1   11    5      0.00      0.00
    3   11    5     -0.30      0.00
    5   11    5     -0.46      0.00
    7   11    5     -0.17      0.00
    9   11    5      0.29      0.00
   11   11    5      0.73      0.00
   13   11    5      0.82      0.00
   15   11    5      0.18      0.00
  -10   12    5     -0.82      0.00
   -8   12    5     -1.25      0.00
   -6   12    5     -1.62      0.00
   -4   12    5     -1.62      0.00
   -2   12    5     -0.60      0.00
    0   12    5      0.78      0.00
    2   12    5      0.55      0.00
    4   12    5     -1.31      0.00
    6   12    5     -2.66      0.00
    8   12    5     -2.40      0.00
   10   12    5     -1.00      0.00
  -30    0    6      0.89      0.00
  -28    0    6     -0.18      0.00
  -26    0    6     -0.69      0.00
  -24    0    6     -0.15      0.00
  -22    0    6      0.85      0.00
  -20    0    6      0.76      0.00
  -18    0    6     -1.69      0.00
  -16    0    6     -3.79      0.00
  -14    0    6      0.19      0.00
  -12    0    6     10.63      0.00
  -10    0    6     18.90      0.00
   -8    0    6     14.83      0.00
   -6    0    6     -2.54      0.00
   -4    0    6    -21.20      0.00
   -2    0    6    -25.62      0.00
    0    0    6    -13.19      0.00
    2    0    6      3.32      0.00
    6    0    6      8.81      0.00
    8    0    6      3.12      0.00
   10    0    6     -0.30      0.00
   12    0    6     -1.10      0.00
   14    0    6     -1.82      0.00
   16    0    6     -2.52      0.00
   18    0    6     -1.19      0.00
   20    0    6      1.23      0.00
   22    0    6      1.76      0.00
   24    0    6      0.29      0.00
   26    0    6     -1.11      0.00
   28    0    6     -1.54      0.00
   30    0    6     -1.31      0.00
  -31    1    6      1.86      0.00
  -29    1    6      1.17      0.00
  -27    1    6     -0.01      0.00
  -25    1    6     -0.51      0.00
  -23    1    6      0.06      0.00
  -21    1    6      0.80      0.00
  -19    1    6     -0.07      0.00
  -17    1    6     -2.78      0.00
  -15    1    6     -3.84      0.00
  -13    1    6     -0.03      0.00
  -11    1    6      6.22      0.00
   -9    1    6      8.64      0.00
   -7    1    6      3.56      0.00
   -5    1    6     -6.15      0.00
   -3    1    6    -12.51      0.00
   -1    1    6    -10.03      0.00
    1    1    6     -1.81      0.00
    3    1    6      4.93      0.00
    7    1    6      5.08      0.00
    9    1    6      2.17      0.00
   11    1    6     -0.02      0.00
   13    1    6     -1.23      0.00
   15    1    6     -1.77      0.00
   17    1    6     -1.01      0.00
   19    1    6      0.79      0.00
   21    1    6      1.60      0.00
   23    1    6      0.61      0.00
   25    1    6     -0.54      0.00
   27    1    6     -0.66      0.00
   29    1    6     -0.23      0.00
   31    1    6     -0.06      0.00
  -30    2    6      2.67      0.00
  -28    2    6      1.87      0.00
  -26    2    6      0.31      0.00
  -24    2    6     -0.71      0.00
  -22    2    6     -0.68      0.00
  -20    2    6     -0.32      0.00
  -18    2    6     -1.01      0.00
  -16    2    6     -3.11      0.00
  -14    2    6     -5.29      0.00
  -12    2    6     -6.00      0.00
  -10    2    6     -4.79      0.00
   -8    2    6     -1.91      0.00
   -6    2    6      1.50      0.00
   -4    2    6      3.63      0.00
    0    2    6      1.67      0.00
    2    2    6      0.13      0.00
    4    2    6      0.77      0.00
    6    2    6      3.09      0.00
    8    2    6      4.18      0.00
   10    2    6      2.33      0.00
   12    2    6     -0.68      0.00
   14    2    6     -2.11      0.00
   16    2    6     -1.24      0.00
   18    2    6      0.56      0.00
   20    2    6      1.49      0.00
   22    2    6      1.03      0.00
   24    2    6      0.20      0.00
   26    2    6     -0.04      0.00
   28    2    6      0.10      0.00
   30    2    6      0.01      0.00
  -31    3    6      2.32      0.00
  -29    3    6      2.58      0.00
  -27    3    6      1.34      0.00
  -25    3    6     -0.38      0.00
  -23    3    6     -1.31      0.00
  -21    3    6     -1.06      0.00
  -19    3    6     -0.03      0.00
  -17    3    6      0.46      0.00
  -15    3    6     -0.87      0.00
  -13    3    6     -3.29      0.00
   -9    3    6     -3.62      0.00
   -7    3    6     -1.09      0.00
   -5    3    6      1.65      0.00
   -3    3    6      3.43      0.00
   -1    3    6      3.80      0.00
    3    3    6      1.92      0.00
    5    3    6      1.00      0.00
    7    3    6      0.87      0.00
    9    3    6      0.97      0.00
   11    3    6      0.23      0.00
   13    3    6     -0.97      0.00
   15    3    6     -1.33      0.00
   17    3    6     -0.75      0.00
   19    3    6     -0.05      0.00
   21    3    6      0.51      0.00
   23    3    6      0.91      0.00
   25    3    6      0.82      0.00
   27    3    6      0.12      0.00
   29    3    6     -0.83      0.00
  -30    4    6      1.87      0.00
  -28    4    6      1.49      0.00
  -26    4    6      0.23      0.00
  -24    4    6     -0.68      0.00
  -22    4    6     -0.85      0.00
  -20    4    6     -0.56      0.00
  -18    4    6      0.10      0.00
  -16    4    6      0.65      0.00
  -14    4    6      0.83      0.00
  -12    4    6      1.26      0.00
  -10    4    6      1.70      0.00
   -8    4    6      0.89      0.00
   -6    4    6     -0.58      0.00
   -4    4    6     -0.57      0.00
   -2    4    6      1.55      0.00
    0    4    6      4.29      0.00
    2    4    6      5.20      0.00
    4    4    6      2.59      0.00
    6    4    6     -1.59      0.00
    8    4    6     -3.08      0.00
   10    4    6     -1.05      0.00
   12    4    6      1.25      0.00
   14    4    6      1.57      0.00
   16    4    6      0.38      0.00
   18    4    6     -0.86      0.00
   20    4    6     -0.78      0.00
   22    4    6      0.56      0.00
   24    4    6      1.45      0.00
   26    4    6      1.07      0.00
   28    4    6      0.26      0.00
  -29    5    6      1.36      0.00
  -27    5    6      1.12      0.00
  -25    5    6      0.33      0.00
  -23    5    6     -0.19      0.00
  -21    5    6     -0.62      0.00
  -19    5    6     -1.05      0.00
  -17    5    6     -1.20      0.00
  -15    5    6     -0.96      0.00
  -13    5    6      0.18      0.00
  -11    5    6      2.03      0.00
   -9    5    6      2.57      0.00
   -7    5    6      0.84      0.00
   -5    5    6     -1.08      0.00
   -3    5    6     -1.19      0.00
   -1    5    6      0.55      0.00
    1    5    6      3.13      0.00
    3    5    6      4.29      0.00
    5    5    6      2.21      0.00
    7    5    6     -0.83      0.00
    9    5    6     -1.07      0.00
   11    5    6      1.12      0.00
   13    5    6      2.63      0.00
   15    5    6      2.03      0.00
   17    5    6      0.30      0.00
   19    5    6     -0.59      0.00
   21    5    6      0.27      0.00
   23    5    6      1.12      0.00
   25    5    6      0.42      0.00
   27    5    6     -0.48      0.00
  -28    6    6      0.99      0.00
  -26    6    6      0.59      0.00
  -24    6    6     -0.06      0.00
  -22    6    6     -0.40      0.00
  -20    6    6     -0.39      0.00
  -18    6    6     -0.22      0.00
  -16    6    6     -0.56      0.00
  -14    6    6     -1.33      0.00
  -12    6    6     -1.13      0.00
  -10    6    6      0.30      0.00
   -8    6    6      1.02      0.00
   -6    6    6     -0.04      0.00
   -4    6    6     -1.82      0.00
   -2    6    6     -2.75      0.00
    0    6    6     -1.74      0.00
    2    6    6      0.71      0.00
    4    6    6      2.04      0.00
    6    6    6      1.06      0.00
    8    6    6     -0.16      0.00
   10    6    6      0.01      0.00
   12    6    6      0.65      0.00
   14    6    6      0.68      0.00
   16    6    6      0.17      0.00
   18    6    6     -0.19      0.00
   20    6    6      0.33      0.00
   22    6    6      1.07      0.00
   24    6    6      0.41      0.00
   26    6    6     -1.19      0.00
  -25    7    6     -0.08      0.00
  -23    7    6     -0.15      0.00
  -21    7    6     -0.14      0.00
  -19    7    6     -0.29      0.00
  -17    7    6     -0.68      0.00
  -15    7    6     -1.24      0.00
  -13    7    6     -1.30      0.00
  -11    7    6     -0.32      0.00
   -9    7    6      0.91      0.00
   -7    7    6      1.06      0.00
   -5    7    6      0.10      0.00
   -3    7    6     -1.01      0.00
   -1    7    6     -1.64      0.00
    1    7    6     -1.78      0.00
    3    7    6     -1.82      0.00
    5    7    6     -1.79      0.00
    7    7    6     -1.20      0.00
    9    7    6     -0.20      0.00
   11    7    6      0.16      0.00
   13    7    6     -0.36      0.00
   15    7    6     -0.87      0.00
   17    7    6     -0.76      0.00
   19    7    6     -0.06      0.00
   21    7    6      0.81      0.00
   23    7    6      1.01      0.00
   25    7    6      0.14      0.00
  -24    8    6     -0.66      0.00
  -22    8    6     -0.53      0.00
  -20    8    6     -0.23      0.00
  -18    8    6     -0.34      0.00
  -16    8    6     -0.55      0.00
  -14    8    6     -0.18      0.00
  -12    8    6      0.44      0.00
  -10    8    6      0.34      0.00
   -8    8    6     -0.55      0.00
   -6    8    6     -1.30      0.00
   -4    8    6     -1.03      0.00
   -2    8    6     -0.01      0.00
    0    8    6      0.45      0.00
    2    8    6     -0.34      0.00
    4    8    6     -1.40      0.00
    6    8    6     -1.46      0.00
    8    8    6     -0.58      0.00
   10    8    6      0.41      0.00
   12    8    6      1.06      0.00
   14    8    6      1.15      0.00
   16    8    6      0.63      0.00
   18    8    6     -0.03      0.00
   20    8    6     -0.33      0.00
   22    8    6     -0.30      0.00
   24    8    6     -0.19      0.00
  -21    9    6     -0.46      0.00
  -19    9    6      0.60      0.00
  -17    9    6      1.08      0.00
  -15    9    6      1.01      0.00
  -13    9    6      0.78      0.00
  -11    9    6      0.23      0.00
   -9    9    6     -0.46      0.00
   -7    9    6     -0.95      0.00
   -5    9    6     -1.26      0.00
   -3    9    6     -1.07      0.00
   -1    9    6     -0.12      0.00
    1    9    6      0.76      0.00
    3    9    6      0.82      0.00
    5    9    6      0.28      0.00
    7    9    6     -0.49      0.00
    9    9    6     -0.83      0.00
   11    9    6      0.26      0.00
   13    9    6      2.05      0.00
   15    9    6      2.41      0.00
   17    9    6      0.90      0.00
   19    9    6     -0.97      0.00
   21    9    6     -2.05      0.00
  -18   10    6      0.49      0.00
  -16   10    6      0.60      0.00
  -14   10    6      0.34      0.00
  -12   10    6     -0.04      0.00
  -10   10    6      0.13      0.00
   -8   10    6      1.12      0.00
   -6   10    6      1.52      0.00
   -4   10    6      0.38      0.00
   -2   10    6     -0.79      0.00
    0   10    6     -0.46      0.00
    2   10    6      0.82      0.00
    4   10    6      1.81      0.00
    6   10    6      1.60      0.00
    8   10    6      0.11      0.00
   10   10    6     -1.01      0.00
   12   10    6     -0.37      0.00
   14   10    6      0.83      0.00
   16   10    6      0.93      0.00
   18   10    6      0.08      0.00
  -15   11    6     -0.42      0.00
  -13   11    6     -0.11      0.00
  -11   11    6      0.41      0.00
   -9   11    6      1.62      0.00
   -7   11    6      2.71      0.00
   -5   11    6      2.06      0.00
   -3   11    6      0.12      0.00
   -1   11    6     -0.86      0.00
    1   11    6     -0.06      0.00
    3   11    6      1.45      0.00
    5   11    6      2.25      0.00
    7   11    6      1.41      0.00
    9   11    6     -0.37      0.00
   11   11    6     -1.22      0.00
   13   11    6     -0.71      0.00
   15   11    6     -0.02      0.00
  -10   12    6      0.78      0.00
   -8   12    6      2.07      0.00
   -6   12    6      1.92      0.00
   -4   12    6      0.27      0.00
   -2   12    6     -0.91      0.00
    0   12    6     -0.43      0.00
    2   12    6      0.75      0.00
    4   12    6      1.01      0.00
    6   12    6     -0.07      0.00
    8   12    6     -1.36      0.00
   10   12    6     -1.40      0.00
  -31    1    7     -0.66      0.00
  -29    1    7     -0.83      0.00
  -27    1    7     -0.29      0.00
  -25    1    7      0.99      0.00
  -23    1    7      2.00      0.00
  -21    1    7      1.43      0.00
  -19    1    7     -0.41      0.00
  -17    1    7     -1.65      0.00
  -15    1    7     -0.34      0.00
  -13    1    7      3.55      0.00
  -11    1    7      6.31      0.00
   -7    1    7     -4.78      0.00
   -5    1    7     -9.68      0.00
   -3    1    7     -6.15      0.00
   -1    1    7      2.45      0.00
    3    1    7      6.25      0.00
    5    1    7      0.34      0.00
    7    1    7     -2.94      0.00
    9    1    7     -1.77      0.00
   11    1    7      0.08      0.00
   13    1    7      0.09      0.00
   15    1    7     -0.47      0.00
   17    1    7     -0.07      0.00
   19    1    7      0.94      0.00
   21    1    7      1.36      0.00
   23    1    7      0.52      0.00
   25    1    7     -0.90      0.00
   27    1    7     -1.72      0.00
   29    1    7     -1.74      0.00
   31    1    7     -1.38      0.00
  -30    2    7     -0.82      0.00
  -28    2    7     -1.47      0.00
  -26    2    7     -1.25      0.00
  -24    2    7      0.17      0.00
  -22    2    7      1.16      0.00
  -20    2    7      0.37      0.00
  -18    2    7     -1.12      0.00
  -16    2    7     -1.45      0.00
  -14    2    7      0.12      0.00
  -12    2    7      2.31      0.00
  -10    2    7      2.01      0.00
   -8    2    7     -1.39      0.00
   -6    2    7     -3.28      0.00
   -2    2    7      5.64      0.00
    0    2    7      8.19      0.00
    2    2    7      5.52      0.00
    4    2    7     -0.16      0.00
    6    2    7     -4.20      0.00
    8    2    7     -4.16      0.00
   10    2    7     -2.41      0.00
   12    2    7     -1.63      0.00
   14    2    7     -1.03      0.00
   16    2    7      0.37      0.00
   18    2    7      1.64      0.00
   20    2    7      1.88      0.00
   22    2    7      0.97      0.00
   24    2    7     -0.50      0.00
   26    2    7     -1.14      0.00
   28    2    7     -0.60      0.00
   30    2    7     -0.19      0.00
  -29    3    7      0.32      0.00
  -27    3    7     -0.72      0.00
  -25    3    7     -1.03      0.00
  -23    3    7     -0.46      0.00
  -21    3    7     -0.14      0.00
  -19    3    7     -0.11      0.00
  -17    3    7     -0.01      0.00
  -15    3    7     -0.70      0.00
  -13    3    7     -2.32      0.00
  -11    3    7     -3.44      0.00
   -9    3    7     -2.70      0.00
   -7    3    7      0.54      0.00
   -5    3    7      4.78      0.00
   -3    3    7      6.03      0.00
   -1    3    7      2.79      0.00
    1    3    7     -1.33      0.00
    3    3    7     -2.81      0.00
    5    3    7     -1.90      0.00
    7    3    7     -0.58      0.00
    9    3    7     -0.71      0.00
   11    3    7     -2.38      0.00
   13    3    7     -3.00      0.00
   15    3    7     -1.14      0.00
   17    3    7      1.05      0.00
   19    3    7      1.60      0.00
   21    3    7      0.96      0.00
   23    3    7     -0.06      0.00
   25    3    7     -0.70      0.00
   27    3    7     -0.43      0.00
   29    3    7      0.00      0.00
  -30    4    7      1.48      0.00
  -28    4    7      0.65      0.00
  -26    4    7     -0.21      0.00
  -24    4    7     -0.43      0.00
  -22    4    7     -0.42      0.00
  -20    4    7     -0.11      0.00
  -18    4    7      1.03      0.00
  -16    4    7      1.75      0.00
  -14    4    7      0.33      0.00
  -12    4    7     -2.20      0.00
  -10    4    7     -3.20      0.00
   -8    4    7     -1.33      0.00
   -6    4    7      2.15      0.00
   -4    4    7      3.91      0.00
    0    4    7     -1.65      0.00
    2    4    7     -3.21      0.00
    6    4    7     -0.22      0.00
    8    4    7      0.72      0.00
   10    4    7     -0.47      0.00
   12    4    7     -2.31      0.00
   14    4    7     -2.32      0.00
   16    4    7     -0.81      0.00
   18    4    7      0.16      0.00
   20    4    7      0.18      0.00
   22    4    7      0.00      0.00
   24    4    7     -0.02      0.00
   26    4    7      0.12      0.00
   28    4    7      0.09      0.00
  -29    5    7      0.33      0.00
  -27    5    7     -0.15      0.00
  -25    5    7     -0.05      0.00
  -23    5    7     -0.01      0.00
  -21    5    7     -0.57      0.00
  -19    5    7     -0.97      0.00
  -17    5    7     -0.32      0.00
  -15    5    7      0.90      0.00
  -13    5    7      1.51      0.00
  -11    5    7      0.97      0.00
   -9    5    7      0.11      0.00
   -7    5    7      0.76      0.00
   -5    5    7      3.45      0.00
   -1    5    7      5.75      0.00
    1    5    7      2.66      0.00
    3    5    7     -1.13      0.00
    5    5    7     -2.96      0.00
    7    5    7     -2.05      0.00
    9    5    7     -0.40      0.00
   11    5    7     -0.04      0.00
   13    5    7     -0.59      0.00
   15    5    7     -0.91      0.00
   17    5    7     -0.73      0.00
   19    5    7     -0.26      0.00
   21    5    7      0.24      0.00
   23    5    7      0.67      0.00
   25    5    7      1.19      0.00
   27    5    7      1.50      0.00
  -26    6    7      0.12      0.00
  -24    6    7     -0.21      0.00
  -22    6    7     -0.69      0.00
  -20    6    7     -1.01      0.00
  -18    6    7     -0.83      0.00
  -16    6    7      0.03      0.00
  -14    6    7      1.20      0.00
  -12    6    7      1.55      0.00
  -10    6    7      0.44      0.00
   -8    6    7     -0.86      0.00
   -6    6    7     -0.44      0.00
   -4    6    7      1.89      0.00
   -2    6    7      4.29      0.00
    0    6    7      4.69      0.00
    2    6    7      2.70      0.00
    4    6    7      0.20      0.00
    6    6    7     -0.72      0.00
    8    6    7      0.02      0.00
   10    6    7      1.14      0.00
   12    6    7      1.66      0.00
   14    6    7      1.14      0.00
   16    6    7      0.12      0.00
   18    6    7     -0.25      0.00
   20    6    7      0.06      0.00
   22    6    7      0.22      0.00
   24    6    7      0.34      0.00
   26    6    7      0.84      0.00
  -25    7    7     -0.48      0.00
  -23    7    7     -1.42      0.00
  -21    7    7     -1.41      0.00
  -19    7    7     -0.41      0.00
  -17    7    7      0.61      0.00
  -15    7    7      0.96      0.00
  -13    7    7      0.58      0.00
  -11    7    7      0.04      0.00
   -9    7    7     -0.02      0.00
   -7    7    7      0.15      0.00
   -5    7    7     -0.24      0.00
   -3    7    7     -0.79      0.00
   -1    7    7     -0.44      0.00
    1    7    7      0.47      0.00
    3    7    7      0.89      0.00
    5    7    7      0.79      0.00
    7    7    7      0.53      0.00
    9    7    7      0.40      0.00
   11    7    7      0.65      0.00
   13    7    7      0.68      0.00
   15    7    7     -0.09      0.00
   17    7    7     -0.78      0.00
   19    7    7     -0.55      0.00
   21    7    7     -0.17      0.00
   23    7    7     -0.13      0.00
   25    7    7      0.06      0.00
  -24    8    7     -1.15      0.00
  -22    8    7     -1.52      0.00
  -20    8    7     -1.22      0.00
  -18    8    7     -0.52      0.00
  -16    8    7      0.17      0.00
  -14    8    7      0.44      0.00
  -12    8    7      0.21      0.00
  -10    8    7      0.22      0.00
   -8    8    7      0.97      0.00
   -6    8    7      1.49      0.00
   -4    8    7      0.87      0.00
   -2    8    7     -0.17      0.00
    0    8    7     -0.74      0.00
    2    8    7     -0.86      0.00
    4    8    7     -0.52      0.00
    6    8    7      0.14      0.00
    8    8    7      0.35      0.00
   10    8    7     -0.08      0.00
   12    8    7     -0.72      0.00
   14    8    7     -1.41      0.00
   16    8    7     -1.66      0.00
   18    8    7     -0.80      0.00
   20    8    7      0.57      0.00
   22    8    7      1.23      0.00
   24    8    7      1.09      0.00
  -21    9    7     -1.22      0.00
  -19    9    7     -0.22      0.00
  -17    9    7      0.92      0.00
  -15    9    7      1.73      0.00
  -13    9    7      1.54      0.00
  -11    9    7      0.17      0.00
   -9    9    7     -1.33      0.00
   -7    9    7     -1.62      0.00
   -5    9    7     -0.56      0.00
   -3    9    7      0.78      0.00
   -1    9    7      1.20      0.00
    1    9    7      0.41      0.00
    3    9    7     -0.60      0.00
    5    9    7     -0.74      0.00
    7    9    7     -0.19      0.00
    9    9    7      0.19      0.00
   11    9    7      0.09      0.00
   13    9    7     -0.48      0.00
   15    9    7     -1.26      0.00
   17    9    7     -1.41      0.00
   19    9    7     -0.37      0.00
   21    9    7      1.05      0.00
  -18   10    7      1.91      0.00
  -16   10    7      2.78      0.00
  -14   10    7      2.13      0.00
  -12   10    7      0.53      0.00
  -10   10    7     -1.12      0.00
   -8   10    7     -2.11      0.00
   -6   10    7     -1.87      0.00
   -4   10    7     -0.56      0.00
   -2   10    7      0.65      0.00
    0   10    7      0.81      0.00
    2   10    7      0.06      0.00
    4   10    7     -0.87      0.00
    6   10    7     -1.23      0.00
    8   10    7     -0.76      0.00
   10   10    7      0.07      0.00
   12   10    7      0.43      0.00
   14   10    7     -0.12      0.00
   16   10    7     -1.19      0.00
   18   10    7     -1.81      0.00
  -15   11    7      1.92      0.00
  -13   11    7      0.66      0.00
  -11   11    7     -0.33      0.00
   -9   11    7     -0.53      0.00
   -7   11    7     -0.36      0.00
   -5   11    7     -0.08      0.00
   -3   11    7     -0.03      0.00
   -1   11    7     -0.27      0.00
    1   11    7     -0.11      0.00
    3   11    7      0.46      0.00
    5   11    7      0.61      0.00
    7   11    7      0.30      0.00
    9   11    7     -0.03      0.00
   11   11    7     -0.39      0.00
   13   11    7     -0.58      0.00
   15   11    7     -0.45      0.00
  -10   12    7     -0.14      0.00
   -8   12    7      0.15      0.00
   -6   12    7      0.39      0.00
   -4   12    7     -0.07      0.00
   -2   12    7     -1.30      0.00
    0   12    7     -1.62      0.00
    2   12    7      0.22      0.00
    4   12    7      2.50      0.00
    6   12    7      2.99      0.00
    8   12    7      1.83      0.00
  -30    0    8     -0.90      0.00
  -28    0    8     -0.42      0.00
  -26    0    8     -0.31      0.00
  -24    0    8     -0.39      0.00
  -22    0    8     -0.13      0.00
  -20    0    8      1.08      0.00
  -18    0    8      2.79      0.00
  -16    0    8      2.36      0.00
  -14    0    8     -2.17      0.00
  -12    0    8     -8.33      0.00
  -10    0    8    -10.78      0.00
   -8    0    8     -6.60      0.00
   -6    0    8      1.25      0.00
   -4    0    8      6.21      0.00
   -2    0    8      5.55      0.00
    0    0    8      3.52      0.00
    2    0    8      3.98      0.00
    4    0    8      4.48      0.00
    6    0    8      1.41      0.00
    8    0    8     -3.73      0.00
   10    0    8     -6.27      0.00
   12    0    8     -3.94      0.00
   14    0    8      0.41      0.00
   16    0    8      1.89      0.00
   18    0    8     -0.20      0.00
   20    0    8     -1.93      0.00
   22    0    8     -0.91      0.00
   24    0    8      1.23      0.00
   26    0    8      2.37      0.00
   28    0    8      2.27      0.00
   30    0    8      1.71      0.00
  -31    1    8     -0.87      0.00
  -29    1    8     -0.34      0.00
  -27    1    8      0.33      0.00
  -25    1    8      0.39      0.00
  -23    1    8     -0.22      0.00
  -21    1    8     -0.65      0.00
  -19    1    8      0.08      0.00
  -17    1    8      1.19      0.00
  -15    1    8      0.55      0.00
  -13    1    8     -1.97      0.00
  -11    1    8     -3.84      0.00
   -9    1    8     -2.90      0.00
   -7    1    8      0.38      0.00
   -5    1    8      3.14      0.00
   -3    1    8      3.15      0.00
   -1    1    8      1.82      0.00
    1    1    8      2.00      0.00
    3    1    8      3.03      0.00
    5    1    8      1.94      0.00
    7    1    8     -1.49      0.00
    9    1    8     -4.24      0.00
   11    1    8     -3.73      0.00
   13    1    8     -0.62      0.00
   15    1    8      1.70      0.00
   17    1    8      1.04      0.00
   19    1    8     -0.81      0.00
   21    1    8     -1.04      0.00
   23    1    8      0.25      0.00
   25    1    8      1.15      0.00
   27    1    8      0.96      0.00
   29    1    8      0.52      0.00
  -30    2    8     -1.12      0.00
  -28    2    8     -0.43      0.00
  -26    2    8      0.71      0.00
  -24    2    8      1.04      0.00
  -22    2    8      0.24      0.00
  -20    2    8     -0.63      0.00
  -18    2    8     -0.45      0.00
  -16    2    8      0.56      0.00
  -14    2    8      1.44      0.00
  -12    2    8      1.71      0.00
  -10    2    8      1.47      0.00
   -8    2    8      1.02      0.00
   -6    2    8      0.78      0.00
   -4    2    8      0.83      0.00
   -2    2    8      0.88      0.00
    0    2    8      0.82      0.00
    4    2    8     -0.21      0.00
    6    2    8     -1.30      0.00
    8    2    8     -1.92      0.00
   10    2    8     -1.31      0.00
   12    2    8      0.34      0.00
   14    2    8      1.77      0.00
   16    2    8      1.79      0.00
   18    2    8      0.70      0.00
   20    2    8     -0.22      0.00
   22    2    8     -0.33      0.00
   24    2    8     -0.11      0.00
   26    2    8     -0.13      0.00
   28    2    8     -0.17      0.00
   30    2    8      0.21      0.00
  -29    3    8     -1.55      0.00
  -27    3    8     -0.47      0.00
  -25    3    8      0.97      0.00
  -23    3    8      1.67      0.00
  -21    3    8      1.31      0.00
  -19    3    8      0.46      0.00
  -17    3    8      0.09      0.00
  -15    3    8      0.29      0.00
  -13    3    8     -0.16      0.00
  -11    3    8     -1.71      0.00
   -9    3    8     -2.86      0.00
   -5    3    8     -0.34      0.00
   -3    3    8      0.53      0.00
   -1    3    8     -0.58      0.00
    1    3    8     -2.44      0.00
    3    3    8     -2.85      0.00
    5    3    8     -1.46      0.00
    7    3    8     -0.12      0.00
    9    3    8      0.19      0.00
   11    3    8      0.42      0.00
   13    3    8      1.09      0.00
   15    3    8      1.63      0.00
   17    3    8      1.70      0.00
   19    3    8      1.21      0.00
   21    3    8      0.28      0.00
   23    3    8     -0.32      0.00
   25    3    8     -0.13      0.00
   27    3    8      0.43      0.00
   29    3    8      0.94      0.00
  -28    4    8     -0.64      0.00
  -26    4    8      0.25      0.00
  -24    4    8      0.75      0.00
  -22    4    8      0.89      0.00
  -20    4    8      0.82      0.00
  -18    4    8      0.63      0.00
  -16    4    8      0.42      0.00
  -14    4    8     -0.37      0.00
  -12    4    8     -2.18      0.00
  -10    4    8     -3.54      0.00
   -8    4    8     -3.09      0.00
   -6    4    8     -2.22      0.00
   -4    4    8     -2.73      0.00
    0    4    8     -5.19      0.00
    2    4    8     -4.28      0.00
    4    4    8     -1.49      0.00
    6    4    8      0.93      0.00
    8    4    8      0.95      0.00
   10    4    8     -0.21      0.00
   12    4    8     -0.43      0.00
   14    4    8      0.42      0.00
   16    4    8      1.51      0.00
   18    4    8      2.00      0.00
   20    4    8      1.21      0.00
   22    4    8     -0.06      0.00
   24    4    8     -0.35      0.00
   26    4    8      0.02      0.00
   28    4    8      0.12      0.00
  -27    5    8     -0.51      0.00
  -25    5    8      0.12      0.00
  -23    5    8      0.20      0.00
  -21    5    8      0.17      0.00
  -19    5    8      0.25      0.00
  -17    5    8      0.55      0.00
  -15    5    8      0.89      0.00
  -13    5    8      0.53      0.00
  -11    5    8     -0.32      0.00
   -9    5    8     -0.44      0.00
   -7    5    8     -0.11      0.00
   -5    5    8     -0.45      0.00
   -3    5    8     -0.85      0.00
    1    5    8     -0.58      0.00
    3    5    8     -0.73      0.00
    5    5    8     -0.51      0.00
    7    5    8     -0.57      0.00
    9    5    8     -1.29      0.00
   11    5    8     -1.67      0.00
   13    5    8     -1.27      0.00
   15    5    8     -0.44      0.00
   17    5    8      0.35      0.00
   19    5    8      0.27      0.00
   21    5    8     -0.55      0.00
   23    5    8     -0.50      0.00
   25    5    8      0.54      0.00
   27    5    8      0.85      0.00
  -26    6    8     -0.02      0.00
  -24    6    8      0.68      0.00
  -22    6    8      0.54      0.00
  -20    6    8     -0.08      0.00
  -18    6    8     -0.35      0.00
  -16    6    8      0.44      0.00
  -14    6    8      1.56      0.00
  -12    6    8      1.50      0.00
  -10    6    8      0.51      0.00
   -8    6    8      0.31      0.00
   -6    6    8      1.47      0.00
   -4    6    8      3.32      0.00
   -2    6    8      4.54      0.00
    0    6    8      3.71      0.00
    2    6    8      1.29      0.00
    4    6    8     -0.43      0.00
    6    6    8     -0.73      0.00
    8    6    8     -0.82      0.00
   10    6    8     -1.07      0.00
   12    6    8     -1.11      0.00
   14    6    8     -1.02      0.00
   16    6    8     -0.89      0.00
   18    6    8     -0.84      0.00
   20    6    8     -1.09      0.00
   22    6    8     -0.86      0.00
   24    6    8      0.43      0.00
   26    6    8      1.55      0.00
  -25    7    8      0.07      0.00
  -23    7    8     -0.36      0.00
  -21    7    8     -0.79      0.00
  -19    7    8     -0.55      0.00
  -17    7    8      0.52      0.00
  -15    7    8      1.66      0.00
  -13    7    8      1.67      0.00
  -11    7    8      0.45      0.00
   -9    7    8     -0.51      0.00
   -7    7    8     -0.01      0.00
   -5    7    8      1.29      0.00
   -3    7    8      1.96      0.00
   -1    7    8      1.45      0.00
    1    7    8      0.61      0.00
    3    7    8      0.52      0.00
    5    7    8      0.87      0.00
    7    7    8      0.58      0.00
    9    7    8     -0.14      0.00
   11    7    8     -0.21      0.00
   13    7    8      0.25      0.00
   15    7    8      0.37      0.00
   17    7    8     -0.10      0.00
   19    7    8     -0.78      0.00
   21    7    8     -1.15      0.00
   23    7    8     -0.85      0.00
   25    7    8     -0.14      0.00
  -24    8    8      0.06      0.00
  -22    8    8     -0.50      0.00
  -20    8    8     -0.74      0.00
  -18    8    8     -0.37      0.00
  -16    8    8     -0.05      0.00
  -14    8    8     -0.32      0.00
  -12    8    8     -0.65      0.00
  -10    8    8     -0.29      0.00
   -8    8    8      0.59      0.00
   -6    8    8      1.10      0.00
   -4    8    8      0.56      0.00
   -2    8    8     -0.52      0.00
    0    8    8     -0.73      0.00
    2    8    8      0.35      0.00
    4    8    8      1.43      0.00
    6    8    8      1.37      0.00
    8    8    8      0.53      0.00
   10    8    8     -0.20      0.00
   12    8    8     -0.38      0.00
   14    8    8     -0.07      0.00
   16    8    8      0.28      0.00
   18    8    8      0.32      0.00
   20    8    8      0.17      0.00
   22    8    8     -0.01      0.00
  -21    9    8      0.18      0.00
  -19    9    8     -0.62      0.00
  -17    9    8     -1.15      0.00
  -15    9    8     -1.33      0.00
  -13    9    8     -0.94      0.00
  -11    9    8     -0.18      0.00
   -9    9    8      0.17      0.00
   -7    9    8      0.02      0.00
   -5    9    8     -0.05      0.00
   -3    9    8      0.01      0.00
   -1    9    8      0.15      0.00
    1    9    8      0.57      0.00
    3    9    8      0.82      0.00
    5    9    8      0.63      0.00
    7    9    8      0.45      0.00
    9    9    8      0.15      0.00
   11    9    8     -0.74      0.00
   13    9    8     -1.26      0.00
   15    9    8     -0.32      0.00
   17    9    8      1.38      0.00
   19    9    8      2.64      0.00
   21    9    8      2.96      0.00
  -18   10    8     -0.93      0.00
  -16   10    8     -1.08      0.00
  -14   10    8     -0.62      0.00
  -12   10    8      0.24      0.00
  -10   10    8      0.34      0.00
   -8   10    8     -0.55      0.00
   -6   10    8     -0.93      0.00
   -4   10    8     -0.19      0.00
   -2   10    8      0.51      0.00
    0   10    8      0.39      0.00
    2   10    8     -0.36      0.00
    4   10    8     -1.30      0.00
    6   10    8     -1.36      0.00
    8   10    8     -0.29      0.00
   10   10    8      0.44      0.00
   12   10    8      0.17      0.00
   14   10    8      0.11      0.00
   16   10    8      0.78      0.00
   18   10    8      1.61      0.00
  -15   11    8     -0.64      0.00
  -13   11    8     -1.05      0.00
  -11   11    8     -1.22      0.00
   -9   11    8     -1.52      0.00
   -7   11    8     -1.39      0.00
   -5   11    8     -0.26      0.00
   -3   11    8      0.83      0.00
   -1   11    8      0.75      0.00
    1   11    8     -0.23      0.00
    3   11    8     -1.28      0.00
    5   11    8     -1.47      0.00
    7   11    8     -0.30      0.00
    9   11    8      1.14      0.00
   11   11    8      1.38      0.00
   13   11    8      0.78      0.00
   -8   12    8     -2.83      0.00
   -6   12    8     -1.67      0.00
   -4   12    8      0.15      0.00
   -2   12    8      0.96      0.00
    0   12    8      0.48      0.00
    2   12    8     -0.09      0.00
    4   12    8      0.27      0.00
    6   12    8      1.44      0.00
    8   12    8      2.16      0.00
  -29    1    9      0.10      0.00
  -27    1    9     -0.75      0.00
  -25    1    9     -1.94      0.00
  -23    1    9     -2.05      0.00
  -21    1    9     -0.63      0.00
  -19    1    9      1.12      0.00
  -17    1    9      1.87      0.00
  -15    1    9      1.03      0.00
  -13    1    9     -0.95      0.00
  -11    1    9     -1.78      0.00
   -9    1    9      0.50      0.00
   -7    1    9      3.76      0.00
   -5    1    9      4.02      0.00
   -3    1    9      1.08      0.00
    1    1    9     -0.35      0.00
    3    1    9      2.56      0.00
    5    1    9      3.46      0.00
    7    1    9      1.12      0.00
    9    1    9     -1.12      0.00
   11    1    9     -0.70      0.00
   13    1    9      0.48      0.00
   15    1    9     -0.09      0.00
   17    1    9     -1.76      0.00
   19    1    9     -2.49      0.00
   21    1    9     -1.56      0.00
   23    1    9      0.17      0.00
   25    1    9      1.34      0.00
   27    1    9      1.59      0.00
   29    1    9      1.57      0.00
  -30    2    9      0.86      0.00
  -28    2    9      1.35      0.00
  -26    2    9      0.70      0.00
  -24    2    9     -0.55      0.00
  -22    2    9     -0.71      0.00
  -20    2    9      0.16      0.00
  -18    2    9      0.63      0.00
  -16    2    9      0.33      0.00
  -14    2    9      0.00      0.00
  -12    2    9      0.54      0.00
  -10    2    9      2.38      0.00
   -8    2    9      3.61      0.00
   -6    2    9      1.65      0.00
   -4    2    9     -2.08      0.00
   -2    2    9     -3.59      0.00
    0    2    9     -1.70      0.00
    2    2    9      1.33      0.00
    4    2    9      2.70      0.00
    6    2    9      1.37      0.00
    8    2    9     -0.50      0.00
   10    2    9     -0.19      0.00
   12    2    9      1.19      0.00
   14    2    9      0.77      0.00
   16    2    9     -1.11      0.00
   18    2    9     -2.14      0.00
   20    2    9     -1.52      0.00
   22    2    9      0.00      0.00
   24    2    9      1.01      0.00
   26    2    9      0.73      0.00
   28    2    9      0.22      0.00
  -29    3    9      0.38      0.00
  -27    3    9      0.83      0.00
  -25    3    9      0.63      0.00
  -23    3    9      0.39      0.00
  -21    3    9      0.61      0.00
  -19    3    9      0.28      0.00
  -17    3    9     -0.68      0.00
  -15    3    9     -0.71      0.00
  -13    3    9      0.70      0.00
  -11    3    9      2.14      0.00
   -9    3    9      1.59      0.00
   -7    3    9     -1.49      0.00
   -5    3    9     -4.09      0.00
   -3    3    9     -2.60      0.00
   -1    3    9      1.45      0.00
    1    3    9      3.41      0.00
    3    3    9      2.16      0.00
    5    3    9      0.12      0.00
    7    3    9     -0.56      0.00
    9    3    9      0.73      0.00
   11    3    9      2.43      0.00
   13    3    9      2.11      0.00
   15    3    9      0.20      0.00
   17    3    9     -0.89      0.00
   19    3    9     -0.62      0.00
   21    3    9      0.02      0.00
   23    3    9      0.46      0.00
   25    3    9      0.40      0.00
   27    3    9      0.07      0.00
   29    3    9      0.30      0.00
  -28    4    9      0.05      0.00
  -26    4    9     -0.18      0.00
  -24    4    9     -0.20      0.00
  -22    4    9      0.51      0.00
  -20    4    9      0.87      0.00
  -18    4    9     -0.19      0.00
  -16    4    9     -1.49      0.00
  -14    4    9     -1.47      0.00
  -12    4    9     -0.58      0.00
  -10    4    9     -0.36      0.00
   -8    4    9     -1.79      0.00
   -6    4    9     -3.85      0.00
   -4    4    9     -3.83      0.00
   -2    4    9     -1.14      0.00
    0    4    9      1.52      0.00
    2    4    9      2.17      0.00
    4    4    9      1.55      0.00
    6    4    9      0.95      0.00
    8    4    9      1.22      0.00
   10    4    9      2.34      0.00
   12    4    9      2.76      0.00
   14    4    9      1.64      0.00
   16    4    9      0.42      0.00
   18    4    9      0.18      0.00
   20    4    9      0.32      0.00
   22    4    9      0.31      0.00
   24    4    9      0.29      0.00
   26    4    9      0.33      0.00
   28    4    9      0.54      0.00
  -27    5    9      0.35      0.00
  -25    5    9     -0.65      0.00
  -23    5    9     -0.63      0.00
  -21    5    9      0.54      0.00
  -19    5    9      1.21      0.00
  -17    5    9      0.35      0.00
  -15    5    9     -1.15      0.00
  -13    5    9     -1.82      0.00
  -11    5    9     -1.21      0.00
   -9    5    9     -0.67      0.00
   -7    5    9     -2.20      0.00
   -5    5    9     -5.49      0.00
   -1    5    9     -5.71      0.00
    1    5    9     -1.49      0.00
    3    5    9      1.98      0.00
    7    5    9      1.15      0.00
    9    5    9      0.43      0.00
   11    5    9      1.17      0.00
   13    5    9      1.89      0.00
   15    5    9      1.71      0.00
   17    5    9      1.03      0.00
   19    5    9      0.39      0.00
   21    5    9      0.00      0.00
   23    5    9     -0.22      0.00
   25    5    9     -0.50      0.00
   27    5    9     -0.69      0.00
  -26    6    9      0.04      0.00
  -24    6    9      0.15      0.00
  -22    6    9      0.60      0.00
  -20    6    9      0.87      0.00
  -18    6    9      0.30      0.00
  -16    6    9     -0.87      0.00
  -14    6    9     -1.50      0.00
  -12    6    9     -0.80      0.00
  -10    6    9      0.49      0.00
   -8    6    9      0.58      0.00
   -6    6    9     -1.23      0.00
   -4    6    9     -3.39      0.00
   -2    6    9     -3.58      0.00
    0    6    9     -1.40      0.00
    2    6    9      1.05      0.00
    4    6    9      1.55      0.00
    6    6    9      0.30      0.00
    8    6    9     -0.76      0.00
   10    6    9     -0.77      0.00
   12    6    9     -0.26      0.00
   14    6    9      0.13      0.00
   16    6    9      0.10      0.00
   18    6    9     -0.25      0.00
   20    6    9     -0.30      0.00
   22    6    9      0.04      0.00
   24    6    9      0.05      0.00
   26    6    9     -0.41      0.00
  -25    7    9      1.12      0.00
  -23    7    9      1.78      0.00
  -21    7    9      1.35      0.00
  -19    7    9      0.13      0.00
  -17    7    9     -0.91      0.00
  -15    7    9     -0.82      0.00
  -13    7    9      0.36      0.00
  -11    7    9      1.28      0.00
   -9    7    9      0.92      0.00
   -7    7    9      0.04      0.00
   -5    7    9     -0.03      0.00
   -3    7    9      0.69      0.00
   -1    7    9      1.31      0.00
    1    7    9      1.27      0.00
    3    7    9      0.51      0.00
    5    7    9     -0.35      0.00
    7    7    9     -0.53      0.00
    9    7    9     -0.30      0.00
   11    7    9     -0.42      0.00
   13    7    9     -0.68      0.00
   15    7    9     -0.70      0.00
   17    7    9     -0.67      0.00
   19    7    9     -0.36      0.00
   21    7    9      0.37      0.00
   23    7    9      0.80      0.00
  -22    8    9      1.24      0.00
  -20    8    9      0.66      0.00
  -18    8    9     -0.18      0.00
  -16    8    9     -0.72      0.00
  -14    8    9     -0.29      0.00
  -12    8    9      0.89      0.00
  -10    8    9      1.46      0.00
   -8    8    9      0.82      0.00
   -6    8    9     -0.14      0.00
   -4    8    9     -0.57      0.00
   -2    8    9     -0.39      0.00
    0    8    9      0.14      0.00
    2    8    9      0.40      0.00
    4    8    9     -0.04      0.00
    6    8    9     -0.54      0.00
    8    8    9     -0.38      0.00
   10    8    9      0.08      0.00
   12    8    9      0.35      0.00
   14    8    9      0.27      0.00
   16    8    9     -0.31      0.00
   18    8    9     -1.06      0.00
   20    8    9     -1.24      0.00
   22    8    9     -0.89      0.00
  -21    9    9      0.93      0.00
  -19    9    9     -0.02      0.00
  -17    9    9     -1.42      0.00
  -15    9    9     -2.20      0.00
  -13    9    9     -1.33      0.00
  -11    9    9      0.66      0.00
   -9    9    9      1.98      0.00
   -7    9    9      1.40      0.00
   -5    9    9     -0.44      0.00
   -3    9    9     -1.74      0.00
   -1    9    9     -1.24      0.00
    1    9    9      0.31      0.00
    3    9    9      1.20      0.00
    5    9    9      0.83      0.00
    7    9    9      0.08      0.00
    9    9    9     -0.30      0.00
   11    9    9     -0.19      0.00
   13    9    9      0.24      0.00
   15    9    9      0.55      0.00
   17    9    9      0.24      0.00
   19    9    9     -0.59      0.00
  -18   10    9     -2.17      0.00
  -16   10    9     -2.68      0.00
  -14   10    9     -1.27      0.00
  -12   10    9      0.90      0.00
  -10   10    9      2.09      0.00
   -8   10    9      1.62      0.00
   -6   10    9      0.11      0.00
   -4   10    9     -1.03      0.00
   -2   10    9     -0.84      0.00
    0   10    9      0.20      0.00
    2   10    9      0.99      0.00
    4   10    9      1.11      0.00
    6   10    9      0.68      0.00
    8   10    9     -0.17      0.00
   10   10    9     -0.88      0.00
   12   10    9     -0.76      0.00
   14   10    9      0.28      0.00
   16   10    9      1.54      0.00
  -13   11    9      0.52      0.00
  -11   11    9      1.91      0.00
   -9   11    9      1.69      0.00
   -7   11    9      0.70      0.00
   -5   11    9      0.10      0.00
   -3   11    9      0.39      0.00
   -1   11    9      0.69      0.00
    1   11    9     -0.07      0.00
    3   11    9     -1.21      0.00
    5   11    9     -1.52      0.00
    7   11    9     -1.09      0.00
    9   11    9     -0.49      0.00
   11   11    9      0.15      0.00
   13   11    9      0.63      0.00
   -6   12    9      0.59      0.00
   -4   12    9      1.17      0.00
   -2   12    9      1.92      0.00
    0   12    9      1.11      0.00
    2   12    9     -1.30      0.00
    4   12    9     -3.02      0.00
    6   12    9     -2.74      0.00
  -30    0   10      1.50      0.00
  -28    0   10      1.58      0.00
  -26    0   10      1.71      0.00
  -24    0   10      1.62      0.00
  -22    0   10      0.83      0.00
  -20    0   10     -1.02      0.00
  -18    0   10     -3.04      0.00
  -16    0   10     -3.34      0.00
  -14    0   10     -1.25      0.00
  -12    0   10      1.69      0.00
  -10    0   10      2.86      0.00
   -8    0   10      0.72      0.00
   -6    0   10     -2.85      0.00
   -4    0   10     -4.51      0.00
    0    0   10     -5.04      0.00
    2    0   10     -5.88      0.00
    4    0   10     -3.91      0.00
    8    0   10      4.42      0.00
   10    0   10      4.09      0.00
   12    0   10      0.77      0.00
   14    0   10     -1.57      0.00
   16    0   10     -0.80      0.00
   18    0   10      0.91      0.00
   20    0   10      0.88      0.00
   22    0   10     -0.48      0.00
   24    0   10     -1.53      0.00
   26    0   10     -1.84      0.00
   28    0   10     -1.74      0.00
  -29    1   10      0.23      0.00
  -27    1   10     -0.06      0.00
  -25    1   10      0.08      0.00
  -23    1   10      0.70      0.00
  -21    1   10      0.94      0.00
  -19    1   10      0.28      0.00
  -17    1   10     -0.30      0.00
  -15    1   10      0.18      0.00
  -13    1   10      1.13      0.00
  -11    1   10      1.18      0.00
   -9    1   10     -0.55      0.00
   -7    1   10     -3.50      0.00
   -5    1   10     -5.47      0.00
   -3    1   10     -5.19      0.00
   -1    1   10     -3.99      0.00
    1    1   10     -3.16      0.00
    3    1   10     -1.88      0.00
    5    1   10      0.57      0.00
    7    1   10      3.13      0.00
    9    1   10      4.01      0.00
   11    1   10      2.40      0.00
   13    1   10     -0.28      0.00
   15    1   10     -1.51      0.00
   17    1   10     -0.87      0.00
   19    1   10     -0.18      0.00
   21    1   10     -0.44      0.00
   23    1   10     -0.88      0.00
   25    1   10     -0.80      0.00
   27    1   10     -0.44      0.00
   29    1   10     -0.35      0.00
  -30    2   10      0.05      0.00
  -28    2   10     -0.14      0.00
  -26    2   10     -0.78      0.00
  -24    2   10     -0.74      0.00
  -22    2   10      0.23      0.00
  -20    2   10      1.10      0.00
  -18    2   10      1.24      0.00
  -16    2   10      1.17      0.00
  -14    2   10      1.42      0.00
  -12    2   10      1.77      0.00
  -10    2   10      1.28      0.00
   -8    2   10     -0.78      0.00
   -6    2   10     -3.66      0.00
   -4    2   10     -5.05      0.00
   -2    2   10     -3.41      0.00
    0    2   10      0.22      0.00
    2    2   10      3.04      0.00
    4    2   10      3.19      0.00
    6    2   10      1.61      0.00
    8    2   10      0.58      0.00
   10    2   10      0.41      0.00
   12    2   10     -0.25      0.00
   14    2   10     -1.61      0.00
   16    2   10     -2.43      0.00
   18    2   10     -2.06      0.00
   20    2   10     -1.02      0.00
   22    2   10     -0.17      0.00
   24    2   10      0.16      0.00
   26    2   10      0.24      0.00
   28    2   10      0.12      0.00
  -29    3   10      1.15      0.00
  -27    3   10      0.93      0.00
  -25    3   10     -0.02      0.00
  -23    3   10     -0.64      0.00
  -21    3   10     -0.51      0.00
  -19    3   10     -0.23      0.00
  -17    3   10     -0.36      0.00
  -15    3   10     -0.11      0.00
  -13    3   10      1.70      0.00
  -11    3   10      3.99      0.00
   -9    3   10      3.98      0.00
   -7    3   10      1.16      0.00
   -5    3   10     -1.40      0.00
   -3    3   10     -0.52      0.00
   -1    3   10      3.34      0.00
    1    3   10      6.28      0.00
    3    3   10      5.01      0.00
    5    3   10      0.83      0.00
    7    3   10     -2.19      0.00
    9    3   10     -2.51      0.00
   11    3   10     -1.88      0.00
   13    3   10     -1.78      0.00
   15    3   10     -2.05      0.00
   17    3   10     -1.95      0.00
   19    3   10     -1.03      0.00
   21    3   10      0.09      0.00
   23    3   10      0.24      0.00
   25    3   10     -0.49      0.00
   27    3   10     -1.08      0.00
  -28    4   10      0.50      0.00
  -26    4   10      0.39      0.00
  -24    4   10      0.21      0.00
  -22    4   10      0.03      0.00
  -20    4   10     -0.07      0.00
  -18    4   10     -0.26      0.00
  -16    4   10     -0.46      0.00
  -14    4   10      0.26      0.00
  -12    4   10      1.85      0.00
  -10    4   10      2.36      0.00
   -8    4   10      1.24      0.00
   -6    4   10      0.73      0.00
   -4    4   10      2.33      0.00
   -2    4   10      4.66      0.00
    0    4   10      5.44      0.00
    2    4   10      3.72      0.00
    4    4   10      0.82      0.00
    6    4   10     -0.79      0.00
    8    4   10     -0.71      0.00
   10    4   10     -0.67      0.00
   12    4   10     -1.23      0.00
   14    4   10     -1.54      0.00
   16    4   10     -1.45      0.00
   18    4   10     -1.04      0.00
   20    4   10     -0.27      0.00
   22    4   10      0.04      0.00
   24    4   10     -0.45      0.00
   26    4   10     -0.67      0.00
   28    4   10     -0.23      0.00
  -27    5   10     -0.03      0.00
  -25    5   10     -0.10      0.00
  -23    5   10      0.16      0.00
  -21    5   10      0.32      0.00
  -19    5   10      0.25      0.00
  -17    5   10     -0.15      0.00
  -15    5   10     -0.58      0.00
  -13    5   10     -0.52      0.00
  -11    5   10     -0.40      0.00
   -9    5   10     -0.67      0.00
   -7    5   10     -0.49      0.00
   -5    5   10      0.37      0.00
   -3    5   10      0.50      0.00
   -1    5   10     -0.37      0.00
    1    5   10     -0.96      0.00
    3    5   10     -0.70      0.00
    5    5   10      0.14      0.00
    7    5   10      1.01      0.00
    9    5   10      0.96      0.00
   11    5   10      0.07      0.00
   13    5   10     -0.43      0.00
   15    5   10     -0.28      0.00
   17    5   10     -0.05      0.00
   19    5   10      0.34      0.00
   21    5   10      0.57      0.00
   23    5   10      0.03      0.00
   25    5   10     -0.45      0.00
   27    5   10     -0.02      0.00
  -26    6   10     -0.76      0.00
  -24    6   10     -0.89      0.00
  -22    6   10     -0.30      0.00
  -20    6   10      0.33      0.00
  -18    6   10      0.19      0.00
  -16    6   10     -0.88      0.00
  -14    6   10     -1.79      0.00
  -12    6   10     -1.61      0.00
  -10    6   10     -0.98      0.00
   -8    6   10     -0.95      0.00
   -6    6   10     -1.74      0.00
   -4    6   10     -2.93      0.00
   -2    6   10     -3.40      0.00
    0    6   10     -2.29      0.00
    2    6   10     -0.65      0.00
    4    6   10     -0.11      0.00
    6    6   10     -0.37      0.00
    8    6   10     -0.37      0.00
   10    6   10     -0.02      0.00
   12    6   10      0.55      0.00
   14    6   10      1.18      0.00
   16    6   10      1.42      0.00
   18    6   10      1.30      0.00
   20    6   10      1.05      0.00
   22    6   10      0.32      0.00
   24    6   10     -0.62      0.00
  -23    7   10      0.61      0.00
  -21    7   10      1.22      0.00
  -19    7   10      0.87      0.00
  -17    7   10     -0.29      0.00
  -15    7   10     -1.22      0.00
  -13    7   10     -1.07      0.00
  -11    7   10     -0.36      0.00
   -9    7   10     -0.38      0.00
   -7    7   10     -1.39      0.00
   -5    7   10     -2.25      0.00
   -3    7   10     -1.79      0.00
   -1    7   10     -0.25      0.00
    1    7   10      0.76      0.00
    3    7   10      0.19      0.00
    5    7   10     -0.88      0.00
    7    7   10     -0.86      0.00
    9    7   10      0.11      0.00
   11    7   10      0.92      0.00
   13    7   10      1.19      0.00
   15    7   10      1.19      0.00
   17    7   10      1.11      0.00
   19    7   10      0.91      0.00
   21    7   10      0.49      0.00
   23    7   10      0.00      0.00
  -22    8   10      1.04      0.00
  -20    8   10      0.82      0.00
  -18    8   10      0.35      0.00
  -16    8   10      0.33      0.00
  -14    8   10      0.81      0.00
  -12    8   10      1.04      0.00
  -10    8   10      0.66      0.00
   -8    8   10     -0.02      0.00
   -6    8   10     -0.38      0.00
   -4    8   10     -0.08      0.00
   -2    8   10      0.44      0.00
    0    8   10      0.30      0.00
    2    8   10     -0.49      0.00
    4    8   10     -1.04      0.00
    6    8   10     -0.88      0.00
    8    8   10     -0.25      0.00
   10    8   10      0.43      0.00
   12    8   10      0.68      0.00
   14    8   10      0.36      0.00
   16    8   10     -0.09      0.00
   18    8   10     -0.34      0.00
   20    8   10     -0.45      0.00
   22    8   10     -0.27      0.00
  -19    9   10      0.64      0.00
  -17    9   10      0.78      0.00
  -15    9   10      0.63      0.00
  -13    9   10      0.02      0.00
  -11    9   10     -0.35      0.00
   -9    9   10      0.21      0.00
   -7    9   10      0.99      0.00
   -5    9   10      0.94      0.00
   -3    9   10      0.13      0.00
   -1    9   10     -0.82      0.00
    1    9   10     -1.23      0.00
    3    9   10     -0.65      0.00
    5    9   10      0.15      0.00
    7    9   10      0.24      0.00
    9    9   10      0.20      0.00
   11    9   10      0.52      0.00
   13    9   10      0.30      0.00
   15    9   10     -0.87      0.00
   17    9   10     -2.16      0.00
   19    9   10     -2.83      0.00
  -16   10   10      1.59      0.00
  -14   10   10      0.92      0.00
  -12   10   10     -0.11      0.00
  -10   10   10     -0.38      0.00
   -8   10   10     -0.04      0.00
   -6   10   10     -0.21      0.00
   -4   10   10     -0.90      0.00
   -2   10   10     -1.30      0.00
    0   10   10     -1.04      0.00
    2   10   10      0.07      0.00
    4   10   10      1.53      0.00
    6   10   10      1.86      0.00
    8   10   10      0.87      0.00
   10   10   10     -0.06      0.00
   12   10   10     -0.55      0.00
   14   10   10     -1.12      0.00
   16   10   10     -1.68      0.00
  -13   11   10      2.16      0.00
  -11   11   10      2.04      0.00
   -9   11   10      1.36      0.00
   -7   11   10      0.23      0.00
   -5   11   10     -0.80      0.00
   -3   11   10     -0.94      0.00
   -1   11   10     -0.45      0.00
    1   11   10      0.10      0.00
    3   11   10      0.66      0.00
    5   11   10      0.84      0.00
    7   11   10      0.14      0.00
    9   11   10     -0.77      0.00
   11   11   10     -1.13      0.00
   -4   12   10     -0.02      0.00
   -2   12   10     -0.23      0.00
    0   12   10     -0.18      0.00
    2   12   10     -0.48      0.00
    4   12   10     -1.17      0.00
  -29    1   11     -0.31      0.00
  -27    1   11      0.42      0.00
  -25    1   11      1.51      0.00
  -23    1   11      1.61      0.00
  -21    1   11      0.56      0.00
  -19    1   11     -0.75      0.00
  -17    1   11     -1.76      0.00
  -15    1   11     -2.02      0.00
  -13    1   11     -1.27      0.00
  -11    1   11     -0.57      0.00
   -9    1   11     -1.11      0.00
   -7    1   11     -2.30      0.00
   -5    1   11     -2.99      0.00
   -3    1   11     -3.20      0.00
   -1    1   11     -3.48      0.00
    1    1   11     -3.55      0.00
    3    1   11     -2.46      0.00
    5    1   11     -0.12      0.00
    7    1   11      1.29      0.00
    9    1   11     -0.20      0.00
   11    1   11     -2.71      0.00
   13    1   11     -2.71      0.00
   15    1   11     -0.17      0.00
   17    1   11      1.94      0.00
   19    1   11      1.95      0.00
   21    1   11      0.70      0.00
   23    1   11     -0.20      0.00
   25    1   11     -0.23      0.00
   27    1   11     -0.25      0.00
   29    1   11     -0.77      0.00
  -28    2   11     -1.55      0.00
  -26    2   11     -0.85      0.00
  -24    2   11      0.10      0.00
  -22    2   11     -0.07      0.00
  -20    2   11     -0.74      0.00
  -18    2   11     -0.82      0.00
  -16    2   11     -0.56      0.00
  -14    2   11     -0.58      0.00
  -12    2   11     -1.08      0.00
  -10    2   11     -1.59      0.00
   -8    2   11     -1.14      0.00
   -6    2   11     -0.34      0.00
   -4    2   11     -1.39      0.00
   -2    2   11     -4.09      0.00
    0    2   11     -5.23      0.00
    2    2   11     -2.98      0.00
    4    2   11      1.05      0.00
    6    2   11      3.63      0.00
    8    2   11      2.56      0.00
   10    2   11     -0.68      0.00
   12    2   11     -2.05      0.00
   14    2   11     -0.37      0.00
   16    2   11      1.49      0.00
   18    2   11      1.42      0.00
   20    2   11      0.14      0.00
   22    2   11     -0.70      0.00
   24    2   11     -0.23      0.00
   26    2   11      0.72      0.00
   28    2   11      0.56      0.00
  -29    3   11     -0.47      0.00
  -27    3   11     -0.45      0.00
  -25    3   11     -0.15      0.00
  -23    3   11     -0.38      0.00
  -21    3   11     -0.96      0.00
  -19    3   11     -0.74      0.00
  -17    3   11      0.11      0.00
  -15    3   11      0.35      0.00
  -13    3   11     -0.21      0.00
  -11    3   11     -0.37      0.00
   -9    3   11      1.25      0.00
   -7    3   11      3.61      0.00
   -5    3   11      3.04      0.00
   -1    3   11     -4.87      0.00
    1    3   11     -3.46      0.00
    3    3   11      0.74      0.00
    5    3   11      3.28      0.00
    7    3   11      2.39      0.00
    9    3   11     -0.31      0.00
   11    3   11     -1.72      0.00
   13    3   11     -0.78      0.00
   15    3   11      0.29      0.00
   17    3   11     -0.09      0.00
   19    3   11     -0.90      0.00
   21    3   11     -0.97      0.00
   23    3   11     -0.42      0.00
   25    3   11      0.23      0.00
   27    3   11      0.20      0.00
  -28    4   11      0.34      0.00
  -26    4   11      0.98      0.00
  -24    4   11      0.77      0.00
  -22    4   11     -0.15      0.00
  -20    4   11     -0.42      0.00
  -18    4   11      0.42      0.00
  -16    4   11      1.22      0.00
  -14    4   11      1.27      0.00
  -12    4   11      1.06      0.00
  -10    4   11      1.41      0.00
   -8    4   11      2.65      0.00
   -6    4   11      3.53      0.00
   -4    4   11      2.31      0.00
   -2    4   11     -0.21      0.00
    0    4   11     -1.48      0.00
    2    4   11     -0.96      0.00
    4    4   11     -0.17      0.00
    6    4   11     -0.25      0.00
    8    4   11     -1.32      0.00
   10    4   11     -2.34      0.00
   12    4   11     -2.04      0.00
   14    4   11     -0.90      0.00
   16    4   11     -0.46      0.00
   18    4   11     -0.66      0.00
   20    4   11     -0.54      0.00
   22    4   11     -0.18      0.00
   24    4   11     -0.19      0.00
   26    4   11     -0.72      0.00
  -27    5   11      0.42      0.00
  -25    5   11      1.46      0.00
  -23    5   11      1.21      0.00
  -21    5   11      0.15      0.00
  -19    5   11     -0.28      0.00
  -17    5   11      0.29      0.00
  -15    5   11      1.00      0.00
  -13    5   11      1.14      0.00
  -11    5   11      0.74      0.00
   -9    5   11      0.72      0.00
   -7    5   11      2.08      0.00
   -5    5   11      4.01      0.00
   -3    5   11      4.25      0.00
   -1    5   11      1.94      0.00
    1    5   11     -1.18      0.00
    3    5   11     -2.52      0.00
    5    5   11     -1.49      0.00
    7    5   11     -0.12      0.00
    9    5   11     -0.32      0.00
   11    5   11     -1.43      0.00
   13    5   11     -1.75      0.00
   15    5   11     -1.12      0.00
   17    5   11     -0.38      0.00
   19    5   11      0.04      0.00
   21    5   11      0.27      0.00
   23    5   11      0.41      0.00
   25    5   11      0.36      0.00
  -24    6   11      0.47      0.00
  -22    6   11      0.27      0.00
  -20    6   11      0.02      0.00
  -18    6   11      0.21      0.00
  -16    6   11      0.44      0.00
  -14    6   11      0.09      0.00
  -12    6   11     -0.53      0.00
  -10    6   11     -0.49      0.00
   -8    6   11      0.61      0.00
   -6    6   11      2.07      0.00
   -4    6   11      2.48      0.00
   -2    6   11      1.06      0.00
    0    6   11     -1.11      0.00
    2    6   11     -1.94      0.00
    4    6   11     -0.86      0.00
    6    6   11      0.46      0.00
    8    6   11      0.45      0.00
   10    6   11     -0.49      0.00
   12    6   11     -1.08      0.00
   14    6   11     -0.77      0.00
   16    6   11      0.03      0.00
   18    6   11      0.45      0.00
   20    6   11      0.28      0.00
   22    6   11      0.20      0.00
   24    6   11      0.61      0.00
  -23    7   11     -1.35      0.00
  -21    7   11     -0.50      0.00
  -19    7   11      0.42      0.00
  -17    7   11      0.69      0.00
  -15    7   11     -0.20      0.00
  -13    7   11     -1.54      0.00
  -11    7   11     -1.80      0.00
   -9    7   11     -0.73      0.00
   -7    7   11      0.26      0.00
   -5    7   11      0.16      0.00
   -3    7   11     -0.63      0.00
   -1    7   11     -1.22      0.00
    1    7   11     -0.93      0.00
    3    7   11      0.06      0.00
    5    7   11      0.56      0.00
    7    7   11      0.03      0.00
    9    7   11     -0.57      0.00
   11    7   11     -0.44      0.00
   13    7   11      0.20      0.00
   15    7   11      0.86      0.00
   17    7   11      0.98      0.00
   19    7   11      0.19      0.00
   21    7   11     -0.67      0.00
   23    7   11     -0.59      0.00
  -22    8   11     -1.05      0.00
  -20    8   11     -0.61      0.00
  -18    8   11      0.04      0.00
  -16    8   11      0.52      0.00
  -14    8   11      0.13      0.00
  -12    8   11     -0.88      0.00
  -10    8   11     -1.41      0.00
   -8    8   11     -0.98      0.00
   -6    8   11      0.02      0.00
   -4    8   11      0.81      0.00
   -2    8   11      0.62      0.00
    0    8   11     -0.32      0.00
    2    8   11     -0.75      0.00
    4    8   11     -0.24      0.00
    6    8   11      0.25      0.00
    8    8   11      0.22      0.00
   10    8   11      0.08      0.00
   12    8   11      0.21      0.00
   14    8   11      0.80      0.00
   16    8   11      1.52      0.00
   18    8   11      1.46      0.00
   20    8   11      0.55      0.00
  -19    9   11     -0.40      0.00
  -17    9   11      0.60      0.00
  -15    9   11      1.13      0.00
  -13    9   11      0.25      0.00
  -11    9   11     -1.27      0.00
   -9    9   11     -1.71      0.00
   -7    9   11     -0.24      0.00
   -5    9   11      2.00      0.00
   -3    9   11      2.78      0.00
   -1    9   11      1.34      0.00
    1    9   11     -0.60      0.00
    3    9   11     -1.17      0.00
    5    9   11     -0.55      0.00
    7    9   11      0.14      0.00
    9    9   11      0.42      0.00
   11    9   11      0.32      0.00
   13    9   11      0.12      0.00
   15    9   11      0.15      0.00
   17    9   11      0.27      0.00
   19    9   11      0.26      0.00
  -16   10   11      1.46      0.00
  -14   10   11     -0.34      0.00
  -12   10   11     -2.11      0.00
  -10   10   11     -2.25      0.00
   -8   10   11     -0.67      0.00
   -6   10   11      1.22      0.00
   -4   10   11      1.79      0.00
   -2   10   11      0.81      0.00
    0   10   11     -0.34      0.00
    2   10   11     -0.61      0.00
    4   10   11     -0.34      0.00
    6   10   11     -0.02      0.00
    8   10   11      0.36      0.00
   10   10   11      0.61      0.00
   12   10   11      0.34      0.00
   14   10   11     -0.48      0.00
  -11   11   11     -1.52      0.00
   -9   11   11     -0.70      0.00
   -7   11   11      0.30      0.00
   -5   11   11      0.26      0.00
   -3   11   11     -0.67      0.00
   -1   11   11     -0.96      0.00
    1   11   11      0.16      0.00
    3   11   11      1.44      0.00
    5   11   11      1.64      0.00
    7   11   11      0.99      0.00
    9   11   11      0.14      0.00
   11   11   11     -0.52      0.00
  -28    0   12     -1.12      0.00
  -26    0   12     -0.83      0.00
  -24    0   12     -0.76      0.00
  -22    0   12     -0.37      0.00
  -20    0   12      1.00      0.00
  -18    0   12      2.90      0.00
  -16    0   12      4.19      0.00
  -14    0   12      3.91      0.00
  -12    0   12      2.00      0.00
  -10    0   12      0.38      0.00
   -8    0   12      1.35      0.00
   -6    0   12      3.96      0.00
   -4    0   12      5.32      0.00
   -2    0   12      4.62      0.00
    0    0   12      2.65      0.00
    2    0   12     -0.16      0.00
    4    0   12     -2.56      0.00
    6    0   12     -2.69      0.00
   10    0   12      2.41      0.00
   12    0   12      3.34      0.00
   14    0   12      1.65      0.00
   16    0   12     -0.47      0.00
   18    0   12     -0.55      0.00
   20    0   12      0.62      0.00
   22    0   12      0.89      0.00
   24    0   12      0.22      0.00
   26    0   12     -0.23      0.00
   28    0   12     -0.04      0.00
  -29    1   12     -0.26      0.00
  -27    1   12      0.22      0.00
  -25    1   12      0.37      0.00
  -23    1   12      0.03      0.00
  -21    1   12     -0.06      0.00
  -19    1   12      0.39      0.00
  -17    1   12      0.74      0.00
  -15    1   12      0.60      0.00
  -13    1   12     -0.01      0.00
  -11    1   12     -0.60      0.00
   -9    1   12      0.16      0.00
   -7    1   12      2.70      0.00
   -5    1   12      5.15      0.00
   -3    1   12      5.60      0.00
   -1    1   12      3.84      0.00
    1    1   12      0.74      0.00
    3    1   12     -1.98      0.00
    5    1   12     -2.59      0.00
    7    1   12     -1.35      0.00
    9    1   12      0.18      0.00
   11    1   12      1.05      0.00
   13    1   12      0.89      0.00
   15    1   12      0.09      0.00
   17    1   12     -0.14      0.00
   19    1   12      0.48      0.00
   21    1   12      0.84      0.00
   23    1   12      0.33      0.00
   25    1   12     -0.42      0.00
   27    1   12     -0.73      0.00
  -28    2   12     -0.57      0.00
  -26    2   12      0.08      0.00
  -24    2   12      0.51      0.00
  -22    2   12      0.22      0.00
  -20    2   12     -0.28      0.00
  -18    2   12     -0.63      0.00
  -16    2   12     -0.97      0.00
  -14    2   12     -1.54      0.00
  -12    2   12     -2.30      0.00
  -10    2   12     -2.28      0.00
   -8    2   12     -0.46      0.00
   -6    2   12      2.36      0.00
   -4    2   12      3.71      0.00
   -2    2   12      2.03      0.00
    0    2   12     -1.54      0.00
    2    2   12     -3.79      0.00
    4    2   12     -2.74      0.00
    6    2   12     -0.23      0.00
    8    2   12      0.67      0.00
   10    2   12     -0.04      0.00
   12    2   12     -0.27      0.00
   14    2   12      0.55      0.00
   16    2   12      1.37      0.00
   18    2   12      1.34      0.00
   20    2   12      0.63      0.00
   22    2   12      0.07      0.00
   24    2   12     -0.03      0.00
   26    2   12     -0.03      0.00
   28    2   12     -0.02      0.00
  -27    3   12     -1.95      0.00
  -25    3   12     -0.67      0.00
  -23    3   12      0.38      0.00
  -21    3   12      0.32      0.00
  -19    3   12     -0.11      0.00
  -17    3   12     -0.03      0.00
  -15    3   12     -0.03      0.00
  -13    3   12     -1.15      0.00
  -11    3   12     -2.37      0.00
   -9    3   12     -1.67      0.00
   -7    3   12      0.55      0.00
   -5    3   12      1.30      0.00
   -3    3   12     -1.14      0.00
   -1    3   12     -4.90      0.00
    1    3   12     -6.18      0.00
    3    3   12     -3.44      0.00
    5    3   12      0.62      0.00
    7    3   12      2.43      0.00
    9    3   12      1.89      0.00
   11    3   12      1.17      0.00
   13    3   12      1.22      0.00
   15    3   12      1.46      0.00
   17    3   12      1.09      0.00
   19    3   12      0.11      0.00
   21    3   12     -0.43      0.00
   23    3   12      0.21      0.00
   25    3   12      1.22      0.00
   27    3   12      1.57      0.00
  -26    4   12     -1.13      0.00
  -24    4   12     -0.53      0.00
  -22    4   12      0.00      0.00
  -20    4   12      0.01      0.00
  -18    4   12     -0.10      0.00
  -16    4   12     -0.09      0.00
  -14    4   12     -0.49      0.00
  -12    4   12     -1.01      0.00
  -10    4   12     -0.48      0.00
   -8    4   12      0.64      0.00
   -6    4   12      0.28      0.00
   -4    4   12     -2.00      0.00
   -2    4   12     -4.17      0.00
    0    4   12     -4.03      0.00
    2    4   12     -1.59      0.00
    4    4   12      0.80      0.00
    6    4   12      1.26      0.00
    8    4   12      0.75      0.00
   10    4   12      0.89      0.00
   12    4   12      1.20      0.00
   14    4   12      0.82      0.00
   16    4   12      0.19      0.00
   18    4   12     -0.29      0.00
   20    4   12     -0.46      0.00
   22    4   12      0.00      0.00
   24    4   12      0.65      0.00
   26    4   12      0.66      0.00
  -25    5   12     -0.53      0.00
  -23    5   12     -0.61      0.00
  -21    5   12     -0.18      0.00
  -19    5   12      0.32      0.00
  -17    5   12      0.60      0.00
  -15    5   12      0.59      0.00
  -13    5   12      0.47      0.00
  -11    5   12      0.69      0.00
   -9    5   12      0.89      0.00
   -7    5   12      0.20      0.00
   -5    5   12     -0.94      0.00
   -3    5   12     -1.28      0.00
   -1    5   12     -0.67      0.00
    1    5   12      0.11      0.00
    3    5   12      0.51      0.00
    5    5   12      0.26      0.00
    7    5   12     -0.09      0.00
    9    5   12      0.24      0.00
   11    5   12      0.68      0.00
   13    5   12      0.36      0.00
   15    5   12     -0.21      0.00
   17    5   12     -0.40      0.00
   19    5   12     -0.46      0.00
   21    5   12     -0.34      0.00
   23    5   12     -0.12      0.00
   25    5   12     -0.37      0.00
  -24    6   12      0.45      0.00
  -22    6   12      0.07      0.00
  -20    6   12      0.12      0.00
  -18    6   12      0.61      0.00
  -16    6   12      1.13      0.00
  -14    6   12      1.22      0.00
  -12    6   12      1.04      0.00
  -10    6   12      1.13      0.00
   -8    6   12      1.55      0.00
   -6    6   12      1.97      0.00
   -4    6   12      1.97      0.00
   -2    6   12      1.02      0.00
    0    6   12     -0.47      0.00
    2    6   12     -0.92      0.00
    4    6   12      0.19      0.00
    6    6   12      1.43      0.00
    8    6   12      1.54      0.00
   10    6   12      0.60      0.00
   12    6   12     -0.65      0.00
   14    6   12     -1.30      0.00
   16    6   12     -1.07      0.00
   18    6   12     -0.63      0.00
   20    6   12     -0.36      0.00
   22    6   12     -0.06      0.00
   24    6   12      0.05      0.00
  -23    7   12     -0.46      0.00
  -21    7   12     -0.58      0.00
  -19    7   12     -0.06      0.00
  -17    7   12      0.47      0.00
  -15    7   12      0.25      0.00
  -13    7   12     -0.46      0.00
  -11    7   12     -0.55      0.00
   -9    7   12      0.54      0.00
   -7    7   12      2.06      0.00
   -5    7   12      2.62      0.00
   -3    7   12      1.63      0.00
   -1    7   12      0.05      0.00
    1    7   12     -0.38      0.00
    3    7   12      0.76      0.00
    5    7   12      1.95      0.00
    7    7   12      1.65      0.00
    9    7   12      0.00      0.00
   11    7   12     -1.66      0.00
   13    7   12     -2.28      0.00
   15    7   12     -1.85      0.00
   17    7   12     -1.03      0.00
   19    7   12     -0.29      0.00
   21    7   12      0.26      0.00
  -20    8   12     -0.38      0.00
  -18    8   12      0.13      0.00
  -16    8   12     -0.08      0.00
  -14    8   12     -0.67      0.00
  -12    8   12     -0.89      0.00
  -10    8   12     -0.56      0.00
   -8    8   12     -0.03      0.00
   -6    8   12      0.27      0.00
   -4    8   12      0.10      0.00
   -2    8   12     -0.18      0.00
    0    8   12     -0.13      0.00
    2    8   12      0.16      0.00
    4    8   12      0.44      0.00
    6    8   12      0.52      0.00
    8    8   12      0.09      0.00
   10    8   12     -0.79      0.00
   12    8   12     -1.30      0.00
   14    8   12     -0.94      0.00
   16    8   12     -0.13      0.00
   18    8   12      0.63      0.00
   20    8   12      1.02      0.00
  -17    9   12     -0.52      0.00
  -15    9   12      0.07      0.00
  -13    9   12      0.74      0.00
  -11    9   12      0.75      0.00
   -9    9   12      0.04      0.00
   -7    9   12     -0.39      0.00
   -5    9   12     -0.06      0.00
   -3    9   12      0.47      0.00
   -1    9   12      0.59      0.00
    1    9   12     -0.06      0.00
    3    9   12     -1.09      0.00
    5    9   12     -1.30      0.00
    7    9   12     -0.59      0.00
    9    9   12     -0.18      0.00
   11    9   12     -0.24      0.00
   13    9   12      0.21      0.00
   15    9   12      1.25      0.00
   17    9   12      2.17      0.00
  -14   10   12     -1.19      0.00
  -12   10   12     -0.94      0.00
  -10   10   12     -0.74      0.00
   -8   10   12     -0.10      0.00
   -6   10   12      1.04      0.00
   -4   10   12      1.78      0.00
   -2   10   12      1.71      0.00
    0   10   12      1.04      0.00
    2   10   12     -0.20      0.00
    4   10   12     -1.35      0.00
    6   10   12     -1.36      0.00
    8   10   12     -0.44      0.00
   10   10   12      0.44      0.00
   12   10   12      1.16      0.00
   14   10   12      1.62      0.00
   -9   11   12     -1.18      0.00
   -7   11   12      0.25      0.00
   -5   11   12      0.80      0.00
   -3   11   12      0.27      0.00
   -1   11   12     -0.22      0.00
    1   11   12     -0.19      0.00
    3   11   12     -0.21      0.00
    5   11   12     -0.31      0.00
    7   11   12     -0.11      0.00
    9   11   12      0.34      0.00
  -27    1   13      0.97      0.00
  -25    1   13     -0.12      0.00
  -23    1   13     -0.76      0.00
  -21    1   13     -0.55      0.00
  -19    1   13      0.27      0.00
  -17    1   13      1.21      0.00
  -15    1   13      1.36      0.00
  -13    1   13      0.35      0.00
  -11    1   13     -0.65      0.00
   -9    1   13     -0.21      0.00
   -7    1   13      1.70      0.00
   -5    1   13      3.88      0.00
   -3    1   13      4.86      0.00
   -1    1   13      3.92      0.00
    1    1   13      1.54      0.00
    3    1   13     -1.09      0.00
    5    1   13     -2.38      0.00
    7    1   13     -0.90      0.00
    9    1   13      2.42      0.00
   11    1   13      4.22      0.00
   13    1   13      2.77      0.00
   15    1   13      0.16      0.00
   17    1   13     -1.00      0.00
   19    1   13     -0.57      0.00
   21    1   13     -0.07      0.00
   23    1   13     -0.46      0.00
   25    1   13     -1.13      0.00
   27    1   13     -0.91      0.00
  -28    2   13      1.80      0.00
  -26    2   13      0.84      0.00
  -24    2   13     -0.17      0.00
  -22    2   13     -0.02      0.00
  -20    2   13      0.76      0.00
  -18    2   13      1.22      0.00
  -16    2   13      1.08      0.00
  -14    2   13      0.48      0.00
  -12    2   13     -0.23      0.00
  -10    2   13     -0.91      0.00
   -8    2   13     -1.20      0.00
   -6    2   13      0.26      0.00
   -4    2   13      3.69      0.00
   -2    2   13      6.15      0.00
    0    2   13      4.66      0.00
    2    2   13      0.18      0.00
    6    2   13     -3.41      0.00
    8    2   13      0.03      0.00
   10    2   13      2.96      0.00
   12    2   13      2.43      0.00
   14    2   13     -0.07      0.00
   16    2   13     -1.37      0.00
   18    2   13     -0.85      0.00
   20    2   13      0.00      0.00
   22    2   13     -0.13      0.00
   24    2   13     -1.23      0.00
   26    2   13     -1.85      0.00
  -27    3   13     -0.08      0.00
  -25    3   13     -0.49      0.00
  -23    3   13     -0.18      0.00
  -21    3   13      0.46      0.00
  -19    3   13      0.69      0.00
  -17    3   13      0.58      0.00
  -15    3   13      0.53      0.00
  -13    3   13      0.45      0.00
  -11    3   13     -0.36      0.00
   -9    3   13     -2.23      0.00
   -7    3   13     -3.32      0.00
   -5    3   13     -0.98      0.00
   -3    3   13      3.41      0.00
    1    3   13      1.88      0.00
    3    3   13     -2.36      0.00
    5    3   13     -3.84      0.00
    7    3   13     -2.00      0.00
    9    3   13      0.49      0.00
   11    3   13      0.96      0.00
   13    3   13     -0.10      0.00
   15    3   13     -0.42      0.00
   17    3   13      0.30      0.00
   19    3   13      0.75      0.00
   21    3   13      0.48      0.00
   23    3   13     -0.10      0.00
   25    3   13     -0.40      0.00
  -26    4   13     -0.90      0.00
  -24    4   13     -0.36      0.00
  -22    4   13      0.15      0.00
  -20    4   13     -0.11      0.00
  -18    4   13     -0.68      0.00
  -16    4   13     -0.82      0.00
  -14    4   13     -0.78      0.00
  -12    4   13     -1.02      0.00
  -10    4   13     -1.63      0.00
   -8    4   13     -2.27      0.00
   -6    4   13     -1.95      0.00
   -4    4   13     -0.16      0.00
   -2    4   13      1.72      0.00
    0    4   13      2.03      0.00
    2    4   13      0.91      0.00
    4    4   13     -0.38      0.00
    6    4   13     -0.73      0.00
    8    4   13      0.01      0.00
   10    4   13      0.76      0.00
   12    4   13      0.69      0.00
   14    4   13      0.44      0.00
   16    4   13      0.65      0.00
   18    4   13      0.75      0.00
   20    4   13      0.30      0.00
   22    4   13     -0.07      0.00
   24    4   13      0.28      0.00
   26    4   13      1.17      0.00
  -25    5   13     -1.55      0.00
  -23    5   13     -1.40      0.00
  -21    5   13     -0.82      0.00
  -19    5   13     -0.38      0.00
  -17    5   13     -0.09      0.00
  -15    5   13      0.01      0.00
  -13    5   13     -0.30      0.00
  -11    5   13     -0.90      0.00
   -9    5   13     -1.56      0.00
   -7    5   13     -2.27      0.00
   -5    5   13     -2.66      0.00
   -3    5   13     -1.93      0.00
   -1    5   13     -0.01      0.00
    1    5   13      1.79      0.00
    3    5   13      1.92      0.00
    5    5   13      0.55      0.00
    7    5   13     -0.52      0.00
    9    5   13     -0.22      0.00
   11    5   13      0.65      0.00
   13    5   13      0.95      0.00
   15    5   13      0.63      0.00
   17    5   13      0.19      0.00
   19    5   13     -0.26      0.00
   21    5   13     -0.77      0.00
   23    5   13     -0.95      0.00
   25    5   13     -0.46      0.00
  -24    6   13     -1.44      0.00
  -22    6   13     -1.70      0.00
  -20    6   13     -1.18      0.00
  -18    6   13     -0.33      0.00
  -16    6   13      0.61      0.00
  -14    6   13      1.23      0.00
  -12    6   13      0.90      0.00
  -10    6   13     -0.27      0.00
   -8    6   13     -1.33      0.00
   -6    6   13     -1.61      0.00
   -4    6   13     -1.17      0.00
   -2    6   13     -0.41      0.00
    0    6   13      0.03      0.00
    2    6   13     -0.26      0.00
    4    6   13     -0.83      0.00
    6    6   13     -0.84      0.00
    8    6   13     -0.26      0.00
   10    6   13      0.40      0.00
   12    6   13      0.69      0.00
   14    6   13      0.44      0.00
   16    6   13     -0.04      0.00
   18    6   13     -0.28      0.00
   20    6   13     -0.53      0.00
   22    6   13     -1.12      0.00
  -21    7   13     -0.33      0.00
  -19    7   13     -0.29      0.00
  -17    7   13      0.19      0.00
  -15    7   13      0.85      0.00
  -13    7   13      1.04      0.00
  -11    7   13      0.37      0.00
   -9    7   13     -0.34      0.00
   -7    7   13     -0.16      0.00
   -5    7   13      0.55      0.00
   -3    7   13      0.89      0.00
   -1    7   13      0.51      0.00
    1    7   13     -0.39      0.00
    3    7   13     -0.98      0.00
    5    7   13     -0.55      0.00
    7    7   13      0.32      0.00
    9    7   13      0.59      0.00
   11    7   13      0.29      0.00
   13    7   13     -0.16      0.00
   15    7   13     -0.54      0.00
   17    7   13     -0.39      0.00
   19    7   13      0.18      0.00
   21    7   13      0.18      0.00
  -20    8   13      1.13      0.00
  -18    8   13      1.19      0.00
  -16    8   13      0.55      0.00
  -14    8   13     -0.09      0.00
  -12    8   13     -0.19      0.00
  -10    8   13      0.10      0.00
   -8    8   13      0.19      0.00
   -6    8   13     -0.36      0.00
   -4    8   13     -0.91      0.00
   -2    8   13     -0.36      0.00
    0    8   13      0.88      0.00
    2    8   13      1.34      0.00
    4    8   13      0.82      0.00
    6    8   13      0.26      0.00
    8    8   13      0.08      0.00
   10    8   13      0.14      0.00
   12    8   13      0.04      0.00
   14    8   13     -0.60      0.00
   16    8   13     -1.19      0.00
   18    8   13     -0.83      0.00
  -17    9   13      0.32      0.00
  -15    9   13     -0.21      0.00
  -13    9   13      0.21      0.00
  -11    9   13      1.23      0.00
   -9    9   13      1.46      0.00
   -7    9   13      0.00      0.00
   -5    9   13     -2.09      0.00
   -3    9   13     -2.61      0.00
   -1    9   13     -1.09      0.00
    1    9   13      0.51      0.00
    3    9   13      0.71      0.00
    5    9   13      0.06      0.00
    7    9   13     -0.42      0.00
    9    9   13     -0.39      0.00
   11    9   13     -0.03      0.00
   13    9   13      0.14      0.00
   15    9   13     -0.05      0.00
   17    9   13     -0.01      0.00
  -14   10   13      0.51      0.00
  -12   10   13      1.16      0.00
  -10   10   13      0.77      0.00
   -8   10   13     -0.44      0.00
   -6   10   13     -1.54      0.00
   -4   10   13     -1.62      0.00
   -2   10   13     -0.77      0.00
    0   10   13     -0.02      0.00
    2   10   13      0.15      0.00
    4   10   13      0.14      0.00
    6   10   13      0.15      0.00
    8   10   13      0.04      0.00
   10   10   13     -0.02      0.00
   12   10   13      0.23      0.00
   -7   11   13     -1.90      0.00
   -5   11   13     -1.06      0.00
   -3   11   13      0.19      0.00
   -1   11   13      0.57      0.00
    1   11   13     -0.05      0.00
    3   11   13     -0.59      0.00
    5   11   13     -0.41      0.00
    7   11   13      0.23      0.00
  -28    0   14     -0.55      0.00
  -26    0   14     -1.37      0.00
  -24    0   14     -1.08      0.00
  -22    0   14     -0.34      0.00
  -20    0   14     -0.31      0.00
  -18    0   14     -1.32      0.00
  -16    0   14     -2.71      0.00
  -14    0   14     -2.93      0.00
  -12    0   14     -1.17      0.00
  -10    0   14      0.46      0.00
   -8    0   14     -0.50      0.00
   -6    0   14     -3.11      0.00
   -4    0   14     -4.59      0.00
   -2    0   14     -3.58      0.00
    0    0   14     -0.41      0.00
    2    0   14      2.95      0.00
    4    0   14      3.64      0.00
    6    0   14      1.01      0.00
    8    0   14     -2.48      0.00
   10    0   14     -3.82      0.00
   12    0   14     -1.94      0.00
   14    0   14      1.23      0.00
   16    0   14      2.27      0.00
   18    0   14      0.61      0.00
   20    0   14     -0.88      0.00
   22    0   14     -0.46      0.00
   24    0   14      0.77      0.00
   26    0   14      1.36      0.00
  -27    1   14     -1.25      0.00
  -25    1   14     -1.60      0.00
  -23    1   14     -1.07      0.00
  -21    1   14     -0.33      0.00
  -19    1   14      0.12      0.00
  -17    1   14      0.09      0.00
  -15    1   14     -0.18      0.00
  -13    1   14      0.25      0.00
  -11    1   14      1.45      0.00
   -9    1   14      1.63      0.00
   -7    1   14     -0.21      0.00
   -5    1   14     -2.75      0.00
   -3    1   14     -3.97      0.00
   -1    1   14     -2.67      0.00
    1    1   14      0.43      0.00
    3    1   14      2.47      0.00
    5    1   14      1.52      0.00
    7    1   14     -0.94      0.00
    9    1   14     -2.40      0.00
   11    1   14     -1.81      0.00
   13    1   14      0.17      0.00
   15    1   14      1.66      0.00
   17    1   14      1.30      0.00
   19    1   14      0.07      0.00
   21    1   14     -0.29      0.00
   23    1   14      0.35      0.00
   25    1   14      1.12      0.00
   27    1   14      1.37      0.00
  -26    2   14     -0.65      0.00
  -24    2   14     -1.44      0.00
  -22    2   14     -1.11      0.00
  -20    2   14      0.06      0.00
  -18    2   14      1.12      0.00
  -16    2   14      1.30      0.00
  -14    2   14      1.11      0.00
  -12    2   14      1.61      0.00
  -10    2   14      2.46      0.00
   -8    2   14      2.17      0.00
   -6    2   14      0.36      0.00
   -4    2   14     -1.65      0.00
   -2    2   14     -2.08      0.00
    0    2   14     -0.50      0.00
    2    2   14      1.20      0.00
    4    2   14      1.17      0.00
    6    2   14      0.17      0.00
    8    2   14     -0.13      0.00
   10    2   14      0.14      0.00
   12    2   14      0.15      0.00
   14    2   14     -0.05      0.00
   16    2   14     -0.09      0.00
   18    2   14      0.07      0.00
   20    2   14      0.19      0.00
   22    2   14      0.00      0.00
   24    2   14     -0.22      0.00
   26    2   14     -0.05      0.00
  -27    3   14      1.23      0.00
  -25    3   14     -0.81      0.00
  -23    3   14     -1.96      0.00
  -21    3   14     -1.19      0.00
  -19    3   14      0.27      0.00
  -17    3   14      0.79      0.00
  -15    3   14      0.51      0.00
  -13    3   14      0.69      0.00
  -11    3   14      1.32      0.00
   -9    3   14      1.27      0.00
   -7    3   14      0.46      0.00
   -5    3   14      0.02      0.00
   -3    3   14      0.51      0.00
   -1    3   14      1.28      0.00
    1    3   14      1.25      0.00
    3    3   14      0.41      0.00
    5    3   14     -0.07      0.00
    7    3   14      0.35      0.00
    9    3   14      0.61      0.00
   11    3   14      0.05      0.00
   13    3   14     -0.67      0.00
   15    3   14     -0.79      0.00
   17    3   14     -0.28      0.00
   19    3   14      0.26      0.00
   21    3   14      0.08      0.00
   23    3   14     -0.76      0.00
   25    3   14     -1.36      0.00
  -26    4   14      0.74      0.00
  -24    4   14     -0.30      0.00
  -22    4   14     -0.93      0.00
  -20    4   14     -0.69      0.00
  -18    4   14     -0.05      0.00
  -16    4   14      0.45      0.00
  -14    4   14      0.76      0.00
  -12    4   14      0.77      0.00
  -10    4   14      0.38      0.00
   -8    4   14      0.33      0.00
   -6    4   14      1.35      0.00
   -4    4   14      2.75      0.00
   -2    4   14      3.00      0.00
    0    4   14      1.57      0.00
    2    4   14     -0.26      0.00
    4    4   14     -0.64      0.00
    6    4   14      0.39      0.00
    8    4   14      0.93      0.00
   10    4   14      0.26      0.00
   12    4   14     -0.37      0.00
   14    4   14     -0.29      0.00
   16    4   14      0.00      0.00
   18    4   14      0.14      0.00
   20    4   14      0.07      0.00
   22    4   14     -0.16      0.00
   24    4   14     -0.22      0.00
  -25    5   14      1.18      0.00
  -23    5   14      0.91      0.00
  -21    5   14     -0.18      0.00
  -19    5   14     -0.92      0.00
  -17    5   14     -0.65      0.00
  -15    5   14      0.03      0.00
  -13    5   14      0.04      0.00
  -11    5   14     -0.70      0.00
   -9    5   14     -0.94      0.00
   -7    5   14      0.04      0.00
   -5    5   14      1.43      0.00
   -3    5   14      2.13      0.00
   -1    5   14      1.97      0.00
    1    5   14      1.32      0.00
    3    5   14      0.79      0.00
    5    5   14      0.75      0.00
    7    5   14      0.75      0.00
    9    5   14      0.40      0.00
   11    5   14      0.15      0.00
   13    5   14      0.21      0.00
   15    5   14      0.12      0.00
   17    5   14     -0.06      0.00
   19    5   14      0.00      0.00
   21    5   14      0.24      0.00
   23    5   14      0.65      0.00
  -22    6   14     -0.27      0.00
  -20    6   14     -1.07      0.00
  -18    6   14     -1.26      0.00
  -16    6   14     -0.54      0.00
  -14    6   14      0.19      0.00
  -12    6   14     -0.13      0.00
  -10    6   14     -1.40      0.00
   -8    6   14     -2.57      0.00
   -6    6   14     -2.83      0.00
   -4    6   14     -1.91      0.00
   -2    6   14     -0.08      0.00
    0    6   14      1.40      0.00
    2    6   14      1.24      0.00
    4    6   14     -0.21      0.00
    6    6   14     -1.37      0.00
    8    6   14     -1.24      0.00
   10    6   14     -0.14      0.00
   12    6   14      0.78      0.00
   14    6   14      0.70      0.00
   16    6   14      0.06      0.00
   18    6   14     -0.20      0.00
   20    6   14     -0.01      0.00
   22    6   14      0.24      0.00
  -21    7   14     -0.50      0.00
  -19    7   14     -1.08      0.00
  -17    7   14     -0.77      0.00
  -15    7   14      0.37      0.00
  -13    7   14      1.13      0.00
  -11    7   14      0.52      0.00
   -9    7   14     -1.12      0.00
   -7    7   14     -2.47      0.00
   -5    7   14     -2.53      0.00
   -3    7   14     -1.48      0.00
   -1    7   14     -0.52      0.00
    1    7   14     -0.65      0.00
    3    7   14     -1.68      0.00
    5    7   14     -2.42      0.00
    7    7   14     -1.95      0.00
    9    7   14     -0.44      0.00
   11    7   14      0.98      0.00
   13    7   14      1.33      0.00
   15    7   14      0.75      0.00
   17    7   14      0.08      0.00
   19    7   14     -0.27      0.00
   21    7   14     -0.39      0.00
  -18    8   14     -0.14      0.00
  -16    8   14      0.23      0.00
  -14    8   14      0.50      0.00
  -12    8   14      0.19      0.00
  -10    8   14     -0.49      0.00
   -8    8   14     -1.01      0.00
   -6    8   14     -0.98      0.00
   -4    8   14     -0.46      0.00
   -2    8   14      0.06      0.00
    0    8   14      0.32      0.00
    2    8   14      0.37      0.00
    4    8   14      0.11      0.00
    6    8   14     -0.28      0.00
    8    8   14     -0.16      0.00
   10    8   14      0.49      0.00
   12    8   14      0.83      0.00
   14    8   14      0.49      0.00
   16    8   14     -0.12      0.00
   18    8   14     -0.63      0.00
  -15    9   14      0.07      0.00
  -13    9   14     -0.32      0.00
  -11    9   14     -0.34      0.00
   -9    9   14     -0.30      0.00
   -7    9   14     -0.56      0.00
   -5    9   14     -0.71      0.00
   -3    9   14     -0.29      0.00
   -1    9   14      0.51      0.00
    1    9   14      1.31      0.00
    3    9   14      1.56      0.00
    5    9   14      0.91      0.00
    7    9   14      0.14      0.00
    9    9   14      0.09      0.00
   11    9   14      0.18      0.00
   13    9   14     -0.30      0.00
   15    9   14     -1.02      0.00
  -12   10   14      1.88      0.00
  -10   10   14      1.70      0.00
   -8   10   14      0.46      0.00
   -6   10   14     -0.72      0.00
   -4   10   14     -0.76      0.00
   -2   10   14     -0.15      0.00
    0   10   14      0.21      0.00
    2   10   14      0.26      0.00
    4   10   14      0.13      0.00
    6   10   14     -0.19      0.00
    8   10   14     -0.52      0.00
   10   10   14     -0.92      0.00
   -5   11   14     -0.61      0.00
   -3   11   14      0.54      0.00
   -1   11   14      1.03      0.00
    1   11   14      0.53      0.00
    3   11   14     -0.09      0.00
  -27    1   15     -1.15      0.00
  -25    1   15     -0.12      0.00
  -23    1   15      0.64      0.00
  -21    1   15      0.53      0.00
  -19    1   15     -0.29      0.00
  -17    1   15     -0.88      0.00
  -15    1   15     -0.31      0.00
  -13    1   15      1.12      0.00
  -11    1   15      1.90      0.00
   -9    1   15      0.98      0.00
   -7    1   15     -1.12      0.00
   -5    1   15     -2.74      0.00
   -3    1   15     -2.61      0.00
   -1    1   15     -1.11      0.00
    1    1   15      0.38      0.00
    3    1   15      1.03      0.00
    5    1   15      0.63      0.00
    7    1   15     -0.72      0.00
    9    1   15     -1.97      0.00
   11    1   15     -1.79      0.00
   13    1   15     -0.46      0.00
   15    1   15      0.56      0.00
   17    1   15      0.58      0.00
   19    1   15      0.18      0.00
   21    1   15      0.13      0.00
   23    1   15      0.62      0.00
   25    1   15      0.98      0.00
  -26    2   15      0.22      0.00
  -24    2   15      1.14      0.00
  -22    2   15      0.85      0.00
  -20    2   15     -0.10      0.00
  -18    2   15     -0.69      0.00
  -16    2   15     -0.46      0.00
  -14    2   15      0.22      0.00
  -12    2   15      0.72      0.00
  -10    2   15      0.90      0.00
   -8    2   15      0.52      0.00
   -6    2   15     -0.94      0.00
   -4    2   15     -2.75      0.00
   -2    2   15     -3.00      0.00
    0    2   15     -1.18      0.00
    2    2   15      1.07      0.00
    4    2   15      1.86      0.00
    6    2   15      0.54      0.00
    8    2   15     -1.55      0.00
   10    2   15     -2.17      0.00
   12    2   15     -0.89      0.00
   14    2   15      0.60      0.00
   16    2   15      1.08      0.00
   18    2   15      0.80      0.00
   20    2   15      0.44      0.00
   22    2   15      0.56      0.00
   24    2   15      1.11      0.00
  -25    3   15      0.70      0.00
  -23    3   15      0.31      0.00
  -21    3   15     -0.04      0.00
  -19    3   15     -0.04      0.00
  -17    3   15     -0.02      0.00
  -15    3   15     -0.24      0.00
  -13    3   15     -0.49      0.00
  -11    3   15     -0.16      0.00
   -9    3   15      0.88      0.00
   -7    3   15      1.12      0.00
   -5    3   15     -0.75      0.00
   -3    3   15     -3.18      0.00
   -1    3   15     -3.46      0.00
    1    3   15     -1.30      0.00
    3    3   15      1.18      0.00
    5    3   15      1.92      0.00
    7    3   15      0.88      0.00
    9    3   15     -0.21      0.00
   11    3   15     -0.11      0.00
   13    3   15      0.45      0.00
   15    3   15      0.54      0.00
   17    3   15      0.34      0.00
   19    3   15      0.17      0.00
   21    3   15     -0.05      0.00
   23    3   15     -0.22      0.00
   25    3   15     -0.32      0.00
  -24    4   15     -0.81      0.00
  -22    4   15     -0.91      0.00
  -20    4   15     -0.21      0.00
  -18    4   15      0.25      0.00
  -16    4   15      0.16      0.00
  -14    4   15      0.24      0.00
  -12    4   15      0.87      0.00
  -10    4   15      1.72      0.00
   -8    4   15      2.15      0.00
   -6    4   15      1.58      0.00
   -4    4   15      0.04      0.00
   -2    4   15     -1.56      0.00
    0    4   15     -2.25      0.00
    2    4   15     -1.62      0.00
    4    4   15     -0.18      0.00
    6    4   15      0.82      0.00
    8    4   15      0.74      0.00
   10    4   15      0.23      0.00
   12    4   15     -0.04      0.00
   14    4   15     -0.16      0.00
   16    4   15     -0.25      0.00
   18    4   15     -0.15      0.00
   20    4   15      0.02      0.00
   22    4   15     -0.10      0.00
   24    4   15     -0.66      0.00
  -23    5   15      1.25      0.00
  -21    5   15      0.91      0.00
  -19    5   15      0.10      0.00
  -17    5   15     -0.83      0.00
  -15    5   15     -1.08      0.00
  -13    5   15     -0.20      0.00
  -11    5   15      1.24      0.00
   -9    5   15      2.36      0.00
   -7    5   15      2.91      0.00
   -5    5   15      2.95      0.00
   -3    5   15      2.18      0.00
   -1    5   15      0.56      0.00
    1    5   15     -0.90      0.00
    3    5   15     -0.97      0.00
    5    5   15      0.19      0.00
    7    5   15      1.19      0.00
    9    5   15      1.07      0.00
   11    5   15      0.18      0.00
   13    5   15     -0.54      0.00
   15    5   15     -0.64      0.00
   17    5   15     -0.30      0.00
   19    5   15      0.32      0.00
   21    5   15      1.00      0.00
   23    5   15      1.13      0.00
  -22    6   15      2.16      0.00
  -20    6   15      1.08      0.00
  -18    6   15     -0.37      0.00
  -16    6   15     -1.21      0.00
  -14    6   15     -0.96      0.00
  -12    6   15      0.22      0.00
  -10    6   15      1.32      0.00
   -8    6   15      1.44      0.00
   -6    6   15      0.89      0.00
   -4    6   15      0.57      0.00
   -2    6   15      0.76      0.00
    0    6   15      1.14      0.00
    2    6   15      1.30      0.00
    4    6   15      1.12      0.00
    6    6   15      0.95      0.00
    8    6   15      0.97      0.00
   10    6   15      0.71      0.00
   12    6   15      0.03      0.00
   14    6   15     -0.39      0.00
   16    6   15     -0.27      0.00
   18    6   15      0.21      0.00
   20    6   15      1.02      0.00
  -21    7   15      0.16      0.00
  -19    7   15     -0.94      0.00
  -17    7   15     -1.49      0.00
  -15    7   15     -0.99      0.00
  -13    7   15      0.21      0.00
  -11    7   15      1.15      0.00
   -9    7   15      0.90      0.00
   -7    7   15     -0.20      0.00
   -5    7   15     -0.90      0.00
   -3    7   15     -0.70      0.00
   -1    7   15      0.01      0.00
    1    7   15      0.68      0.00
    3    7   15      0.75      0.00
    5    7   15      0.28      0.00
    7    7   15      0.04      0.00
    9    7   15      0.16      0.00
   11    7   15      0.07      0.00
   13    7   15     -0.11      0.00
   15    7   15     -0.09      0.00
   17    7   15     -0.15      0.00
   19    7   15     -0.12      0.00
  -18    8   15     -2.02      0.00
  -16    8   15     -1.15      0.00
  -14    8   15      0.16      0.00
  -12    8   15      0.59      0.00
  -10    8   15     -0.01      0.00
   -8    8   15     -0.47      0.00
   -6    8   15      0.10      0.00
   -4    8   15      0.71      0.00
   -2    8   15      0.06      0.00
    0    8   15     -1.07      0.00
    2    8   15     -1.12      0.00
    4    8   15     -0.22      0.00
    6    8   15      0.46      0.00
    8    8   15      0.25      0.00
   10    8   15     -0.63      0.00
   12    8   15     -1.13      0.00
   14    8   15     -0.55      0.00
   16    8   15      0.21      0.00
  -15    9   15      0.76      0.00
  -13    9   15      0.59      0.00
  -11    9   15     -0.63      0.00
   -9    9   15     -1.45      0.00
   -7    9   15     -0.64      0.00
   -5    9   15      0.97      0.00
   -3    9   15      1.26      0.00
   -1    9   15     -0.02      0.00
    1    9   15     -0.98      0.00
    3    9   15     -0.53      0.00
    5    9   15      0.49      0.00
    7    9   15      0.88      0.00
    9    9   15      0.21      0.00
   11    9   15     -0.82      0.00
   13    9   15     -1.04      0.00
  -10   10   15      0.97      0.00
   -8   10   15      1.29      0.00
   -6   10   15      1.66      0.00
   -4   10   15      1.65      0.00
   -2   10   15      0.95      0.00
    0   10   15     -0.07      0.00
    2   10   15     -0.84      0.00
    4   10   15     -1.07      0.00
    6   10   15     -0.75      0.00
    8   10   15     -0.31      0.00
  -26    0   16      1.79      0.00
  -24    0   16      0.71      0.00
  -22    0   16     -0.87      0.00
  -20    0   16     -1.56      0.00
  -18    0   16     -0.82      0.00
  -16    0   16      0.78      0.00
  -14    0   16      1.58      0.00
  -12    0   16      0.83      0.00
  -10    0   16      0.12      0.00
   -8    0   16      0.84      0.00
   -6    0   16      2.16      0.00
   -4    0   16      2.72      0.00
   -2    0   16      1.91      0.00
    0    0   16     -0.03      0.00
    2    0   16     -1.57      0.00
    4    0   16     -1.28      0.00
    6    0   16      0.33      0.00
    8    0   16      1.58      0.00
   10    0   16      1.24      0.00
   12    0   16     -0.76      0.00
   14    0   16     -2.73      0.00
   16    0   16     -2.67      0.00
   18    0   16     -1.06      0.00
   20    0   16      0.12      0.00
   22    0   16      0.26      0.00
   24    0   16     -0.07      0.00
  -25    1   16      1.77      0.00
  -23    1   16      0.66      0.00
  -21    1   16     -0.81      0.00
  -19    1   16     -1.86      0.00
  -17    1   16     -1.75      0.00
  -15    1   16     -0.74      0.00
  -13    1   16     -0.31      0.00
  -11    1   16     -0.84      0.00
   -9    1   16     -1.05      0.00
   -7    1   16     -0.08      0.00
   -5    1   16      1.56      0.00
   -3    1   16      2.62      0.00
   -1    1   16      1.86      0.00
    1    1   16     -0.28      0.00
    3    1   16     -1.66      0.00
    5    1   16     -1.19      0.00
    7    1   16      0.12      0.00
    9    1   16      0.93      0.00
   11    1   16      0.52      0.00
   13    1   16     -0.87      0.00
   15    1   16     -1.84      0.00
   17    1   16     -1.47      0.00
   19    1   16     -0.53      0.00
   21    1   16      0.03      0.00
   23    1   16      0.04      0.00
   25    1   16     -0.38      0.00
  -26    2   16      1.87      0.00
  -24    2   16      2.31      0.00
  -22    2   16      1.24      0.00
  -20    2   16     -0.90      0.00
  -18    2   16     -2.43      0.00
  -16    2   16     -2.10      0.00
  -14    2   16     -0.96      0.00
  -12    2   16     -0.91      0.00
  -10    2   16     -1.91      0.00
   -8    2   16     -2.25      0.00
   -6    2   16     -0.79      0.00
   -4    2   16      1.81      0.00
   -2    2   16      3.36      0.00
    0    2   16      2.32      0.00
    2    2   16     -0.20      0.00
    4    2   16     -2.02      0.00
    6    2   16     -2.31      0.00
    8    2   16     -1.41      0.00
   10    2   16     -0.05      0.00
   12    2   16      0.71      0.00
   14    2   16      0.43      0.00
   16    2   16     -0.28      0.00
   18    2   16     -0.64      0.00
   20    2   16     -0.39      0.00
   22    2   16      0.16      0.00
   24    2   16      0.34      0.00
  -25    3   16      2.49      0.00
  -23    3   16      2.89      0.00
  -21    3   16      1.37      0.00
  -19    3   16     -0.54      0.00
  -17    3   16     -1.10      0.00
  -15    3   16     -0.53      0.00
  -13    3   16     -0.35      0.00
  -11    3   16     -1.09      0.00
   -9    3   16     -1.84      0.00
   -7    3   16     -1.71      0.00
   -5    3   16     -0.52      0.00
   -3    3   16      1.13      0.00
   -1    3   16      2.10      0.00
    1    3   16      1.53      0.00
    3    3   16     -0.24      0.00
    5    3   16     -1.92      0.00
    7    3   16     -2.11      0.00
    9    3   16     -0.65      0.00
   11    3   16      0.99      0.00
   13    3   16      1.40      0.00
   15    3   16      0.67      0.00
   17    3   16     -0.22      0.00
   19    3   16     -0.56      0.00
   21    3   16     -0.27      0.00
   23    3   16      0.17      0.00
  -24    4   16      0.82      0.00
  -22    4   16      1.16      0.00
  -20    4   16      1.01      0.00
  -18    4   16      0.38      0.00
  -16    4   16     -0.30      0.00
  -14    4   16     -0.57      0.00
  -12    4   16     -0.39      0.00
  -10    4   16     -0.37      0.00
   -8    4   16     -1.12      0.00
   -6    4   16     -2.24      0.00
   -4    4   16     -2.48      0.00
   -2    4   16     -1.36      0.00
    0    4   16      0.05      0.00
    2    4   16      0.18      0.00
    4    4   16     -1.19      0.00
    6    4   16     -2.33      0.00
    8    4   16     -1.75      0.00
   10    4   16     -0.15      0.00
   12    4   16      0.82      0.00
   14    4   16      0.79      0.00
   16    4   16      0.40      0.00
   18    4   16      0.10      0.00
   20    4   16     -0.09      0.00
   22    4   16     -0.41      0.00
  -23    5   16     -0.69      0.00
  -21    5   16      0.89      0.00
  -19    5   16      1.65      0.00
  -17    5   16      0.71      0.00
  -15    5   16     -0.53      0.00
  -13    5   16     -0.37      0.00
  -11    5   16      0.83      0.00
   -9    5   16      1.28      0.00
   -7    5   16      0.34      0.00
   -5    5   16     -0.93      0.00
   -3    5   16     -1.51      0.00
   -1    5   16     -1.42      0.00
    1    5   16     -1.28      0.00
    3    5   16     -1.62      0.00
    5    5   16     -2.14      0.00
    7    5   16     -2.05      0.00
    9    5   16     -1.23      0.00
   11    5   16     -0.28      0.00
   13    5   16      0.46      0.00
   15    5   16      0.82      0.00
   17    5   16      0.67      0.00
   19    5   16      0.19      0.00
   21    5   16     -0.41      0.00
  -20    6   16      1.94      0.00
  -18    6   16      1.61      0.00
  -16    6   16      0.15      0.00
  -14    6   16     -0.67      0.00
  -12    6   16      0.22      0.00
  -10    6   16      1.95      0.00
   -8    6   16      3.01      0.00
   -6    6   16      2.76      0.00
   -4    6   16      1.47      0.00
   -2    6   16     -0.09      0.00
    0    6   16     -1.03      0.00
    2    6   16     -0.97      0.00
    4    6   16     -0.28      0.00
    6    6   16      0.37      0.00
    8    6   16      0.55      0.00
   10    6   16      0.34      0.00
   12    6   16      0.32      0.00
   14    6   16      0.65      0.00
   16    6   16      0.79      0.00
   18    6   16      0.46      0.00
   20    6   16      0.00      0.00
  -19    7   16      0.77      0.00
  -17    7   16      0.02      0.00
  -15    7   16     -0.71      0.00
  -13    7   16     -0.43      0.00
  -11    7   16      0.80      0.00
   -9    7   16      1.97      0.00
   -7    7   16      2.22      0.00
   -5    7   16      1.57      0.00
   -3    7   16      0.79      0.00
   -1    7   16      0.45      0.00
    1    7   16      0.48      0.00
    3    7   16      0.70      0.00
    5    7   16      1.04      0.00
    7    7   16      1.23      0.00
    9    7   16      0.94      0.00
   11    7   16      0.42      0.00
   13    7   16      0.17      0.00
   15    7   16      0.18      0.00
   17    7   16      0.19      0.00
  -16    8   16     -1.26      0.00
  -14    8   16     -0.76      0.00
  -12    8   16      0.30      0.00
  -10    8   16      1.09      0.00
   -8    8   16      1.18      0.00
   -6    8   16      0.80      0.00
   -4    8   16      0.42      0.00
   -2    8   16      0.27      0.00
    0    8   16      0.02      0.00
    2    8   16     -0.40      0.00
    4    8   16     -0.45      0.00
    6    8   16      0.01      0.00
    8    8   16      0.32      0.00
   10    8   16      0.23      0.00
   12    8   16      0.07      0.00
   14    8   16     -0.06      0.00
   16    8   16     -0.18      0.00
  -13    9   16     -0.15      0.00
  -11    9   16     -0.09      0.00
   -9    9   16      0.04      0.00
   -7    9   16      0.19      0.00
   -5    9   16     -0.06      0.00
   -3    9   16     -0.60      0.00
   -1    9   16     -0.89      0.00
    1    9   16     -0.67      0.00
    3    9   16     -0.02      0.00
    5    9   16      0.65      0.00
    7    9   16      0.67      0.00
    9    9   16      0.18      0.00
   11    9   16     -0.02      0.00
   -8   10   16     -0.21      0.00
   -6   10   16     -0.04      0.00
   -4   10   16     -0.92      0.00
   -2   10   16     -1.60      0.00
    0   10   16     -1.08      0.00
    2   10   16      0.14      0.00
    4   10   16      1.05      0.00
    6   10   16      1.13      0.00
  -25    1   17     -0.43      0.00
  -23    1   17     -0.79      0.00
  -21    1   17     -0.30      0.00
  -19    1   17      0.56      0.00
  -17    1   17      0.75      0.00
  -15    1   17     -0.05      0.00
  -13    1   17     -1.00      0.00
  -11    1   17     -1.16      0.00
   -9    1   17     -0.52      0.00
   -7    1   17      0.14      0.00
   -5    1   17      0.01      0.00
   -3    1   17     -0.73      0.00
   -1    1   17     -0.96      0.00
    1    1   17     -0.08      0.00
    3    1   17      1.12      0.00
    5    1   17      1.59      0.00
    7    1   17      1.12      0.00
    9    1   17      0.22      0.00
   11    1   17     -0.43      0.00
   13    1   17     -0.47      0.00
   15    1   17     -0.22      0.00
   17    1   17     -0.14      0.00
   19    1   17     -0.14      0.00
   21    1   17     -0.03      0.00
   23    1   17      0.13      0.00
  -24    2   17     -1.38      0.00
  -22    2   17     -0.73      0.00
  -20    2   17     -0.08      0.00
  -18    2   17     -0.12      0.00
  -16    2   17     -0.58      0.00
  -14    2   17     -0.62      0.00
  -12    2   17     -0.07      0.00
  -10    2   17      0.41      0.00
   -8    2   17      0.52      0.00
   -6    2   17      0.56      0.00
   -4    2   17      0.48      0.00
   -2    2   17      0.20      0.00
    0    2   17      0.10      0.00
    2    2   17      0.36      0.00
    4    2   17      0.66      0.00
    6    2   17      0.64      0.00
    8    2   17      0.17      0.00
   10    2   17     -0.48      0.00
   12    2   17     -0.74      0.00
   14    2   17     -0.54      0.00
   16    2   17     -0.36      0.00
   18    2   17     -0.20      0.00
   20    2   17      0.18      0.00
   22    2   17      0.51      0.00
  -23    3   17      0.44      0.00
  -21    3   17      0.33      0.00
  -19    3   17     -0.47      0.00
  -17    3   17     -0.86      0.00
  -15    3   17     -0.30      0.00
  -13    3   17      0.57      0.00
  -11    3   17      0.65      0.00
   -9    3   17     -0.08      0.00
   -7    3   17     -0.38      0.00
   -5    3   17      0.44      0.00
   -3    3   17      1.60      0.00
   -1    3   17      2.00      0.00
    1    3   17      1.35      0.00
    3    3   17      0.20      0.00
    5    3   17     -0.59      0.00
    7    3   17     -0.74      0.00
    9    3   17     -0.71      0.00
   11    3   17     -0.78      0.00
   13    3   17     -0.76      0.00
   15    3   17     -0.58      0.00
   17    3   17     -0.25      0.00
   19    3   17      0.35      0.00
   21    3   17      0.97      0.00
   23    3   17      1.17      0.00
  -22    4   17      1.43      0.00
  -20    4   17      0.38      0.00
  -18    4   17     -0.18      0.00
  -16    4   17      0.09      0.00
  -14    4   17      0.28      0.00
  -12    4   17     -0.32      0.00
  -10    4   17     -1.41      0.00
   -8    4   17     -2.16      0.00
   -6    4   17     -2.06      0.00
   -4    4   17     -1.14      0.00
   -2    4   17      0.19      0.00
    0    4   17      1.10      0.00
    2    4   17      0.87      0.00
    4    4   17     -0.09      0.00
    6    4   17     -0.63      0.00
    8    4   17     -0.40      0.00
   10    4   17     -0.05      0.00
   12    4   17     -0.08      0.00
   14    4   17     -0.31      0.00
   16    4   17     -0.31      0.00
   18    4   17      0.01      0.00
   20    4   17      0.32      0.00
   22    4   17      0.46      0.00
  -21    5   17     -0.42      0.00
  -19    5   17      0.36      0.00
  -17    5   17      1.12      0.00
  -15    5   17      1.16      0.00
  -13    5   17      0.26      0.00
  -11    5   17     -1.06      0.00
   -9    5   17     -2.10      0.00
   -7    5   17     -2.62      0.00
   -5    5   17     -2.61      0.00
   -3    5   17     -1.83      0.00
   -1    5   17     -0.46      0.00
    1    5   17      0.51      0.00
    3    5   17      0.37      0.00
    5    5   17     -0.48      0.00
    7    5   17     -1.11      0.00
    9    5   17     -0.94      0.00
   11    5   17     -0.25      0.00
   13    5   17      0.20      0.00
   15    5   17      0.17      0.00
   17    5   17     -0.04      0.00
   19    5   17     -0.38      0.00
   21    5   17     -0.80      0.00
  -20    6   17      0.70      0.00
  -18    6   17      1.95      0.00
  -16    6   17      1.85      0.00
  -14    6   17      0.53      0.00
  -12    6   17     -1.06      0.00
  -10    6   17     -1.82      0.00
   -8    6   17     -1.42      0.00
   -6    6   17     -0.57      0.00
   -4    6   17     -0.02      0.00
   -2    6   17      0.16      0.00
    0    6   17      0.14      0.00
    2    6   17      0.09      0.00
    4    6   17     -0.07      0.00
    6    6   17     -0.55      0.00
    8    6   17     -0.95      0.00
   10    6   17     -0.50      0.00
   12    6   17      0.45      0.00
   14    6   17      0.81      0.00
   16    6   17      0.43      0.00
   18    6   17     -0.27      0.00
  -17    7   17      2.63      0.00
  -15    7   17      1.40      0.00
  -13    7   17     -0.32      0.00
  -11    7   17     -1.15      0.00
   -9    7   17     -0.66      0.00
   -7    7   17      0.20      0.00
   -5    7   17      0.53      0.00
   -3    7   17      0.48      0.00
   -1    7   17      0.33      0.00
    1    7   17      0.01      0.00
    3    7   17     -0.36      0.00
    5    7   17     -0.61      0.00
    7    7   17     -0.66      0.00
    9    7   17     -0.19      0.00
   11    7   17      0.61      0.00
   13    7   17      0.85      0.00
   15    7   17      0.48      0.00
   17    7   17      0.18      0.00
  -14    8   17     -0.46      0.00
  -12    8   17     -0.35      0.00
  -10    8   17      0.54      0.00
   -8    8   17      0.82      0.00
   -6    8   17      0.07      0.00
   -4    8   17     -0.32      0.00
   -2    8   17      0.49      0.00
    0    8   17      1.06      0.00
    2    8   17      0.03      0.00
    4    8   17     -1.67      0.00
    6    8   17     -2.20      0.00
    8    8   17     -0.92      0.00
   10    8   17      1.06      0.00
   12    8   17      1.81      0.00
   14    8   17      0.91      0.00
  -11    9   17     -0.16      0.00
   -9    9   17      0.70      0.00
   -7    9   17      0.17      0.00
   -5    9   17     -0.67      0.00
   -3    9   17     -0.18      0.00
   -1    9   17      1.22      0.00
    1    9   17      1.55      0.00
    3    9   17      0.24      0.00
    5    9   17     -1.26      0.00
    7    9   17     -1.34      0.00
    9    9   17      0.16      0.00
   -2   10   17     -0.99      0.00
    0   10   17      0.70      0.00
    2   10   17      1.83      0.00
  -24    0   18      0.78      0.00
  -22    0   18      1.76      0.00
  -20    0   18      1.75      0.00
  -18    0   18      0.86      0.00
  -16    0   18     -0.52      0.00
  -14    0   18     -1.68      0.00
  -12    0   18     -2.29      0.00
  -10    0   18     -2.40      0.00
   -8    0   18     -1.80      0.00
   -6    0   18     -0.60      0.00
   -4    0   18      0.33      0.00
   -2    0   18      0.52      0.00
    0    0   18      0.35      0.00
    2    0   18      0.09      0.00
    4    0   18     -0.09      0.00
    6    0   18     -0.09      0.00
    8    0   18     -0.24      0.00
   10    0   18     -0.46      0.00
   12    0   18     -0.14      0.00
   14    0   18      0.68      0.00
   16    0   18      1.28      0.00
   18    0   18      1.26      0.00
   20    0   18      0.53      0.00
   22    0   18     -0.63      0.00
  -23    1   18      0.09      0.00
  -21    1   18      0.95      0.00
  -19    1   18      1.58      0.00
  -17    1   18      1.34      0.00
  -15    1   18      0.25      0.00
  -13    1   18     -0.75      0.00
  -11    1   18     -1.00      0.00
   -9    1   18     -0.63      0.00
   -7    1   18     -0.08      0.00
   -5    1   18      0.04      0.00
   -3    1   18     -0.34      0.00
   -1    1   18     -0.44      0.00
    1    1   18      0.13      0.00
    3    1   18      0.88      0.00
    5    1   18      1.32      0.00
    7    1   18      1.12      0.00
    9    1   18      0.28      0.00
   11    1   18     -0.35      0.00
   13    1   18     -0.04      0.00
   15    1   18      0.72      0.00
   17    1   18      1.09      0.00
   19    1   18      0.72      0.00
   21    1   18     -0.20      0.00
   23    1   18     -0.93      0.00
  -24    2   18     -1.67      0.00
  -22    2   18     -0.80      0.00
  -20    2   18      0.88      0.00
  -18    2   18      1.82      0.00
  -16    2   18      1.08      0.00
  -14    2   18     -0.16      0.00
  -12    2   18     -0.22      0.00
  -10    2   18      0.81      0.00
   -8    2   18      1.56      0.00
   -6    2   18      0.94      0.00
   -4    2   18     -0.78      0.00
   -2    2   18     -1.97      0.00
    0    2   18     -1.31      0.00
    2    2   18      0.73      0.00
    4    2   18      2.57      0.00
    6    2   18      2.91      0.00
    8    2   18      1.57      0.00
   10    2   18     -0.25      0.00
   12    2   18     -1.01      0.00
   14    2   18     -0.47      0.00
   16    2   18      0.34      0.00
   18    2   18      0.58      0.00
   20    2   18      0.19      0.00
   22    2   18     -0.31      0.00
  -23    3   18     -1.91      0.00
  -21    3   18     -0.68      0.00
  -19    3   18      0.47      0.00
  -17    3   18      0.48      0.00
  -15    3   18     -0.25      0.00
  -13    3   18     -0.47      0.00
  -11    3   18      0.24      0.00
   -9    3   18      1.22      0.00
   -7    3   18      1.59      0.00
   -5    3   18      0.84      0.00
   -3    3   18     -0.58      0.00
   -1    3   18     -1.30      0.00
    1    3   18     -0.39      0.00
    3    3   18      1.42      0.00
    5    3   18      2.25      0.00
    7    3   18      1.04      0.00
    9    3   18     -1.15      0.00
   11    3   18     -2.33      0.00
   13    3   18     -1.78      0.00
   15    3   18     -0.42      0.00
   17    3   18      0.60      0.00
   19    3   18      0.95      0.00
   21    3   18      0.92      0.00
  -22    4   18     -1.01      0.00
  -20    4   18     -1.27      0.00
  -18    4   18     -0.82      0.00
  -16    4   18      0.00      0.00
  -14    4   18      0.23      0.00
  -12    4   18     -0.26      0.00
  -10    4   18     -0.45      0.00
   -8    4   18      0.39      0.00
   -6    4   18      1.48      0.00
   -4    4   18      1.44      0.00
   -2    4   18      0.23      0.00
    0    4   18     -0.60      0.00
    2    4   18      0.09      0.00
    4    4   18      1.43      0.00
    6    4   18      1.62      0.00
    8    4   18      0.31      0.00
   10    4   18     -1.12      0.00
   12    4   18     -1.39      0.00
   14    4   18     -0.57      0.00
   16    4   18      0.46      0.00
   18    4   18      0.99      0.00
   20    4   18      1.10      0.00
  -21    5   18     -1.90      0.00
  -19    5   18     -2.73      0.00
  -17    5   18     -1.60      0.00
  -15    5   18     -0.17      0.00
  -13    5   18     -0.18      0.00
  -11    5   18     -1.10      0.00
   -9    5   18     -1.23      0.00
   -7    5   18     -0.22      0.00
   -5    5   18      0.69      0.00
   -3    5   18      0.55      0.00
   -1    5   18     -0.17      0.00
    1    5   18     -0.23      0.00
    3    5   18      0.76      0.00
    5    5   18      1.79      0.00
    7    5   18      1.77      0.00
    9    5   18      0.72      0.00
   11    5   18     -0.49      0.00
   13    5   18     -1.03      0.00
   15    5   18     -0.63      0.00
   17    5   18      0.08      0.00
   19    5   18      0.45      0.00
  -18    6   18     -1.83      0.00
  -16    6   18     -0.77      0.00
  -14    6   18     -0.30      0.00
  -12    6   18     -0.89      0.00
  -10    6   18     -1.67      0.00
   -8    6   18     -1.69      0.00
   -6    6   18     -0.94      0.00
   -4    6   18     -0.09      0.00
   -2    6   18      0.33      0.00
    0    6   18      0.47      0.00
    2    6   18      0.73      0.00
    4    6   18      0.94      0.00
    6    6   18      0.63      0.00
    8    6   18     -0.14      0.00
   10    6   18     -0.95      0.00
   12    6   18     -1.44      0.00
   14    6   18     -1.34      0.00
   16    6   18     -0.78      0.00
   18    6   18     -0.25      0.00
  -17    7   18      1.14      0.00
  -15    7   18      0.89      0.00
  -13    7   18     -0.14      0.00
  -11    7   18     -1.02      0.00
   -9    7   18     -1.05      0.00
   -7    7   18     -0.48      0.00
   -5    7   18     -0.11      0.00
   -3    7   18     -0.30      0.00
   -1    7   18     -0.45      0.00
    1    7   18      0.10      0.00
    3    7   18      0.81      0.00
    5    7   18      0.67      0.00
    7    7   18     -0.23      0.00
    9    7   18     -0.89      0.00
   11    7   18     -0.82      0.00
   13    7   18     -0.32      0.00
   15    7   18      0.14      0.00
  -12    8   18     -0.37      0.00
  -10    8   18     -0.39      0.00
   -8    8   18      0.26      0.00
   -6    8   18      0.44      0.00
   -4    8   18     -0.28      0.00
   -2    8   18     -1.06      0.00
    0    8   18     -0.79      0.00
    2    8   18      0.24      0.00
    4    8   18      0.73      0.00
    6    8   18      0.29      0.00
    8    8   18     -0.30      0.00
   10    8   18     -0.42      0.00
   12    8   18     -0.06      0.00
   -9    9   18      0.18      0.00
   -7    9   18      0.56      0.00
   -5    9   18      0.72      0.00
   -3    9   18      0.52      0.00
   -1    9   18     -0.02      0.00
    1    9   18     -0.66      0.00
    3    9   18     -1.18      0.00
    5    9   18     -1.29      0.00
    7    9   18     -0.83      0.00
  -23    1   19      0.20      0.00
  -21    1   19     -0.44      0.00
  -19    1   19     -0.92      0.00
  -17    1   19     -0.53      0.00
  -15    1   19      0.26      0.00
  -13    1   19      0.53      0.00
  -11    1   19      0.22      0.00
   -9    1   19      0.08      0.00
   -7    1   19      0.59      0.00
   -5    1   19      1.41      0.00
   -3    1   19      1.73      0.00
   -1    1   19      1.02      0.00
    1    1   19     -0.40      0.00
    3    1   19     -1.50      0.00
    5    1   19     -1.46      0.00
    7    1   19     -0.41      0.00
    9    1   19      0.57      0.00
   11    1   19      0.50      0.00
   13    1   19     -0.32      0.00
   15    1   19     -0.71      0.00
   17    1   19     -0.33      0.00
   19    1   19      0.08      0.00
   21    1   19     -0.10      0.00
  -22    2   19     -0.53      0.00
  -20    2   19     -0.68      0.00
  -18    2   19      0.08      0.00
  -16    2   19      0.83      0.00
  -14    2   19      0.65      0.00
  -12    2   19     -0.09      0.00
  -10    2   19     -0.39      0.00
   -8    2   19     -0.02      0.00
   -6    2   19      0.52      0.00
   -4    2   19      0.74      0.00
   -2    2   19      0.37      0.00
    0    2   19     -0.52      0.00
    2    2   19     -1.39      0.00
    4    2   19     -1.57      0.00
    6    2   19     -0.75      0.00
    8    2   19      0.52      0.00
   10    2   19      1.15      0.00
   12    2   19      0.67      0.00
   14    2   19     -0.15      0.00
   16    2   19     -0.53      0.00
   18    2   19     -0.66      0.00
   20    2   19     -0.86      0.00
  -21    3   19     -0.67      0.00
  -19    3   19      0.40      0.00
  -17    3   19      0.66      0.00
  -15    3   19     -0.19      0.00
  -13    3   19     -0.90      0.00
  -11    3   19     -0.45      0.00
   -9    3   19      0.56      0.00
   -7    3   19      0.97      0.00
   -5    3   19      0.55      0.00
   -3    3   19     -0.15      0.00
   -1    3   19     -0.61      0.00
    1    3   19     -0.60      0.00
    3    3   19     -0.32      0.00
    5    3   19     -0.06      0.00
    7    3   19      0.24      0.00
    9    3   19      0.66      0.00
   11    3   19      0.92      0.00
   13    3   19      0.65      0.00
   15    3   19     -0.20      0.00
   17    3   19     -1.32      0.00
   19    3   19     -2.01      0.00
  -20    4   19     -0.10      0.00
  -18    4   19      0.42      0.00
  -16    4   19     -0.14      0.00
  -14    4   19     -0.74      0.00
  -12    4   19     -0.34      0.00
  -10    4   19      0.75      0.00
   -8    4   19      1.50      0.00
   -6    4   19      1.55      0.00
   -4    4   19      1.15      0.00
   -2    4   19      0.75      0.00
    0    4   19      0.73      0.00
    2    4   19      0.97      0.00
    4    4   19      0.78      0.00
    6    4   19      0.03      0.00
    8    4   19     -0.50      0.00
   10    4   19     -0.23      0.00
   12    4   19      0.41      0.00
   14    4   19      0.47      0.00
   16    4   19     -0.39      0.00
   18    4   19     -1.29      0.00
  -19    5   19     -0.41      0.00
  -17    5   19     -0.48      0.00
  -15    5   19     -0.40      0.00
  -13    5   19     -0.04      0.00
  -11    5   19      0.58      0.00
   -9    5   19      1.10      0.00
   -7    5   19      1.24      0.00
   -5    5   19      0.88      0.00
   -3    5   19      0.20      0.00
   -1    5   19     -0.25      0.00
    1    5   19     -0.17      0.00
    3    5   19      0.01      0.00
    5    5   19     -0.09      0.00
    7    5   19     -0.22      0.00
    9    5   19     -0.12      0.00
   11    5   19      0.23      0.00
   13    5   19      0.64      0.00
   15    5   19      0.71      0.00
   17    5   19      0.42      0.00
  -16    6   19     -2.01      0.00
  -14    6   19     -0.53      0.00
  -12    6   19      0.94      0.00
  -10    6   19      1.60      0.00
   -8    6   19      1.23      0.00
   -6    6   19      0.30      0.00
   -4    6   19     -0.67      0.00
   -2    6   19     -1.24      0.00
    0    6   19     -1.16      0.00
    2    6   19     -0.73      0.00
    4    6   19     -0.36      0.00
    6    6   19     -0.07      0.00
    8    6   19     -0.06      0.00
   10    6   19     -0.49      0.00
   12    6   19     -0.76      0.00
   14    6   19     -0.42      0.00
   16    6   19      0.10      0.00
  -15    7   19     -1.64      0.00
  -13    7   19     -0.01      0.00
  -11    7   19      0.97      0.00
   -9    7   19      0.90      0.00
   -7    7   19      0.38      0.00
   -5    7   19     -0.14      0.00
   -3    7   19     -0.69      0.00
   -1    7   19     -0.89      0.00
    1    7   19     -0.29      0.00
    3    7   19      0.68      0.00
    5    7   19      1.17      0.00
    7    7   19      0.70      0.00
    9    7   19     -0.46      0.00
   11    7   19     -1.21      0.00
   13    7   19     -0.85      0.00
  -10    8   19      0.16      0.00
   -8    8   19      0.21      0.00
   -6    8   19      0.43      0.00
   -4    8   19     -0.16      0.00
   -2    8   19     -1.27      0.00
    0    8   19     -1.14      0.00
    2    8   19      0.79      0.00
    4    8   19      2.70      0.00
    6    8   19      2.65      0.00
    8    8   19      0.66      0.00
   10    8   19     -1.30      0.00
   -3    9   19     -0.31      0.00
   -1    9   19     -1.63      0.00
    1    9   19     -1.30      0.00
    3    9   19      0.47      0.00
  -22    0   20     -0.23      0.00
  -20    0   20      0.63      0.00
  -18    0   20      0.90      0.00
  -16    0   20      0.70      0.00
  -14    0   20      1.00      0.00
  -12    0   20      1.95      0.00
  -10    0   20      2.22      0.00
   -8    0   20      0.70      0.00
   -6    0   20     -1.51      0.00
   -4    0   20     -2.29      0.00
   -2    0   20     -1.23      0.00
    0    0   20      0.22      0.00
    2    0   20      0.71      0.00
    4    0   20      0.14      0.00
    6    0   20     -0.43      0.00
    8    0   20      0.03      0.00
   10    0   20      1.17      0.00
   12    0   20      1.70      0.00
   14    0   20      0.90      0.00
   16    0   20     -0.64      0.00
   18    0   20     -1.52      0.00
   20    0   20     -0.87      0.00
  -21    1   20      1.13      0.00
  -19    1   20      1.03      0.00
  -17    1   20      0.55      0.00
  -15    1   20      0.39      0.00
  -13    1   20      0.72      0.00
  -11    1   20      0.91      0.00
   -9    1   20      0.15      0.00
   -7    1   20     -1.31      0.00
   -5    1   20     -2.13      0.00
   -3    1   20     -1.48      0.00
   -1    1   20     -0.12      0.00
    1    1   20      0.65      0.00
    3    1   20      0.26      0.00
    5    1   20     -0.63      0.00
    7    1   20     -0.77      0.00
    9    1   20      0.12      0.00
   11    1   20      1.01      0.00
   13    1   20      0.91      0.00
   15    1   20     -0.05      0.00
   17    1   20     -0.89      0.00
   19    1   20     -0.77      0.00
  -20    2   20      0.65      0.00
  -18    2   20      0.42      0.00
  -16    2   20      0.85      0.00
  -14    2   20      1.18      0.00
  -12    2   20      0.58      0.00
  -10    2   20     -0.73      0.00
   -8    2   20     -1.90      0.00
   -6    2   20     -2.22      0.00
   -4    2   20     -1.50      0.00
   -2    2   20     -0.31      0.00
    0    2   20      0.41      0.00
    2    2   20      0.09      0.00
    4    2   20     -0.84      0.00
    6    2   20     -1.25      0.00
    8    2   20     -0.65      0.00
   10    2   20      0.26      0.00
   12    2   20      0.59      0.00
   14    2   20      0.35      0.00
   16    2   20      0.10      0.00
   18    2   20      0.12      0.00
   20    2   20      0.26      0.00
  -19    3   20      0.24      0.00
  -17    3   20      0.40      0.00
  -15    3   20      0.83      0.00
  -13    3   20      0.87      0.00
  -11    3   20      0.23      0.00
   -9    3   20     -0.81      0.00
   -7    3   20     -1.64      0.00
   -5    3   20     -1.69      0.00
   -3    3   20     -0.96      0.00
   -1    3   20     -0.24      0.00
    1    3   20     -0.28      0.00
    3    3   20     -0.75      0.00
    5    3   20     -0.64      0.00
    7    3   20      0.36      0.00
    9    3   20      1.36      0.00
   11    3   20      1.51      0.00
   13    3   20      0.93      0.00
   15    3   20      0.24      0.00
   17    3   20     -0.19      0.00
   19    3   20     -0.48      0.00
  -18    4   20      0.89      0.00
  -16    4   20     -0.30      0.00
  -14    4   20     -0.58      0.00
  -12    4   20      0.09      0.00
  -10    4   20      0.40      0.00
   -8    4   20     -0.34      0.00
   -6    4   20     -1.20      0.00
   -4    4   20     -0.92      0.00
   -2    4   20      0.26      0.00
    0    4   20      0.97      0.00
    2    4   20      0.61      0.00
    4    4   20      0.06      0.00
    6    4   20      0.25      0.00
    8    4   20      0.89      0.00
   10    4   20      1.09      0.00
   12    4   20      0.43      0.00
   14    4   20     -0.83      0.00
   16    4   20     -1.88      0.00
   18    4   20     -2.06      0.00
  -17    5   20      1.66      0.00
  -15    5   20      0.41      0.00
  -13    5   20      0.13      0.00
  -11    5   20      0.41      0.00
   -9    5   20      0.16      0.00
   -7    5   20     -0.62      0.00
   -5    5   20     -0.87      0.00
   -3    5   20      0.01      0.00
   -1    5   20      1.18      0.00
    1    5   20      1.31      0.00
    3    5   20      0.21      0.00
    5    5   20     -0.97      0.00
    7    5   20     -1.18      0.00
    9    5   20     -0.46      0.00
   11    5   20      0.27      0.00
   13    5   20      0.03      0.00
   15    5   20     -1.02      0.00
  -16    6   20      1.37      0.00
  -14    6   20      0.79      0.00
  -12    6   20      0.29      0.00
  -10    6   20     -0.11      0.00
   -8    6   20     -0.49      0.00
   -6    6   20     -0.76      0.00
   -4    6   20     -0.61      0.00
   -2    6   20     -0.04      0.00
    0    6   20      0.20      0.00
    2    6   20     -0.45      0.00
    4    6   20     -1.39      0.00
    6    6   20     -1.58      0.00
    8    6   20     -0.74      0.00
   10    6   20      0.47      0.00
   12    6   20      1.10      0.00
   14    6   20      0.83      0.00
  -13    7   20     -0.06      0.00
  -11    7   20     -0.41      0.00
   -9    7   20     -1.13      0.00
   -7    7   20     -1.34      0.00
   -5    7   20     -0.55      0.00
   -3    7   20      0.69      0.00
   -1    7   20      1.10      0.00
    1    7   20      0.20      0.00
    3    7   20     -0.94      0.00
    5    7   20     -1.04      0.00
    7    7   20     -0.25      0.00
    9    7   20      0.41      0.00
   11    7   20      0.41      0.00
   -8    8   20     -0.99      0.00
   -6    8   20     -0.50      0.00
   -4    8   20      1.04      0.00
   -2    8   20      1.97      0.00
    0    8   20      1.24      0.00
    2    8   20     -0.25      0.00
    4    8   20     -0.89      0.00
    6    8   20     -0.47      0.00
  -19    1   21      1.09      0.00
  -17    1   21      0.30      0.00
  -15    1   21     -0.56      0.00
  -13    1   21     -0.51      0.00
  -11    1   21      0.14      0.00
   -9    1   21      0.35      0.00
   -7    1   21     -0.13      0.00
   -5    1   21     -0.67      0.00
   -3    1   21     -0.79      0.00
   -1    1   21     -0.50      0.00
    1    1   21      0.01      0.00
    3    1   21      0.57      0.00
    5    1   21      0.70      0.00
    7    1   21      0.13      0.00
    9    1   21     -0.48      0.00
   11    1   21     -0.38      0.00
   13    1   21      0.18      0.00
   15    1   21      0.34      0.00
   17    1   21     -0.07      0.00
   19    1   21     -0.42      0.00
  -20    2   21      1.50      0.00
  -18    2   21      0.54      0.00
  -16    2   21     -0.59      0.00
  -14    2   21     -1.00      0.00
  -12    2   21     -0.73      0.00
  -10    2   21     -0.36      0.00
   -8    2   21     -0.24      0.00
   -6    2   21     -0.34      0.00
   -4    2   21     -0.45      0.00
   -2    2   21     -0.40      0.00
    0    2   21     -0.06      0.00
    2    2   21      0.65      0.00
    4    2   21      1.30      0.00
    6    2   21      1.20      0.00
    8    2   21      0.39      0.00
   10    2   21     -0.24      0.00
   12    2   21     -0.14      0.00
   14    2   21      0.37      0.00
   16    2   21      0.75      0.00
   18    2   21      0.73      0.00
  -19    3   21      0.19      0.00
  -17    3   21      0.32      0.00
  -15    3   21      0.82      0.00
  -13    3   21      0.66      0.00
  -11    3   21     -0.22      0.00
   -9    3   21     -0.83      0.00
   -7    3   21     -0.74      0.00
   -5    3   21     -0.48      0.00
   -3    3   21     -0.49      0.00
   -1    3   21     -0.63      0.00
    1    3   21     -0.47      0.00
    3    3   21      0.20      0.00
    5    3   21      0.89      0.00
    7    3   21      0.84      0.00
    9    3   21      0.08      0.00
   11    3   21     -0.55      0.00
   13    3   21     -0.15      0.00
   15    3   21      1.33      0.00
   17    3   21      2.68      0.00
  -16    4   21      0.62      0.00
  -14    4   21      1.25      0.00
  -12    4   21      0.87      0.00
  -10    4   21     -0.02      0.00
   -8    4   21     -0.50      0.00
   -6    4   21     -0.49      0.00
   -4    4   21     -0.53      0.00
   -2    4   21     -0.99      0.00
    0    4   21     -1.58      0.00
    2    4   21     -1.36      0.00
    4    4   21     -0.07      0.00
    6    4   21      1.15      0.00
    8    4   21      1.06      0.00
   10    4   21     -0.07      0.00
   12    4   21     -0.76      0.00
   14    4   21      0.09      0.00
   16    4   21      1.79      0.00
  -15    5   21     -0.29      0.00
  -13    5   21      0.06      0.00
  -11    5   21      0.01      0.00
   -9    5   21     -0.29      0.00
   -7    5   21     -0.29      0.00
   -5    5   21      0.15      0.00
   -3    5   21      0.43      0.00
   -1    5   21      0.00      0.00
    1    5   21     -0.50      0.00
    3    5   21      0.02      0.00
    5    5   21      1.18      0.00
    7    5   21      1.56      0.00
    9    5   21      0.69      0.00
   11    5   21     -0.57      0.00
   13    5   21     -1.17      0.00
  -12    6   21     -0.87      0.00
  -10    6   21     -1.30      0.00
   -8    6   21     -0.97      0.00
   -6    6   21     -0.08      0.00
   -4    6   21      0.77      0.00
   -2    6   21      0.87      0.00
    0    6   21      0.20      0.00
    2    6   21     -0.35      0.00
    4    6   21     -0.22      0.00
    6    6   21      0.20      0.00
    8    6   21      0.44      0.00
   10    6   21      0.36      0.00
   12    6   21     -0.07      0.00
   -9    7   21     -1.64      0.00
   -7    7   21     -0.98      0.00
   -5    7   21     -0.07      0.00
   -3    7   21      0.68      0.00
   -1    7   21      0.71      0.00
    1    7   21     -0.13      0.00
    3    7   21     -1.02      0.00
    5    7   21     -1.13      0.00
    7    7   21     -0.41      0.00
    9    7   21      0.43      0.00
   -2    8   21      1.48      0.00
    0    8   21      1.00      0.00
  -18    0   22     -1.48      0.00
  -16    0   22      0.35      0.00
  -14    0   22      1.21      0.00
  -12    0   22      0.39      0.00
  -10    0   22     -0.50      0.00
   -8    0   22     -0.06      0.00
   -6    0   22      0.90      0.00
   -4    0   22      0.87      0.00
   -2    0   22     -0.19      0.00
    0    0   22     -0.91      0.00
    2    0   22     -0.51      0.00
    4    0   22      0.35      0.00
    6    0   22      0.60      0.00
    8    0   22      0.02      0.00
   10    0   22     -0.78      0.00
   12    0   22     -1.01      0.00
   14    0   22     -0.26      0.00
   16    0   22      0.92      0.00
  -17    1   22     -1.01      0.00
  -15    1   22      0.72      0.00
  -13    1   22      1.38      0.00
  -11    1   22      1.13      0.00
   -9    1   22      1.01      0.00
   -7    1   22      1.37      0.00
   -5    1   22      1.49      0.00
   -3    1   22      0.71      0.00
   -1    1   22     -0.49      0.00
    1    1   22     -0.96      0.00
    3    1   22     -0.36      0.00
    5    1   22      0.39      0.00
    7    1   22      0.43      0.00
    9    1   22     -0.17      0.00
   11    1   22     -0.69      0.00
   13    1   22     -0.60      0.00
   15    1   22      0.01      0.00
   17    1   22      0.51      0.00
  -18    2   22     -1.40      0.00
  -16    2   22     -0.88      0.00
  -14    2   22      0.00      0.00
  -12    2   22      1.13      0.00
  -10    2   22      2.00      0.00
   -8    2   22      2.33      0.00
   -6    2   22      2.21      0.00
   -4    2   22      1.59      0.00
   -2    2   22      0.41      0.00
    0    2   22     -0.74      0.00
    2    2   22     -0.96      0.00
    4    2   22     -0.28      0.00
    6    2   22      0.41      0.00
    8    2   22      0.58      0.00
   10    2   22      0.33      0.00
   12    2   22     -0.08      0.00
   14    2   22     -0.55      0.00
   16    2   22     -0.92      0.00
  -17    3   22     -0.24      0.00
  -15    3   22     -0.29      0.00
  -13    3   22     -0.13      0.00
  -11    3   22      0.54      0.00
   -9    3   22      1.43      0.00
   -7    3   22      1.96      0.00
   -5    3   22      1.78      0.00
   -3    3   22      0.98      0.00
   -1    3   22      0.12      0.00
    1    3   22     -0.31      0.00
    3    3   22     -0.39      0.00
    5    3   22     -0.46      0.00
    7    3   22     -0.42      0.00
    9    3   22     -0.17      0.00
   11    3   22      0.00      0.00
   13    3   22     -0.22      0.00
   15    3   22     -0.63      0.00
  -16    4   22      1.15      0.00
  -14    4   22      1.15      0.00
  -12    4   22      0.52      0.00
  -10    4   22      0.47      0.00
   -8    4   22      1.06      0.00
   -6    4   22      1.26      0.00
   -4    4   22      0.52      0.00
   -2    4   22     -0.47      0.00
    0    4   22     -0.86      0.00
    2    4   22     -0.78      0.00
    4    4   22     -0.86      0.00
    6    4   22     -1.04      0.00
    8    4   22     -0.85      0.00
   10    4   22     -0.24      0.00
   12    4   22      0.54      0.00
   14    4   22      1.31      0.00
  -13    5   22      0.98      0.00
  -11    5   22      0.84      0.00
   -9    5   22      0.74      0.00
   -7    5   22      0.61      0.00
   -5    5   22      0.13      0.00
   -3    5   22     -0.69      0.00
   -1    5   22     -1.20      0.00
    1    5   22     -0.85      0.00
    3    5   22      0.13      0.00
    5    5   22      1.01      0.00
    7    5   22      1.22      0.00
    9    5   22      0.80      0.00
   11    5   22      0.46      0.00
  -10    6   22      1.48      0.00
   -8    6   22      1.06      0.00
   -6    6   22      0.43      0.00
   -4    6   22     -0.11      0.00
   -2    6   22     -0.52      0.00
    0    6   22     -0.44      0.00
    2    6   22      0.45      0.00
    4    6   22      1.68      0.00
    6    6   22      2.28      0.00
    8    6   22      1.73      0.00
   -5    7   22      0.18      0.00
   -3    7   22     -0.95      0.00
   -1    7   22     -1.18      0.00
    1    7   22     -0.46      0.00
    3    7   22      0.39      0.00
  -15    1   23      0.34      0.00
  -13    1   23     -0.03      0.00
  -11    1   23     -1.09      0.00
   -9    1   23     -1.73      0.00
   -7    1   23     -1.49      0.00
   -5    1   23     -0.76      0.00
   -3    1   23      0.05      0.00
   -1    1   23      0.61      0.00
    1    1   23      0.50      0.00
    3    1   23     -0.30      0.00
    5    1   23     -0.90      0.00
    7    1   23     -0.56      0.00
    9    1   23      0.31      0.00
   11    1   23      0.79      0.00
   13    1   23      0.68      0.00
   15    1   23      0.46      0.00
  -16    2   23      0.37      0.00
  -14    2   23      1.38      0.00
  -12    2   23      1.23      0.00
  -10    2   23      0.12      0.00
   -8    2   23     -0.90      0.00
   -6    2   23     -0.97      0.00
   -4    2   23     -0.08      0.00
   -2    2   23      1.00      0.00
    0    2   23      1.28      0.00
    2    2   23      0.41      0.00
    4    2   23     -0.81      0.00
    6    2   23     -1.20      0.00
    8    2   23     -0.59      0.00
   10    2   23      0.25      0.00
   12    2   23      0.52      0.00
   14    2   23      0.09      0.00
  -15    3   23     -0.46      0.00
  -13    3   23      0.48      0.00
  -11    3   23      1.08      0.00
   -9    3   23      0.71      0.00
   -7    3   23      0.05      0.00
   -5    3   23      0.10      0.00
   -3    3   23      0.81      0.00
   -1    3   23      1.28      0.00
    1    3   23      0.81      0.00
    3    3   23     -0.29      0.00
    5    3   23     -1.03      0.00
    7    3   23     -0.79      0.00
    9    3   23      0.08      0.00
   11    3   23      0.66      0.00
   13    3   23      0.11      0.00
  -12    4   23     -0.97      0.00
  -10    4   23     -0.19      0.00
   -8    4   23      0.29      0.00
   -6    4   23      0.38      0.00
   -4    4   23      0.51      0.00
   -2    4   23      0.90      0.00
    0    4   23      1.07      0.00
    2    4   23      0.31      0.00
    4    4   23     -0.98      0.00
    6    4   23     -1.50      0.00
    8    4   23     -0.68      0.00
   10    4   23      0.57      0.00
   12    4   23      0.77      0.00
  -11    5   23     -0.49      0.00
   -9    5   23      0.27      0.00
   -7    5   23      0.67      0.00
   -5    5   23      0.36      0.00
   -3    5   23      0.11      0.00
   -1    5   23      0.48      0.00
    1    5   23      0.61      0.00
    3    5   23     -0.33      0.00
    5    5   23     -1.47      0.00
    7    5   23     -1.45      0.00
    9    5   23     -0.29      0.00
   -6    6   23      0.24      0.00
   -4    6   23     -0.36      0.00
   -2    6   23     -0.16      0.00
    0    6   23      0.65      0.00
    2    6   23      1.05      0.00
    4    6   23      0.65      0.00
  -14    0   24     -2.34      0.00
  -12    0   24     -1.11      0.00
  -10    0   24      1.06      0.00
   -8    0   24      2.33      0.00
   -6    0   24      2.10      0.00
   -4    0   24      1.14      0.00
    4    0   24     -0.73      0.00
    6    0   24     -0.44      0.00
    8    0   24     -0.29      0.00
   10    0   24     -0.14      0.00
   12    0   24      0.05      0.00
  -13    1   24     -2.83      0.00
  -11    1   24     -1.75      0.00
   -9    1   24      0.06      0.00
   -7    1   24      1.06      0.00
   -5    1   24      0.84      0.00
   -3    1   24      0.22      0.00
   -1    1   24     -0.16      0.00
    1    1   24     -0.42      0.00
    3    1   24     -0.66      0.00
    5    1   24     -0.74      0.00
    7    1   24     -0.68      0.00
    9    1   24     -0.52      0.00
   11    1   24     -0.20      0.00
  -12    2   24     -2.89      0.00
  -10    2   24     -2.56      0.00
   -8    2   24     -1.41      0.00
   -6    2   24     -0.56      0.00
   -4    2   24     -0.31      0.00
   -2    2   24     -0.11      0.00
    0    2   24      0.14      0.00
    2    2   24      0.09      0.00
    4    2   24     -0.27      0.00
    6    2   24     -0.64      0.00
    8    2   24     -0.87      0.00
   10    2   24     -0.77      0.00
   12    2   24     -0.24      0.00
  -11    3   24     -1.17      0.00
   -9    3   24     -1.54      0.00
   -7    3   24     -1.33      0.00
   -5    3   24     -0.74      0.00
   -3    3   24     -0.28      0.00
   -1    3   24     -0.21      0.00
    1    3   24     -0.28      0.00
    3    3   24     -0.04      0.00
    5    3   24      0.38      0.00
    7    3   24      0.37      0.00
    9    3   24     -0.06      0.00
  -10    4   24     -0.43      0.00
   -8    4   24     -0.85      0.00
   -6    4   24     -0.56      0.00
   -4    4   24      0.08      0.00
   -2    4   24      0.18      0.00
    0    4   24     -0.24      0.00
    2    4   24     -0.23      0.00
    4    4   24      0.57      0.00
    6    4   24      1.23      0.00
    8    4   24      0.98      0.00
   -7    5   24      0.40      0.00
   -5    5   24      0.94      0.00
   -3    5   24      0.96      0.00
   -1    5   24      0.48      0.00
    1    5   24     -0.15      0.00
    3    5   24     -0.57      0.00
    5    5   24     -0.70      0.00
  -11    1   25      2.16      0.00
   -9    1   25      2.97      0.00
   -7    1   25      2.67      0.00
   -5    1   25      1.41      0.00
   -3    1   25     -0.09      0.00
   -1    1   25     -0.88      0.00
    3    1   25      0.63      0.00
    5    1   25      1.15      0.00
    7    1   25      0.63      0.00
    9    1   25     -0.31      0.00
  -10    2   25      0.74      0.00
   -8    2   25      1.94      0.00
   -6    2   25      1.55      0.00
   -4    2   25     -0.17      0.00
   -2    2   25     -1.70      0.00
    0    2   25     -1.74      0.00
    2    2   25     -0.59      0.00
    4    2   25      0.42      0.00
    6    2   25      0.42      0.00
    8    2   25     -0.29      0.00
   -7    3   25     -0.01      0.00
   -5    3   25     -0.35      0.00
   -3    3   25     -1.21      0.00
   -1    3   25     -1.41      0.00
    1    3   25     -0.68      0.00
    3    3   25      0.12      0.00
    5    3   25      0.27      0.00
    7    3   25     -0.12      0.00
   -4    4   25     -0.45      0.00
   -2    4   25     -0.40      0.00
    0    4   25     -0.22      0.00
    2    4   25      0.31      0.00
   -6    0   26     -2.78      0.00
   -5    1   26     -1.01      0.00
   -3    1   26      0.77      0.00
    5    1   26      0.31      0.00
   -4    2   26      0.33      0.00
   -2    2   26      0.95      0.00
    0    2   26      1.07      0.00
    2    2   26      0.76      0.00
   16    0    0     -1.89      0.00
   33    1    0      0.00      0.00
    9    3    0     -4.53      0.00
   13    3    0     -1.15      0.00
   33    3    0      1.82      0.00
   32    4    0      0.64      0.00
    1    5    0     14.49      0.00
    3    5    0      7.00      0.00
    5    5    0     -1.86      0.00
   31    5    0     -0.55      0.00
   30    6    0      0.95      0.00
   29    7    0      0.59      0.00
   26    8    0     -1.69      0.00
   28    8    0     -1.02      0.00
   25    9    0     -0.15      0.00
   27    9    0     -0.38      0.00
   22   10    0      0.15      0.00
   24   10    0      0.60      0.00
   19   11    0     -0.60      0.00
   21   11    0     -0.94      0.00
   14   12    0     -0.70      0.00
   16   12    0     -0.36      0.00
   18   12    0     -0.20      0.00
    5   13    0      0.71      0.00
    7   13    0      0.50      0.00
    9   13    0      0.40      0.00
   11   13    0     -0.02      0.00
   13   13    0     -0.52      0.00
    0   14    0      2.68      0.00
    2   14    0      2.32      0.00
    4   14    0      1.27      0.00
  -33    1    1      0.31      0.00
   -1    1    1     79.72      0.00
   33    1    1      0.77      0.00
   -8    2    1     -7.66      0.00
   10    2    1      3.66      0.00
  -33    3    1      0.18      0.00
   -5    3    1     -2.70      0.00
    1    3    1      8.23      0.00
   33    3    1      0.52      0.00
  -32    4    1      1.10      0.00
   32    4    1      1.80      0.00
  -31    5    1      0.18      0.00
   31    5    1      0.22      0.00
  -30    6    1      0.71      0.00
    6    6    1      0.08      0.00
   30    6    1     -0.23      0.00
  -29    7    1      2.12      0.00
   29    7    1      1.32      0.00
  -28    8    1      1.76      0.00
  -26    8    1      1.77      0.00
   26    8    1      1.83      0.00
   28    8    1      1.35      0.00
  -27    9    1     -0.02      0.00
  -25    9    1     -0.53      0.00
   25    9    1     -0.18      0.00
   27    9    1      0.34      0.00
  -24   10    1     -0.75      0.00
  -22   10    1     -0.57      0.00
   22   10    1     -0.59      0.00
   24   10    1     -0.31      0.00
  -21   11    1     -0.59      0.00
  -19   11    1     -0.37      0.00
   19   11    1     -0.63      0.00
   21   11    1     -0.62      0.00
  -18   12    1      0.21      0.00
  -16   12    1      0.60      0.00
  -14   12    1      0.12      0.00
   14   12    1      0.97      0.00
   16   12    1      1.12      0.00
   18   12    1      0.15      0.00
  -13   13    1     -0.01      0.00
  -11   13    1      0.33      0.00
   -9   13    1      0.77      0.00
   -7   13    1      0.72      0.00
   -5   13    1     -0.21      0.00
    5   13    1      0.06      0.00
    7   13    1     -0.11      0.00
    9   13    1     -0.73      0.00
   11   13    1     -1.14      0.00
   13   13    1     -0.80      0.00
   -4   14    1      0.44      0.00
   -2   14    1     -0.68      0.00
    0   14    1     -1.22      0.00
    2   14    1     -0.52      0.00
    4   14    1      0.42      0.00
  -14    0    2    -10.72      0.00
  -12    0    2     -2.18      0.00
  -10    0    2     24.73      0.00
    0    0    2   -145.38      0.00
    6    0    2     46.01      0.00
  -33    1    2      0.72      0.00
   -3    1    2    -61.74      0.00
    7    1    2     38.83      0.00
   33    1    2      0.09      0.00
   -4    2    2      5.03      0.00
  -33    3    2     -1.27      0.00
  -11    3    2     -1.97      0.00
   33    3    2     -1.60      0.00
  -32    4    2     -0.64      0.00
   32    4    2     -0.45      0.00
  -31    5    2     -0.20      0.00
   -3    5    2    -12.01      0.00
   -1    5    2    -13.25      0.00
   31    5    2      1.15      0.00
  -30    6    2     -1.18      0.00
    2    6    2     -0.25      0.00
   30    6    2     -0.68      0.00
  -29    7    2     -0.62      0.00
   29    7    2     -1.07      0.00
  -28    8    2      1.04      0.00
  -26    8    2      1.42      0.00
   26    8    2      0.74      0.00
   28    8    2      0.22      0.00
  -27    9    2      1.11      0.00
  -25    9    2      0.84      0.00
   25    9    2     -0.44      0.00
  -24   10    2     -0.10      0.00
  -22   10    2     -0.20      0.00
   22   10    2     -0.08      0.00
   24   10    2     -0.82      0.00
  -21   11    2      0.06      0.00
  -19   11    2     -0.09      0.00
   19   11    2      0.61      0.00
   21   11    2      0.84      0.00
  -18   12    2     -0.29      0.00
  -16   12    2     -0.26      0.00
  -14   12    2     -0.49      0.00
   14   12    2      0.76      0.00
   16   12    2      0.41      0.00
   18   12    2      0.33      0.00
  -13   13    2     -0.64      0.00
  -11   13    2     -1.30      0.00
   -9   13    2     -1.25      0.00
   -7   13    2     -1.01      0.00
   -5   13    2     -1.33      0.00
    5   13    2      0.23      0.00
    7   13    2     -0.14      0.00
    9   13    2     -0.19      0.00
   11   13    2      0.37      0.00
   13   13    2      0.81      0.00
   -4   14    2     -2.00      0.00
   -2   14    2     -2.50      0.00
    0   14    2     -1.99      0.00
    2   14    2     -0.92      0.00
    4   14    2      0.19      0.00
  -33    1    3     -0.02      0.00
   -9    1    3     11.32      0.00
   -5    1    3    -20.72      0.00
    3    1    3     -3.95      0.00
   33    1    3     -0.99      0.00
   -4    2    3    -26.00      0.00
   -2    2    3    -38.66      0.00
    6    2    3     10.45      0.00
   32    2    3      0.33      0.00
  -33    3    3      0.49      0.00
   -9    3    3     -0.85      0.00
   33    3    3     -0.21      0.00
  -32    4    3      0.50      0.00
   -4    4    3      8.12      0.00
   32    4    3     -1.50      0.00
  -31    5    3      0.94      0.00
   31    5    3      0.08      0.00
  -30    6    3     -0.24      0.00
   30    6    3      1.44      0.00
  -29    7    3     -1.37      0.00
   29    7    3      0.22      0.00
  -28    8    3     -1.34      0.00
  -26    8    3     -1.45      0.00
   26    8    3     -1.25      0.00
   28    8    3     -0.68      0.00
  -25    9    3     -0.18      0.00
   25    9    3     -0.16      0.00
  -24   10    3      0.47      0.00
  -22   10    3      0.24      0.00
   22   10    3      0.60      0.00
   24   10    3      0.36      0.00
  -21   11    3      0.23      0.00
  -19   11    3      0.24      0.00
   19   11    3      0.97      0.00
   21   11    3      0.53      0.00
  -18   12    3     -0.54      0.00
  -16   12    3     -0.25      0.00
  -14   12    3      0.42      0.00
   14   12    3     -1.42      0.00
   16   12    3     -1.06      0.00
   18   12    3     -0.03      0.00
  -13   13    3     -0.84      0.00
  -11   13    3     -1.48      0.00
   -9   13    3     -1.42      0.00
   -7   13    3     -0.52      0.00
   -5   13    3      0.99      0.00
   -3   13    3      2.45      0.00
    3   13    3      0.20      0.00
    5   13    3      0.56      0.00
    7   13    3      1.19      0.00
    9   13    3      1.44      0.00
   11   13    3      1.11      0.00
   13   13    3      0.27      0.00
   -2   14    3      0.63      0.00
    0   14    3      0.73      0.00
    2   14    3      0.21      0.00
   -6    0    4      1.21      0.00
   -2    0    4     78.99      0.00
    6    0    4    -31.78      0.00
  -33    1    4     -1.57      0.00
   -1    1    4     44.80      0.00
    3    1    4     -8.37      0.00
    5    1    4    -25.59      0.00
    7    1    4    -21.52      0.00
   15    1    4      2.50      0.00
   33    1    4     -0.21      0.00
  -32    2    4     -1.93      0.00
    0    2    4     -3.21      0.00
   32    2    4      0.03      0.00
  -33    3    4     -0.17      0.00
   -9    3    4      6.78      0.00
   33    3    4      1.29      0.00
  -32    4    4     -0.32      0.00
   32    4    4      0.71      0.00
  -31    5    4      0.03      0.00
   31    5    4     -0.73      0.00
  -30    6    4      0.67      0.00
   30    6    4      0.76      0.00
  -29    7    4      0.30      0.00
   27    7    4      1.11      0.00
   29    7    4      1.58      0.00
  -28    8    4     -0.54      0.00
  -26    8    4     -0.40      0.00
   26    8    4      0.25      0.00
   28    8    4      0.54      0.00
  -25    9    4     -0.48      0.00
   25    9    4      0.68      0.00
  -24   10    4     -0.16      0.00
  -22   10    4      0.27      0.00
   22   10    4      0.57      0.00
   24   10    4      0.95      0.00
  -21   11    4      0.63      0.00
  -19   11    4      0.74      0.00
   17   11    4      0.04      0.00
   19   11    4     -0.39      0.00
   21   11    4     -0.30      0.00
  -18   12    4      0.31      0.00
  -16   12    4      0.60      0.00
  -14   12    4      1.31      0.00
   14   12    4     -0.25      0.00
   16   12    4     -0.08      0.00
  -13   13    4      1.35      0.00
  -11   13    4      1.56      0.00
   -9   13    4      0.81      0.00
   -7   13    4      0.38      0.00
   -5   13    4      1.03      0.00
   -3   13    4      1.65      0.00
   -1   13    4      1.00      0.00
    1   13    4     -0.43      0.00
    3   13    4     -1.17      0.00
    5   13    4     -0.49      0.00
    7   13    4      0.77      0.00
    9   13    4      1.07      0.00
   11   13    4      0.21      0.00
   -2   14    4      1.42      0.00
    0   14    4      0.55      0.00
  -33    1    5      0.15      0.00
   -7    1    5      2.27      0.00
   33    1    5      0.85      0.00
  -32    2    5     -0.26      0.00
   32    2    5     -0.17      0.00
  -33    3    5     -0.83      0.00
   31    3    5     -0.24      0.00
   33    3    5     -0.02      0.00
  -32    4    5     -1.78      0.00
   32    4    5      0.83      0.00
  -31    5    5     -1.85      0.00
    7    5    5      1.13      0.00
   31    5    5     -0.12      0.00
  -30    6    5     -0.42      0.00
   -2    6    5     -0.57      0.00
   30    6    5     -1.34      0.00
  -29    7    5      0.10      0.00
   27    7    5     -0.73      0.00
   29    7    5     -0.69      0.00
  -28    8    5      0.27      0.00
  -26    8    5      0.81      0.00
   26    8    5      0.06      0.00
   28    8    5      0.22      0.00
  -25    9    5      1.17      0.00
   23    9    5     -0.63      0.00
   25    9    5     -0.56      0.00
  -24   10    5      0.81      0.00
  -22   10    5      0.68      0.00
   22   10    5     -0.31      0.00
  -21   11    5      0.41      0.00
  -19   11    5     -0.08      0.00
  -17   11    5     -0.87      0.00
   17   11    5     -0.54      0.00
   19   11    5     -0.46      0.00
   21   11    5     -0.02      0.00
  -16   12    5     -0.21      0.00
  -14   12    5     -0.63      0.00
  -12   12    5     -0.60      0.00
   12   12    5      0.57      0.00
   14   12    5      1.03      0.00
   16   12    5      0.24      0.00
  -11   13    5      0.97      0.00
   -9   13    5      0.64      0.00
   -7   13    5     -0.29      0.00
   -5   13    5     -1.19      0.00
   -3   13    5     -1.18      0.00
   -1   13    5     -0.01      0.00
    1   13    5      0.69      0.00
    3   13    5     -0.29      0.00
    5   13    5     -1.58      0.00
    7   13    5     -1.71      0.00
    9   13    5     -0.99      0.00
   11   13    5     -0.09      0.00
  -32    0    6      1.33      0.00
    4    0    6     11.08      0.00
   32    0    6     -0.87      0.00
  -33    1    6      1.47      0.00
    5    1    6      6.83      0.00
   33    1    6     -0.30      0.00
  -32    2    6      2.14      0.00
   -2    2    6      3.48      0.00
   32    2    6     -0.33      0.00
  -33    3    6      1.18      0.00
  -11    3    6     -4.58      0.00
    1    3    6      3.09      0.00
   31    3    6     -1.39      0.00
   33    3    6     -0.99      0.00
  -32    4    6      1.20      0.00
   30    4    6     -0.39      0.00
   32    4    6     -0.69      0.00
  -31    5    6      0.69      0.00
   29    5    6     -0.33      0.00
   31    5    6      0.03      0.00
  -30    6    6      0.56      0.00
   28    6    6     -1.70      0.00
   30    6    6     -0.88      0.00
  -29    7    6      0.37      0.00
  -27    7    6      0.20      0.00
   27    7    6     -0.92      0.00
   29    7    6     -1.15      0.00
  -28    8    6     -0.04      0.00
  -26    8    6     -0.36      0.00
   26    8    6     -0.19      0.00
  -25    9    6     -0.48      0.00
  -23    9    6     -0.96      0.00
   23    9    6     -1.96      0.00
   25    9    6     -0.97      0.00
  -22   10    6     -0.25      0.00
  -20   10    6      0.00      0.00
   20   10    6     -0.97      0.00
   22   10    6     -1.61      0.00
  -21   11    6     -0.41      0.00
  -19   11    6     -0.64      0.00
  -17   11    6     -0.64      0.00
   17   11    6      0.34      0.00
   19   11    6      0.45      0.00
  -16   12    6     -0.48      0.00
  -14   12    6     -0.73      0.00
  -12   12    6     -0.42      0.00
   12   12    6     -0.36      0.00
   14   12    6      0.29      0.00
   16   12    6      0.12      0.00
  -11   13    6     -0.21      0.00
   -9   13    6      0.97      0.00
   -7   13    6      1.13      0.00
   -5   13    6      0.02      0.00
   -3   13    6     -0.87      0.00
   -1   13    6     -0.40      0.00
    1   13    6      0.69      0.00
    3   13    6      0.82      0.00
    5   13    6     -0.50      0.00
    7   13    6     -1.86      0.00
    9   13    6     -1.71      0.00
   11   13    6     -0.42      0.00
  -33    1    7     -0.22      0.00
   -9    1    7      3.15      0.00
    1    1    7      8.07      0.00
   33    1    7     -0.67      0.00
  -32    2    7     -0.21      0.00
   -4    2    7      0.02      0.00
   32    2    7     -0.33      0.00
  -33    3    7      0.59      0.00
  -31    3    7      0.79      0.00
   31    3    7     -0.15      0.00
   33    3    7     -0.31      0.00
  -32    4    7      1.49      0.00
   -2    4    7      1.89      0.00
    4    4    7     -2.18      0.00
   30    4    7     -0.29      0.00
   32    4    7     -0.40      0.00
  -31    5    7      1.04      0.00
   -3    5    7      5.96      0.00
   29    5    7      1.03      0.00
   31    5    7      0.22      0.00
  -30    6    7      0.26      0.00
  -28    6    7      0.20      0.00
   28    6    7      1.05      0.00
   30    6    7      0.57      0.00
  -29    7    7      0.64      0.00
  -27    7    7      0.42      0.00
   27    7    7      0.27      0.00
   29    7    7      0.15      0.00
  -26    8    7     -0.35      0.00
   26    8    7      0.53      0.00
  -25    9    7     -1.43      0.00
  -23    9    7     -1.72      0.00
   23    9    7      1.69      0.00
   25    9    7      1.27      0.00
  -22   10    7     -1.16      0.00
  -20   10    7      0.17      0.00
   20   10    7     -1.27      0.00
   22   10    7     -0.06      0.00
  -19   11    7      0.70      0.00
  -17   11    7      1.95      0.00
   17   11    7     -0.48      0.00
   19   11    7     -0.74      0.00
  -16   12    7      1.08      0.00
  -14   12    7      0.77      0.00
  -12   12    7      0.04      0.00
   10   12    7      0.25      0.00
   12   12    7     -0.71      0.00
   14   12    7     -0.46      0.00
   16   12    7      0.21      0.00
  -11   13    7     -0.08      0.00
   -9   13    7      0.16      0.00
   -7   13    7      0.53      0.00
   -5   13    7      0.45      0.00
   -3   13    7     -0.60      0.00
   -1   13    7     -1.75      0.00
    1   13    7     -1.10      0.00
    3   13    7      0.98      0.00
    5   13    7      2.06      0.00
    7   13    7      1.41      0.00
    9   13    7      0.26      0.00
  -32    0    8     -1.14      0.00
   32    0    8      1.19      0.00
  -33    1    8     -0.67      0.00
   31    1    8      0.55      0.00
   33    1    8      0.79      0.00
  -32    2    8     -0.82      0.00
    2    2    8      0.55      0.00
   32    2    8      0.73      0.00
  -33    3    8     -0.69      0.00
  -31    3    8     -1.45      0.00
   -7    3    8     -2.16      0.00
   31    3    8      1.10      0.00
  -32    4    8     -0.90      0.00
  -30    4    8     -1.16      0.00
   -2    4    8     -4.23      0.00
   30    4    8      0.10      0.00
  -31    5    8     -0.96      0.00
  -29    5    8     -1.17      0.00
   -1    5    8     -0.63      0.00
   29    5    8      0.28      0.00
   31    5    8      0.01      0.00
  -30    6    8     -1.28      0.00
  -28    6    8     -1.05      0.00
   28    6    8      1.41      0.00
  -29    7    8     -0.35      0.00
  -27    7    8      0.00      0.00
   27    7    8      0.29      0.00
  -26    8    8      0.33      0.00
   24    8    8     -0.27      0.00
   26    8    8     -0.47      0.00
  -25    9    8      0.38      0.00
  -23    9    8      0.65      0.00
   23    9    8      2.14      0.00
   25    9    8      0.76      0.00
  -22   10    8     -0.17      0.00
  -20   10    8     -0.50      0.00
   20   10    8      2.22      0.00
   22   10    8      2.10      0.00
  -19   11    8      0.20      0.00
  -17   11    8     -0.06      0.00
   15   11    8      0.25      0.00
   17   11    8     -0.14      0.00
   19   11    8     -0.32      0.00
  -16   12    8      0.58      0.00
  -14   12    8     -0.04      0.00
  -12   12    8     -1.18      0.00
  -10   12    8     -2.43      0.00
   10   12    8      1.44      0.00
   12   12    8      0.07      0.00
   14   12    8     -0.57      0.00
   -9   13    8     -1.81      0.00
   -7   13    8     -1.76      0.00
   -5   13    8     -0.70      0.00
   -3   13    8      0.18      0.00
   -1   13    8      0.21      0.00
    1   13    8     -0.01      0.00
    3   13    8      0.48      0.00
    5   13    8      1.61      0.00
    7   13    8      2.17      0.00
    9   13    8      1.42      0.00
  -33    1    9     -0.10      0.00
  -31    1    9      0.14      0.00
   -1    1    9     -1.33      0.00
   31    1    9      1.35      0.00
  -32    2    9      0.16      0.00
   30    2    9      0.51      0.00
   32    2    9      0.79      0.00
  -31    3    9     -0.04      0.00
   31    3    9      0.78      0.00
  -32    4    9     -0.18      0.00
  -30    4    9      0.00      0.00
   30    4    9      0.69      0.00
  -31    5    9      0.47      0.00
  -29    5    9      0.94      0.00
   -3    5    9     -7.43      0.00
    5    5    9      2.55      0.00
   29    5    9     -0.57      0.00
  -30    6    9      0.21      0.00
  -28    6    9      0.19      0.00
   28    6    9     -0.65      0.00
  -27    7    9      0.05      0.00
   25    7    9      0.53      0.00
   27    7    9      0.17      0.00
  -26    8    9      0.67      0.00
  -24    8    9      1.26      0.00
   24    8    9     -0.51      0.00
   26    8    9     -0.10      0.00
  -25    9    9      0.81      0.00
  -23    9    9      1.17      0.00
   21    9    9     -1.35      0.00
   23    9    9     -1.49      0.00
  -22   10    9      0.46      0.00
  -20   10    9     -0.59      0.00
   18   10    9      2.04      0.00
   20   10    9      1.29      0.00
  -19   11    9     -1.75      0.00
  -17   11    9     -2.76      0.00
  -15   11    9     -1.75      0.00
   15   11    9      0.98      0.00
   17   11    9      1.37      0.00
  -14   12    9     -0.59      0.00
  -12   12    9      0.35      0.00
  -10   12    9      0.72      0.00
   -8   12    9      0.64      0.00
    8   12    9     -1.32      0.00
   10   12    9      0.06      0.00
   12   12    9      0.61      0.00
   14   12    9      0.34      0.00
   -7   13    9     -0.11      0.00
   -5   13    9      0.20      0.00
   -3   13    9      1.09      0.00
   -1   13    9      1.47      0.00
    1   13    9      0.26      0.00
    3   13    9     -1.32      0.00
    5   13    9     -1.56      0.00
    7   13    9     -0.70      0.00
  -32    0   10      1.29      0.00
   -2    0   10     -4.38      0.00
    6    0   10      0.76      0.00
   30    0   10     -1.47      0.00
   32    0   10     -1.04      0.00
  -33    1   10      0.21      0.00
  -31    1   10      0.42      0.00
   31    1   10     -0.57      0.00
  -32    2   10     -0.40      0.00
   30    2   10     -0.31      0.00
   32    2   10     -0.60      0.00
  -31    3   10      0.39      0.00
   29    3   10     -1.18      0.00
   31    3   10     -0.88      0.00
  -30    4   10      0.39      0.00
   30    4   10      0.14      0.00
  -29    5   10      0.38      0.00
   29    5   10      0.45      0.00
  -28    6   10      0.09      0.00
   26    6   10     -0.86      0.00
   28    6   10     -0.49      0.00
  -27    7   10     -0.54      0.00
  -25    7   10     -0.23      0.00
   25    7   10     -0.18      0.00
   27    7   10     -0.03      0.00
  -26    8   10      0.40      0.00
  -24    8   10      0.79      0.00
   24    8   10      0.26      0.00
  -23    9   10      0.32      0.00
  -21    9   10      0.44      0.00
   21    9   10     -2.52      0.00
   23    9   10     -1.22      0.00
  -20   10   10      1.05      0.00
  -18   10   10      1.51      0.00
   18   10   10     -2.03      0.00
   20   10   10     -2.09      0.00
  -17   11   10      0.51      0.00
  -15   11   10      1.53      0.00
   13   11   10     -1.12      0.00
   15   11   10     -0.82      0.00
   17   11   10     -0.29      0.00
  -14   12   10      0.16      0.00
  -12   12   10      1.31      0.00
  -10   12   10      2.11      0.00
   -8   12   10      1.94      0.00
   -6   12   10      0.91      0.00
    6   12   10     -1.81      0.00
    8   12   10     -1.73      0.00
   10   12   10     -0.81      0.00
   12   12   10      0.09      0.00
   -5   13   10      0.25      0.00
   -3   13   10     -0.35      0.00
   -1   13   10     -0.52      0.00
    1   13   10     -0.56      0.00
    3   13   10     -0.92      0.00
    5   13   10     -1.39      0.00
  -31    1   11     -0.14      0.00
   31    1   11     -0.98      0.00
  -32    2   11      0.00      0.00
  -30    2   11     -0.98      0.00
   30    2   11     -0.48      0.00
  -31    3   11     -0.25      0.00
   -3    3   11     -1.38      0.00
   29    3   11     -0.60      0.00
   31    3   11     -0.91      0.00
  -30    4   11     -0.34      0.00
   28    4   11     -1.29      0.00
   30    4   11     -1.14      0.00
  -29    5   11     -0.76      0.00
   27    5   11      0.12      0.00
   29    5   11      0.00      0.00
  -28    6   11     -0.23      0.00
  -26    6   11      0.21      0.00
   26    6   11      1.00      0.00
   28    6   11      0.89      0.00
  -27    7   11     -0.95      0.00
  -25    7   11     -1.55      0.00
   25    7   11      0.05      0.00
   27    7   11      0.36      0.00
  -26    8   11     -1.06      0.00
  -24    8   11     -1.28      0.00
   22    8   11     -0.13      0.00
   24    8   11     -0.21      0.00
  -23    9   11     -0.32      0.00
  -21    9   11     -0.69      0.00
   21    9   11      0.27      0.00
   23    9   11      0.28      0.00
  -20   10   11      0.96      0.00
  -18   10   11      1.78      0.00
   16   10   11     -1.41      0.00
   18   10   11     -1.72      0.00
   20   10   11     -1.05      0.00
  -17   11   11      1.98      0.00
  -15   11   11      0.72      0.00
  -13   11   11     -1.01      0.00
   13   11   11     -0.81      0.00
   15   11   11     -1.02      0.00
   17   11   11     -1.21      0.00
  -12   12   11     -0.32      0.00
  -10   12   11     -0.21      0.00
   -8   12   11      0.08      0.00
   -6   12   11      0.10      0.00
   -4   12   11     -0.54      0.00
   -2   12   11     -1.09      0.00
    0   12   11     -0.28      0.00
    2   12   11      1.39      0.00
    4   12   11      2.26      0.00
    6   12   11      1.84      0.00
    8   12   11      0.78      0.00
   10   12   11     -0.18      0.00
   12   12   11     -0.46      0.00
   -3   13   11     -0.35      0.00
   -1   13   11     -0.30      0.00
    1   13   11      0.37      0.00
    3   13   11      0.85      0.00
  -32    0   12     -1.28      0.00
  -30    0   12     -1.38      0.00
    8    0   12     -0.41      0.00
   30    0   12      0.36      0.00
  -31    1   12     -0.46      0.00
   29    1   12     -0.43      0.00
   31    1   12      0.05      0.00
  -30    2   12     -0.40      0.00
   30    2   12      0.16      0.00
  -31    3   12     -0.58      0.00
  -29    3   12     -1.94      0.00
   29    3   12      1.30      0.00
  -30    4   12     -0.56      0.00
  -28    4   12     -1.16      0.00
   28    4   12      0.29      0.00
  -29    5   12      0.13      0.00
  -27    5   12     -0.10      0.00
   27    5   12     -0.84      0.00
  -28    6   12      0.65      0.00
  -26    6   12      0.81      0.00
   26    6   12     -0.19      0.00
  -27    7   12      0.56      0.00
  -25    7   12      0.12      0.00
   23    7   12      0.47      0.00
   25    7   12      0.31      0.00
  -24    8   12     -1.22      0.00
  -22    8   12     -1.03      0.00
   22    8   12      0.80      0.00
   24    8   12      0.22      0.00
  -23    9   12     -0.73      0.00
  -21    9   12     -0.90      0.00
  -19    9   12     -0.83      0.00
   19    9   12      2.45      0.00
   21    9   12      1.71      0.00
  -20   10   12     -0.87      0.00
  -18   10   12     -1.20      0.00
  -16   10   12     -1.34      0.00
   16   10   12      1.60      0.00
   18   10   12      1.36      0.00
  -15   11   12     -1.37      0.00
  -13   11   12     -2.31      0.00
  -11   11   12     -2.27      0.00
   11   11   12      0.88      0.00
   13   11   12      1.21      0.00
   15   11   12      0.85      0.00
  -10   12   12     -0.75      0.00
   -8   12   12     -0.34      0.00
   -6   12   12      0.06      0.00
   -4   12   12     -0.08      0.00
   -2   12   12     -0.53      0.00
    0   12   12     -0.51      0.00
    2   12   12      0.15      0.00
    4   12   12      0.89      0.00
    6   12   12      1.14      0.00
    8   12   12      0.74      0.00
   10   12   12      0.15      0.00
  -31    1   13      0.75      0.00
  -29    1   13      1.38      0.00
   29    1   13      0.02      0.00
  -30    2   13      1.37      0.00
    4    2   13     -3.50      0.00
   28    2   13     -1.00      0.00
   30    2   13      0.20      0.00
  -29    3   13      0.35      0.00
   -1    3   13      4.94      0.00
   27    3   13      0.03      0.00
   29    3   13      0.64      0.00
  -30    4   13     -0.03      0.00
  -28    4   13     -0.72      0.00
   28    4   13      1.63      0.00
  -29    5   13      0.06      0.00
  -27    5   13     -0.89      0.00
   27    5   13      0.28      0.00
  -26    6   13     -0.50      0.00
   24    6   13     -1.58      0.00
   26    6   13     -1.35      0.00
  -25    7   13      1.06      0.00
  -23    7   13      0.23      0.00
   23    7   13     -0.52      0.00
   25    7   13     -0.96      0.00
  -24    8   13      0.47      0.00
  -22    8   13      0.62      0.00
   20    8   13     -0.06      0.00
   22    8   13      0.13      0.00
  -21    9   13      0.49      0.00
  -19    9   13      0.84      0.00
   19    9   13      0.36      0.00
   21    9   13      0.50      0.00
  -18   10   13     -0.87      0.00
  -16   10   13     -0.48      0.00
   14   10   13      0.76      0.00
   16   10   13      1.31      0.00
   18   10   13      1.45      0.00
  -15   11   13      0.34      0.00
  -13   11   13      0.41      0.00
  -11   11   13     -0.44      0.00
   -9   11   13     -1.55      0.00
    9   11   13      0.85      0.00
   11   11   13      1.07      0.00
   13   11   13      0.87      0.00
  -10   12   13     -0.49      0.00
   -8   12   13     -0.88      0.00
   -6   12   13     -0.79      0.00
   -4   12   13     -0.11      0.00
   -2   12   13      0.41      0.00
    0   12   13      0.10      0.00
    2   12   13     -0.61      0.00
    4   12   13     -0.95      0.00
    6   12   13     -0.74      0.00
    8   12   13     -0.15      0.00
  -30    0   14      0.52      0.00
   28    0   14      1.02      0.00
   30    0   14      0.27      0.00
  -31    1   14      0.28      0.00
  -29    1   14     -0.31      0.00
   29    1   14      0.87      0.00
  -30    2   14      0.54      0.00
  -28    2   14      0.41      0.00
   28    2   14      0.16      0.00
  -29    3   14      2.04      0.00
   27    3   14     -1.32      0.00
   29    3   14     -0.95      0.00
  -28    4   14      1.27      0.00
   26    4   14     -0.14      0.00
   28    4   14     -0.24      0.00
  -27    5   14      0.52      0.00
   25    5   14      1.06      0.00
   27    5   14      0.88      0.00
  -26    6   14     -0.02      0.00
  -24    6   14      0.20      0.00
   24    6   14      0.48      0.00
   26    6   14      0.49      0.00
  -25    7   14      0.28      0.00
  -23    7   14      0.15      0.00
   23    7   14     -0.36      0.00
  -22    8   14      0.51      0.00
  -20    8   14     -0.01      0.00
   20    8   14     -0.83      0.00
   22    8   14     -0.65      0.00
  -21    9   14      0.66      0.00
  -19    9   14      0.72      0.00
  -17    9   14      0.50      0.00
   17    9   14     -1.51      0.00
   19    9   14     -1.47      0.00
  -18   10   14      0.17      0.00
  -16   10   14      0.49      0.00
  -14   10   14      1.22      0.00
   12   10   14     -1.46      0.00
   14   10   14     -1.55      0.00
   16   10   14     -1.04      0.00
  -13   11   14      1.77      0.00
  -11   11   14      1.53      0.00
   -9   11   14      0.24      0.00
   -7   11   14     -0.88      0.00
    5   11   14     -0.27      0.00
    7   11   14     -0.15      0.00
    9   11   14     -0.24      0.00
   11   11   14     -0.74      0.00
   13   11   14     -1.00      0.00
   -6   12   14     -0.82      0.00
   -4   12   14     -0.12      0.00
   -2   12   14      0.67      0.00
    0   12   14      0.76      0.00
    2   12   14      0.10      0.00
    4   12   14     -0.59      0.00
    6   12   14     -0.61      0.00
  -29    1   15     -1.48      0.00
   27    1   15      0.68      0.00
   29    1   15      0.07      0.00
  -30    2   15     -1.24      0.00
  -28    2   15     -1.04      0.00
   26    2   15      1.26      0.00
   28    2   15      0.65      0.00
  -29    3   15     -0.14      0.00
  -27    3   15      0.49      0.00
   27    3   15     -0.41      0.00
  -28    4   15      0.56      0.00
  -26    4   15      0.03      0.00
   26    4   15     -1.20      0.00
  -27    5   15      0.65      0.00
  -25    5   15      1.12      0.00
   25    5   15      0.50      0.00
  -26    6   15      0.65      0.00
  -24    6   15      1.93      0.00
   22    6   15      1.74      0.00
   24    6   15      1.68      0.00
  -23    7   15      0.62      0.00
   21    7   15      0.38      0.00
   23    7   15      0.80      0.00
  -22    8   15     -0.07      0.00
  -20    8   15     -1.45      0.00
   18    8   15      0.26      0.00
   20    8   15      0.09      0.00
  -19    9   15     -0.82      0.00
  -17    9   15     -0.12      0.00
   15    9   15     -0.41      0.00
   17    9   15      0.03      0.00
   19    9   15     -0.01      0.00
  -16   10   15      0.25      0.00
  -14   10   15      0.49      0.00
  -12   10   15      0.74      0.00
   10   10   15     -0.29      0.00
   12   10   15     -0.62      0.00
   14   10   15     -0.83      0.00
   16   10   15     -0.82      0.00
  -11   11   15      1.54      0.00
   -9   11   15      2.34      0.00
   -7   11   15      2.30      0.00
   -5   11   15      1.62      0.00
   -3   11   15      0.90      0.00
   -1   11   15      0.46      0.00
    1   11   15      0.13      0.00
    3   11   15     -0.29      0.00
    5   11   15     -0.69      0.00
    7   11   15     -0.96      0.00
    9   11   15     -1.11      0.00
   11   11   15     -1.02      0.00
   -2   12   15     -0.38      0.00
    0   12   15     -0.18      0.00
    2   12   15      0.11      0.00
  -28    0   16      1.38      0.00
   26    0   16     -0.43      0.00
   28    0   16     -0.47      0.00
  -29    1   16      1.04      0.00
  -27    1   16      1.86      0.00
   27    1   16     -0.76      0.00
  -28    2   16      0.77      0.00
   26    2   16     -0.01      0.00
   28    2   16     -0.29      0.00
  -27    3   16      0.64      0.00
   25    3   16      0.38      0.00
   27    3   16      0.40      0.00
  -26    4   16      0.23      0.00
   24    4   16     -0.70      0.00
   26    4   16     -0.51      0.00
  -25    5   16     -1.31      0.00
   23    5   16     -0.99      0.00
   25    5   16     -1.04      0.00
  -24    6   16     -0.45      0.00
  -22    6   16      0.82      0.00
   22    6   16     -0.31      0.00
   24    6   16     -0.32      0.00
  -23    7   16      0.03      0.00
  -21    7   16      0.70      0.00
   19    7   16      0.17      0.00
   21    7   16      0.16      0.00
  -20    8   16     -0.21      0.00
  -18    8   16     -0.86      0.00
   18    8   16     -0.18      0.00
   20    8   16     -0.13      0.00
  -19    9   16     -0.46      0.00
  -17    9   16     -0.55      0.00
  -15    9   16     -0.37      0.00
   13    9   16      0.15      0.00
   15    9   16      0.24      0.00
   17    9   16      0.21      0.00
  -14   10   16     -0.75      0.00
  -12   10   16     -1.39      0.00
  -10   10   16     -1.10      0.00
    8   10   16      0.79      0.00
   10   10   16      0.82      0.00
   12   10   16      1.11      0.00
   14   10   16      0.92      0.00
   -9   11   16      0.69      0.00
   -7   11   16      1.24      0.00
   -5   11   16      0.48      0.00
   -3   11   16     -0.75      0.00
   -1   11   16     -1.14      0.00
    1   11   16     -0.49      0.00
    3   11   16      0.30      0.00
    5   11   16      0.50      0.00
    7   11   16      0.21      0.00
    9   11   16      0.13      0.00
  -27    1   17      0.30      0.00
   25    1   17      0.18      0.00
   27    1   17      0.11      0.00
  -28    2   17     -0.24      0.00
  -26    2   17     -1.18      0.00
   24    2   17      0.41      0.00
   26    2   17      0.04      0.00
  -27    3   17     -0.89      0.00
  -25    3   17     -0.32      0.00
   25    3   17      0.86      0.00
  -26    4   17      0.66      0.00
  -24    4   17      1.65      0.00
   24    4   17      0.53      0.00
  -25    5   17     -0.42      0.00
  -23    5   17     -0.67      0.00
   23    5   17     -0.91      0.00
  -24    6   17     -1.28      0.00
  -22    6   17     -0.86      0.00
   20    6   17     -0.99      0.00
   22    6   17     -1.29      0.00
  -21    7   17      0.83      0.00
  -19    7   17      2.33      0.00
   19    7   17     -0.01      0.00
   21    7   17     -0.18      0.00
  -20    8   17      1.04      0.00
  -18    8   17      1.37      0.00
  -16    8   17      0.49      0.00
   16    8   17     -0.11      0.00
   18    8   17     -0.30      0.00
  -17    9   17     -0.77      0.00
  -15    9   17     -1.76      0.00
  -13    9   17     -1.48      0.00
   11    9   17      1.66      0.00
   13    9   17      1.60      0.00
   15    9   17      0.36      0.00
  -14   10   17     -0.83      0.00
  -12   10   17     -1.13      0.00
  -10   10   17     -1.20      0.00
   -8   10   17     -1.42      0.00
   -6   10   17     -1.90      0.00
   -4   10   17     -1.99      0.00
    4   10   17      1.71      0.00
    6   10   17      0.80      0.00
    8   10   17      0.23      0.00
   10   10   17      0.48      0.00
   12   10   17      0.87      0.00
   -7   11   17     -1.19      0.00
   -5   11   17     -1.33      0.00
   -3   11   17     -1.33      0.00
   -1   11   17     -0.85      0.00
    1   11   17      0.01      0.00
    3   11   17      0.65      0.00
    5   11   17      0.75      0.00
  -26    0   18     -0.49      0.00
   24    0   18     -1.27      0.00
   26    0   18     -0.87      0.00
  -27    1   18     -1.13      0.00
  -25    1   18     -0.69      0.00
   25    1   18     -0.79      0.00
  -26    2   18     -1.46      0.00
   24    2   18     -0.41      0.00
   26    2   18     -0.12      0.00
  -25    3   18     -2.09      0.00
   23    3   18      0.73      0.00
   25    3   18      0.40      0.00
  -26    4   18     -0.68      0.00
  -24    4   18     -0.68      0.00
   22    4   18      1.15      0.00
   24    4   18      1.00      0.00
  -23    5   18      0.04      0.00
   21    5   18      0.60      0.00
   23    5   18      0.68      0.00
  -22    6   18     -1.06      0.00
  -20    6   18     -2.09      0.00
   20    6   18      0.03      0.00
   22    6   18      0.13      0.00
  -21    7   18     -0.06      0.00
  -19    7   18      0.55      0.00
   17    7   18      0.26      0.00
   19    7   18      0.17      0.00
  -18    8   18      1.79      0.00
  -16    8   18      1.85      0.00
  -14    8   18      0.72      0.00
   14    8   18      0.47      0.00
   16    8   18      0.76      0.00
   18    8   18      0.70      0.00
  -15    9   18      0.02      0.00
  -13    9   18     -0.36      0.00
  -11    9   18     -0.25      0.00
    9    9   18     -0.27      0.00
   11    9   18      0.00      0.00
   13    9   18      0.18      0.00
   15    9   18      0.39      0.00
  -12   10   18      0.34      0.00
  -10   10   18      0.03      0.00
   -8   10   18     -0.31      0.00
   -6   10   18      0.05      0.00
   -4   10   18      0.91      0.00
   -2   10   18      1.21      0.00
    0   10   18      0.46      0.00
    2   10   18     -0.67      0.00
    4   10   18     -1.22      0.00
    6   10   18     -0.91      0.00
    8   10   18     -0.39      0.00
   10   10   18     -0.31      0.00
   -1   11   18      0.60      0.00
  -25    1   19      0.29      0.00
   23    1   19     -0.56      0.00
   25    1   19     -0.63      0.00
  -26    2   19      0.88      0.00
  -24    2   19      0.30      0.00
   22    2   19     -1.03      0.00
   24    2   19     -0.84      0.00
  -25    3   19     -0.16      0.00
  -23    3   19     -1.06      0.00
   21    3   19     -1.83      0.00
   23    3   19     -1.11      0.00
  -24    4   19     -1.68      0.00
  -22    4   19     -1.29      0.00
   20    4   19     -1.24      0.00
   22    4   19     -0.50      0.00
  -23    5   19     -0.13      0.00
  -21    5   19     -0.25      0.00
   19    5   19      0.30      0.00
   21    5   19      0.50      0.00
  -22    6   19     -0.46      0.00
  -20    6   19     -1.89      0.00
  -18    6   19     -2.61      0.00
   18    6   19      0.44      0.00
   20    6   19      0.58      0.00
  -19    7   19     -2.52      0.00
  -17    7   19     -2.75      0.00
   15    7   19     -0.12      0.00
   17    7   19      0.12      0.00
   19    7   19      0.02      0.00
  -16    8   19      0.20      0.00
  -14    8   19      0.66      0.00
  -12    8   19      0.52      0.00
   12    8   19     -1.43      0.00
   14    8   19     -0.20      0.00
   16    8   19      0.59      0.00
  -13    9   19      1.08      0.00
  -11    9   19      0.37      0.00
   -9    9   19      0.33      0.00
   -7    9   19      0.91      0.00
   -5    9   19      0.94      0.00
    5    9   19      1.80      0.00
    7    9   19      1.31      0.00
    9    9   19     -0.49      0.00
   11    9   19     -1.70      0.00
   13    9   19     -1.19      0.00
   -8   10   19      0.92      0.00
   -6   10   19      1.68      0.00
   -4   10   19      1.66      0.00
   -2   10   19      0.37      0.00
    0   10   19     -1.27      0.00
    2   10   19     -1.87      0.00
    4   10   19     -1.18      0.00
    6   10   19     -0.18      0.00
    8   10   19      0.05      0.00
  -24    0   20     -0.73      0.00
   22    0   20      0.59      0.00
   24    0   20      1.29      0.00
  -25    1   20      0.11      0.00
  -23    1   20      0.61      0.00
   21    1   20      0.17      0.00
   23    1   20      0.97      0.00
  -24    2   20      0.78      0.00
  -22    2   20      1.03      0.00
   22    2   20      0.40      0.00
  -23    3   20      0.86      0.00
  -21    3   20      0.56      0.00
   21    3   20     -0.68      0.00
   23    3   20     -0.52      0.00
  -22    4   20      1.35      0.00
  -20    4   20      1.68      0.00
   20    4   20     -1.59      0.00
   22    4   20     -0.95      0.00
  -21    5   20      2.06      0.00
  -19    5   20      2.66      0.00
   17    5   20     -1.62      0.00
   19    5   20     -1.21      0.00
   21    5   20     -0.48      0.00
  -20    6   20      1.48      0.00
  -18    6   20      1.73      0.00
   16    6   20      0.29      0.00
   18    6   20      0.11      0.00
  -17    7   20     -0.76      0.00
  -15    7   20     -0.37      0.00
   13    7   20      0.00      0.00
   15    7   20     -0.24      0.00
   17    7   20     -0.15      0.00
  -16    8   20     -1.13      0.00
  -14    8   20     -0.03      0.00
  -12    8   20      0.47      0.00
  -10    8   20     -0.23      0.00
    8    8   20      0.07      0.00
   10    8   20      0.07      0.00
   12    8   20     -0.34      0.00
   14    8   20     -0.65      0.00
  -11    9   20      0.63      0.00
   -9    9   20      0.10      0.00
   -7    9   20     -0.18      0.00
   -5    9   20      0.08      0.00
   -3    9   20      0.63      0.00
   -1    9   20      0.96      0.00
    1    9   20      0.91      0.00
    3    9   20      0.71      0.00
    5    9   20      0.46      0.00
    7    9   20      0.16      0.00
    9    9   20     -0.12      0.00
   -4   10   20      0.00      0.00
   -2   10   20     -0.07      0.00
    0   10   20      0.18      0.00
    2   10   20      0.49      0.00
  -23    1   21      0.31      0.00
  -21    1   21      0.94      0.00
   21    1   21     -0.23      0.00
   23    1   21      0.16      0.00
  -24    2   21      0.67      0.00
  -22    2   21      1.48      0.00
   20    2   21      0.39      0.00
   22    2   21      0.09      0.00
  -23    3   21      1.04      0.00
  -21    3   21      0.75      0.00
   19    3   21      2.55      0.00
   21    3   21      1.19      0.00
  -22    4   21      0.87      0.00
  -20    4   21      0.09      0.00
  -18    4   21     -0.10      0.00
   18    4   21      2.48      0.00
   20    4   21      1.49      0.00
  -21    5   21      0.48      0.00
  -19    5   21     -0.01      0.00
  -17    5   21     -0.44      0.00
   15    5   21     -0.80      0.00
   17    5   21     -0.20      0.00
   19    5   21     -0.13      0.00
  -18    6   21      1.19      0.00
  -16    6   21      0.72      0.00
  -14    6   21     -0.05      0.00
   14    6   21     -0.53      0.00
   16    6   21     -0.67      0.00
  -17    7   21      1.82      0.00
  -15    7   21      1.12      0.00
  -13    7   21     -0.34      0.00
  -11    7   21     -1.50      0.00
   11    7   21      0.51      0.00
   13    7   21     -0.07      0.00
   15    7   21     -0.42      0.00
  -14    8   21     -0.30      0.00
  -12    8   21     -0.78      0.00
  -10    8   21     -1.20      0.00
   -8    8   21     -1.31      0.00
   -6    8   21     -0.78      0.00
   -4    8   21      0.46      0.00
    2    8   21     -0.70      0.00
    4    8   21     -1.87      0.00
    6    8   21     -1.38      0.00
    8    8   21      0.14      0.00
   10    8   21      1.07      0.00
   12    8   21      0.64      0.00
   -9    9   21     -0.48      0.00
   -7    9   21     -0.83      0.00
   -5    9   21     -0.37      0.00
   -3    9   21      0.79      0.00
   -1    9   21      1.43      0.00
    1    9   21      0.67      0.00
    3    9   21     -0.77      0.00
    5    9   21     -1.42      0.00
    7    9   21     -0.77      0.00
  -22    0   22     -1.25      0.00
  -20    0   22     -2.19      0.00
   18    0   22      1.41      0.00
   20    0   22      0.85      0.00
  -23    1   22     -1.56      0.00
  -21    1   22     -2.70      0.00
  -19    1   22     -2.55      0.00
   19    1   22      0.51      0.00
   21    1   22      0.18      0.00
  -22    2   22     -1.51      0.00
  -20    2   22     -1.68      0.00
   18    2   22     -0.86      0.00
   20    2   22     -0.36      0.00
  -21    3   22     -0.64      0.00
  -19    3   22     -0.38      0.00
   17    3   22     -0.73      0.00
   19    3   22     -0.30      0.00
  -20    4   22     -1.28      0.00
  -18    4   22     -0.01      0.00
   16    4   22      1.70      0.00
   18    4   22      1.48      0.00
  -19    5   22     -1.06      0.00
  -17    5   22     -0.16      0.00
  -15    5   22      0.71      0.00
   13    5   22      0.92      0.00
   15    5   22      1.72      0.00
   17    5   22      1.76      0.00
  -16    6   22     -1.00      0.00
  -14    6   22      0.01      0.00
  -12    6   22      1.12      0.00
   10    6   22      0.56      0.00
   12    6   22     -0.19      0.00
   14    6   22     -0.20      0.00
   16    6   22     -0.06      0.00
  -15    7   22     -0.39      0.00
  -13    7   22      0.31      0.00
  -11    7   22      1.29      0.00
   -9    7   22      1.81      0.00
   -7    7   22      1.37      0.00
    5    7   22      0.69      0.00
    7    7   22      0.44      0.00
    9    7   22      0.04      0.00
   11    7   22     -0.19      0.00
   13    7   22     -0.25      0.00
  -10    8   22      0.05      0.00
   -8    8   22      0.24      0.00
   -6    8   22     -0.58      0.00
   -4    8   22     -1.78      0.00
   -2    8   22     -2.03      0.00
    0    8   22     -0.96      0.00
    2    8   22      0.32      0.00
    4    8   22      0.74      0.00
    6    8   22      0.39      0.00
    8    8   22      0.02      0.00
   -3    9   22     -1.05      0.00
   -1    9   22     -0.88      0.00
    1    9   22     -0.35      0.00
  -21    1   23     -0.62      0.00
  -19    1   23     -0.85      0.00
  -17    1   23     -0.25      0.00
   17    1   23      0.45      0.00
   19    1   23      0.46      0.00
  -20    2   23     -1.61      0.00
  -18    2   23     -0.96      0.00
   16    2   23     -0.44      0.00
   18    2   23     -0.38      0.00
  -19    3   23     -0.68      0.00
  -17    3   23     -0.81      0.00
   15    3   23     -1.31      0.00
   17    3   23     -2.09      0.00
  -18    4   23     -0.20      0.00
  -16    4   23     -0.91      0.00
  -14    4   23     -1.36      0.00
   14    4   23     -0.49      0.00
   16    4   23     -1.86      0.00
  -17    5   23      0.90      0.00
  -15    5   23      0.26      0.00
  -13    5   23     -0.56      0.00
   11    5   23      0.75      0.00
   13    5   23      0.73      0.00
   15    5   23      0.04      0.00
  -14    6   23      0.57      0.00
  -12    6   23      0.84      0.00
  -10    6   23      1.11      0.00
   -8    6   23      0.92      0.00
    6    6   23      0.12      0.00
    8    6   23      0.04      0.00
   10    6   23      0.32      0.00
   12    6   23      0.54      0.00
  -11    7   23      1.48      0.00
   -9    7   23      1.48      0.00
   -7    7   23      0.82      0.00
   -5    7   23      0.05      0.00
   -3    7   23     -0.44      0.00
   -1    7   23     -0.31      0.00
    1    7   23      0.27      0.00
    3    7   23      0.66      0.00
    5    7   23      0.53      0.00
    7    7   23      0.20      0.00
    9    7   23      0.11      0.00
   -6    8   23      0.44      0.00
   -4    8   23     -0.45      0.00
   -2    8   23     -0.97      0.00
    0    8   23     -0.58      0.00
    2    8   23      0.22      0.00
    4    8   23      0.55      0.00
  -18    0   24      0.45      0.00
  -16    0   24     -1.46      0.00
   -2    0   24      0.26      0.00
    0    0   24     -0.40      0.00
    2    0   24     -0.80      0.00
   14    0   24     -0.06      0.00
   16    0   24     -0.36      0.00
   18    0   24     -0.45      0.00
  -19    1   24      1.67      0.00
  -17    1   24     -0.01      0.00
  -15    1   24     -2.08      0.00
   13    1   24      0.08      0.00
   15    1   24      0.17      0.00
   17    1   24      0.13      0.00
  -18    2   24      0.53      0.00
  -16    2   24     -0.58      0.00
  -14    2   24     -2.00      0.00
   14    2   24      0.50      0.00
   16    2   24      0.97      0.00
  -17    3   24     -0.62      0.00
  -15    3   24     -0.58      0.00
  -13    3   24     -0.69      0.00
   11    3   24     -0.21      0.00
   13    3   24      0.27      0.00
   15    3   24      0.87      0.00
  -16    4   24     -1.26      0.00
  -14    4   24     -0.69      0.00
  -12    4   24     -0.16      0.00
   10    4   24      0.23      0.00
   12    4   24     -0.32      0.00
   14    4   24     -0.50      0.00
  -15    5   24     -1.11      0.00
  -13    5   24     -1.12      0.00
  -11    5   24     -0.86      0.00
   -9    5   24     -0.32      0.00
    7    5   24     -0.61      0.00
    9    5   24     -0.37      0.00
   11    5   24     -0.26      0.00
   13    5   24     -0.49      0.00
  -12    6   24     -1.36      0.00
  -10    6   24     -0.95      0.00
   -8    6   24      0.14      0.00
   -6    6   24      0.84      0.00
   -4    6   24      0.75      0.00
   -2    6   24      0.39      0.00
    0    6   24      0.04      0.00
    2    6   24     -0.52      0.00
    4    6   24     -1.31      0.00
    6    6   24     -1.79      0.00
    8    6   24     -1.45      0.00
   10    6   24     -0.57      0.00
   -7    7   24     -0.36      0.00
   -5    7   24      0.06      0.00
   -3    7   24      0.24      0.00
   -1    7   24      0.20      0.00
    1    7   24      0.07      0.00
    3    7   24     -0.15      0.00
    5    7   24     -0.38      0.00
    7    7   24     -0.46      0.00
  -17    1   25      0.26      0.00
  -15    1   25      0.18      0.00
  -13    1   25      0.89      0.00
    1    1   25     -0.45      0.00
   11    1   25     -0.77      0.00
   13    1   25     -0.58      0.00
   15    1   25     -0.24      0.00
  -16    2   25     -0.20      0.00
  -14    2   25     -1.13      0.00
  -12    2   25     -0.78      0.00
   10    2   25     -0.94      0.00
   12    2   25     -0.93      0.00
   14    2   25     -0.32      0.00
  -15    3   25     -0.19      0.00
  -13    3   25     -1.35      0.00
  -11    3   25     -1.57      0.00
   -9    3   25     -0.72      0.00
    9    3   25     -0.62      0.00
   11    3   25     -0.78      0.00
   13    3   25     -0.27      0.00
  -14    4   25      0.81      0.00
  -12    4   25      0.38      0.00
  -10    4   25     -0.31      0.00
   -8    4   25     -0.70      0.00
   -6    4   25     -0.63      0.00
    4    4   25      0.78      0.00
    6    4   25      0.66      0.00
    8    4   25      0.01      0.00
   10    4   25     -0.56      0.00
   12    4   25     -0.40      0.00
  -11    5   25      0.49      0.00
   -9    5   25     -0.67      0.00
   -7    5   25     -1.22      0.00
   -5    5   25     -0.75      0.00
   -3    5   25     -0.16      0.00
   -1    5   25     -0.11      0.00
    1    5   25     -0.13      0.00
    3    5   25      0.29      0.00
    5    5   25      0.67      0.00
    7    5   25      0.38      0.00
    9    5   25     -0.31      0.00
   -8    6   25     -0.89      0.00
   -6    6   25     -0.48      0.00
   -4    6   25      0.08      0.00
   -2    6   25      0.10      0.00
    0    6   25     -0.43      0.00
    2    6   25     -0.83      0.00
    4    6   25     -0.73      0.00
    6    6   25     -0.47      0.00
  -14    0   26      1.27      0.00
  -12    0   26     -0.09      0.00
  -10    0   26     -2.38      0.00
   -8    0   26     -3.69      0.00
   -4    0   26     -0.50      0.00
   -2    0   26      1.34      0.00
    0    0   26      1.79      0.00
    2    0   26      1.06      0.00
    4    0   26      0.20      0.00
    6    0   26      0.12      0.00
    8    0   26      0.46      0.00
   10    0   26      0.27      0.00
   12    0   26     -0.34      0.00
  -15    1   26      1.67      0.00
  -13    1   26      1.88      0.00
  -11    1   26      0.41      0.00
   -9    1   26     -1.64      0.00
   -7    1   26     -2.30      0.00
   -1    1   26      1.60      0.00
    1    1   26      1.34      0.00
    3    1   26      0.63      0.00
    7    1   26      0.56      0.00
    9    1   26      0.73      0.00
   11    1   26      0.41      0.00
   13    1   26     -0.02      0.00
  -14    2   26      1.99      0.00
  -12    2   26      2.31      0.00
  -10    2   26      1.39      0.00
   -8    2   26      0.07      0.00
   -6    2   26     -0.29      0.00
    4    2   26      0.33      0.00
    6    2   26      0.15      0.00
    8    2   26      0.33      0.00
   10    2   26      0.50      0.00
   12    2   26      0.41      0.00
  -13    3   26      0.49      0.00
  -11    3   26      0.76      0.00
   -9    3   26      0.72      0.00
   -7    3   26      0.25      0.00
   -5    3   26     -0.12      0.00
   -3    3   26      0.15      0.00
   -1    3   26      0.91      0.00
    1    3   26      1.34      0.00
    3    3   26      0.76      0.00
    5    3   26     -0.35      0.00
    7    3   26     -0.87      0.00
    9    3   26     -0.56      0.00
   11    3   26     -0.13      0.00
  -10    4   26     -0.13      0.00
   -8    4   26      0.14      0.00
   -6    4   26     -0.14      0.00
   -4    4   26     -0.28      0.00
   -2    4   26      0.31      0.00
    0    4   26      1.03      0.00
    2    4   26      0.76      0.00
    4    4   26     -0.52      0.00
    6    4   26     -1.55      0.00
    8    4   26     -1.39      0.00
   10    4   26     -0.51      0.00
   -7    5   26     -0.67      0.00
   -5    5   26     -0.72      0.00
   -3    5   26     -0.28      0.00
   -1    5   26      0.24      0.00
    1    5   26      0.39      0.00
    3    5   26      0.10      0.00
    5    5   26     -0.32      0.00
    7    5   26     -0.50      0.00
  -11    1   27     -1.68      0.00
   -9    1   27     -2.26      0.00
   -7    1   27     -2.01      0.00
   -5    1   27     -0.93      0.00
   -3    1   27      0.25      0.00
   -1    1   27      0.58      0.00
    1    1   27     -0.05      0.00
    3    1   27     -0.77      0.00
    5    1   27     -0.80      0.00
    7    1   27     -0.28      0.00
    9    1   27      0.14      0.00
  -10    2   27     -0.93      0.00
   -8    2   27     -1.66      0.00
   -6    2   27     -1.00      0.00
   -4    2   27      0.65      0.00
   -2    2   27      1.68      0.00
    0    2   27      1.24      0.00
    2    2   27      0.19      0.00
    4    2   27     -0.23      0.00
    6    2   27      0.10      0.00
    8    2   27      0.60      0.00
   -9    3   27      0.42      0.00
   -7    3   27      0.04      0.00
   -5    3   27      0.53      0.00
   -3    3   27      1.27      0.00
   -1    3   27      1.24      0.00
    1    3   27      0.58      0.00
    3    3   27      0.14      0.00
    5    3   27      0.19      0.00
    7    3   27      0.37      0.00
   -6    4   27      0.20      0.00
   -4    4   27     -0.07      0.00
   -2    4   27     -0.11      0.00
    0    4   27     -0.17      0.00
    2    4   27     -0.27      0.00
    4    4   27     -0.27      0.00
    0    0    0      0.00      0.00
# SQUEEZE RESULTS (Version =  31017)
# Note: Data are Listed for all Voids in the P1 Unit Cell
# i.e. Centre of Gravity, Solvent Accessible Volume,
# Recovered number of Electrons in the Void and
# Details about the Squeezed Material
loop_
  _platon_squeeze_void_nr
  _platon_squeeze_void_average_x
  _platon_squeeze_void_average_y
  _platon_squeeze_void_average_z
  _platon_squeeze_void_volume
  _platon_squeeze_void_count_electrons
  _platon_squeeze_void_content
   1  0.000 -0.074  0.250       256        34 ' '
   2  0.000  0.074  0.750       256        34 ' '
   3  0.500  0.426  0.250       256        34 ' '
   4  0.500  0.574  0.750       256        34 ' '
# Missing Reflections Below sin(th)/lambda = 0.25
loop_
  _platon_missing_refln_index_h
  _platon_missing_refln_index_k
  _platon_missing_refln_index_l
  _platon_missing_refln_theta
    9    3    0     8.884
    1    5    0     9.471
    3    5    0     9.715
    5    5    0    10.186
   -1    1    1     2.221
   -8    2    1     7.190
   10    2    1     8.564
   -5    3    1     6.858
    1    3    1     5.777
  -12    0    2     9.270
  -10    0    2     7.775
    0    0    2     1.859
    6    0    2     4.965
   -3    1    2     3.455
    7    1    2     5.983
   -4    2    2     5.151
   -3    5    2     9.882
   -1    5    2     9.651
   -9    1    3     7.556
   -5    1    3     5.014
    3    1    3     4.105
   -4    2    3     5.542
   -2    2    3     4.902
    6    2    3     6.593
   -9    3    3     9.261
   -4    4    3     8.576
   -6    0    4     5.803
   -2    0    4     3.979
    6    0    4     5.963
   -1    1    4     4.220
    3    1    4     4.800
    5    1    4     5.709
    7    1    4     6.841
    0    2    4     5.294
   -9    3    4     9.569
   -7    1    5     7.223
    4    0    6     6.434
    5    1    6     7.100
   -2    2    6     6.876
    1    3    6     8.007
   -9    1    7     9.526
    1    1    7     6.851
   -4    2    7     8.061
   -2    4    7    10.082
    2    2    8     8.537
   -1    1    9     8.619
   -2    0   10     9.418
_platon_squeeze_void_probe_radius                  1.20
_platon_squeeze_details
)
TITL SIR97 run in space group C 2/c
CELL   26.8820   10.8337   21.9140     90.00     91.58     90.00
SPGR C2/c
# Solvent Accessible Volume =      1033
# Electrons Found in S.A.V. =       136
# Note: Atoms in Void are Labelled as Cxxx and Qxxx for all Others
Q101 0.190 0.204 0.008 !       1.40 eA-3
Q102 0.184 0.292 0.929 !       1.36 eA-3
C103 0.571 0.326 0.271 !       1.33 eA-3
C104 0.429 0.408 0.227 !       1.31 eA-3
Q105 0.308 0.141 0.671 !       1.26 eA-3
C106 1.000 0.141 0.753 !       1.25 eA-3
Q107 0.815 0.221 0.435 !       1.24 eA-3
Q108 0.227 0.059 0.802 !       1.23 eA-3
Q109 0.692 0.300 0.459 !       1.18 eA-3
Q110 0.325 0.198 0.966 !       1.18 eA-3
Q111 0.673 0.255 0.205 !       1.18 eA-3
C112 0.469 0.355 0.240 !       1.17 eA-3
C113 0.071 0.202 0.817 !       1.14 eA-3
Q114 0.317 0.317 0.825 !       1.14 eA-3
C115 0.563 0.504 0.263 !       1.14 eA-3
Q116 0.378 0.161 0.642 !       1.13 eA-3
Q117 0.308 0.375 0.905 !       1.12 eA-3
Q118 0.935 0.065 0.474 !       1.10 eA-3
Q119 0.765 0.105 0.717 !       1.10 eA-3
Q120 0.648 0.110 0.827 !       1.10 eA-3
C121 0.457 0.297 0.220 !       1.08 eA-3
Q122 0.710 0.342 0.491 !       1.07 eA-3
Q123 0.197 0.098 0.169 !       1.04 eA-3
Q124 0.331 0.265 0.393 !       1.04 eA-3
Q125 0.431 0.028 0.655 !       1.02 eA-3
Q126 0.198 0.045 0.134 !       1.02 eA-3
Q127 0.696 0.310 0.407 !       1.01 eA-3
Q128 0.320 0.297 0.881 !       1.00 eA-3
Q129 0.688 0.283 0.193 !       0.99 eA-3
Q130 0.894 0.423 0.165 !       0.99 eA-3
Q131 0.217 0.339 0.305 !       0.98 eA-3
Q132 0.910 0.285 0.116 !       0.96 eA-3
Q133 0.680 0.228 0.155 !       0.96 eA-3
Q134 0.035 0.403 0.378 !       0.95 eA-3
Q135 0.901 0.496 0.346 !       0.95 eA-3
Q136 0.796 0.272 0.161 !       0.95 eA-3
Q137 0.700 0.332 0.351 !       0.94 eA-3
C138 0.058 0.031 0.798 !       0.94 eA-3
Q139 0.312 0.371 0.011 !       0.93 eA-3
Q140 0.233 0.031 0.858 !       0.93 eA-3
Q141 0.952 0.307 0.110 !       0.93 eA-3
Q142 0.440 0.055 0.875 !       0.89 eA-3
Q143 0.467 0.106 0.905 !       0.89 eA-3
Q144 0.571 0.401 0.478 !       0.89 eA-3
Q145 0.212 0.140 0.802 !       0.88 eA-3
C146 0.482 0.283 0.284 !       0.87 eA-3
Q147 0.957 0.200 0.459 !       0.87 eA-3
Q148 0.964 0.258 0.478 !       0.84 eA-3
Q149 0.971 0.348 0.390 !       0.83 eA-3
Q150 0.309 0.045 0.690 !       0.81 eA-3
C151 0.461 0.444 0.171 !       0.78 eA-3
Q152 0.669 0.113 0.502 !       0.78 eA-3
Q153 0.383 0.129 0.408 !       0.78 eA-3
Q154 0.582 0.075 0.061 !       0.78 eA-3
Q155 0.931 0.270 0.078 !       0.78 eA-3
Q156 0.956 0.300 0.525 !       0.77 eA-3
C157 0.988 0.166 0.821 !       0.77 eA-3
Q158 0.974 0.317 0.428 !       0.77 eA-3
Q159 0.437 0.393 0.164 !       0.77 eA-3
Q160 0.351 0.195 0.373 !       0.76 eA-3
Q161 0.195 0.502 0.273 !       0.76 eA-3
Q162 0.965 0.157 0.349 !       0.76 eA-3
Q163 0.159 0.369 0.047 !       0.74 eA-3
Q164 0.822 0.277 0.363 !       0.73 eA-3
Q165 0.963 0.219 0.413 !       0.71 eA-3
Q166 0.594 0.029 0.335 !       0.70 eA-3
Q167 0.919 0.450 0.183 !       0.70 eA-3
Q168 0.380 0.088 0.360 !       0.64 eA-3
Q169 0.707 0.286 0.314 !       0.63 eA-3
Q170 0.882 0.248 0.139 !       0.63 eA-3
Q171 0.936 0.243 0.136 !       0.62 eA-3
Q172 0.570 0.015 0.041 !       0.62 eA-3
Q173 0.704 0.403 0.380 !       0.62 eA-3
C174 0.437 0.504 0.154 !       0.62 eA-3
C175 0.527 0.450 0.280 !       0.61 eA-3
Q176 0.220 0.011 0.907 !       0.61 eA-3
Q177 0.570 0.042 0.671 !       0.60 eA-3
Q178 0.370 0.048 0.319 !       0.60 eA-3
Q179 0.674 0.126 0.444 !       0.59 eA-3
Q180 0.427 0.447 0.303 !       0.58 eA-3
Q181 0.455 0.350 0.163 !       0.58 eA-3
Q182 0.574 0.013 0.578 !       0.57 eA-3
Q183 0.315 0.324 0.425 !       0.55 eA-3
Q184 0.445 0.018 0.411 !       0.54 eA-3
Q185 0.718 0.456 0.237 !       0.53 eA-3
Q186 0.683 0.044 0.289 !       0.53 eA-3
Q187 0.789 0.052 0.421 !       0.52 eA-3
C188 0.500 0.187 0.254 !       0.51 eA-3
)
;
_shelx_fab_checksum              19141
loop_
_space_group_symop_operation_xyz
'x, y, z'
'-x, y, -z+1/2'
'x+1/2, y+1/2, z'
'-x+1/2, y+1/2, -z+1/2'
'-x, -y, -z'
'x, -y, z-1/2'
'-x+1/2, -y+1/2, -z'
'x+1/2, -y+1/2, z-1/2'
loop_
_atom_site_label
_atom_site_type_symbol
_atom_site_fract_x
_atom_site_fract_y
_atom_site_fract_z
_atom_site_U_iso_or_equiv
_atom_site_adp_type
_atom_site_occupancy
_atom_site_site_symmetry_order
_atom_site_calc_flag
_atom_site_refinement_flags_posn
_atom_site_refinement_flags_adp
_atom_site_refinement_flags_occupancy
_atom_site_disorder_assembly
_atom_site_disorder_group
O5 O 0.7558(5) 0.3435(7) 0.0014(4) 0.157(4) Uani 0.5 1 d D U P . .
H5A H 0.753452 0.272706 0.017848 0.235 Uiso 0.5 1 d R U P . .
H5B H 0.771380 0.337166 -0.031662 0.235 Uiso 0.5 1 d R U P . .
Zn1 Zn 0.72763(2) 0.38147(2) 0.19607(2) 0.03123(14) Uani 1 1 d D . . . .
N4 N 0.69371(6) 0.67614(16) -0.01459(8) 0.0312(4) Uani 1 1 d . . . . .
C24 C 0.69007(8) 0.7292(2) -0.06862(9) 0.0323(5) Uani 1 1 d . . . . .
N3 N 0.68751(6) 0.68589(17) 0.09083(8) 0.0315(4) Uani 1 1 d . . . . .
N5 N 0.70311(7) 0.65335(19) -0.11889(9) 0.0349(4) Uani 1 1 d . . . . .
C28 C 0.68323(7) 0.7457(2) 0.03321(9) 0.0309(4) Uani 1 1 d . . . . .
O3 O 0.67954(6) 0.24655(16) 0.18321(8) 0.0456(4) Uani 1 1 d . U . . .
N1 N 0.51751(8) -0.1434(2) 0.08610(14) 0.0589(7) Uani 1 1 d D . . . .
C27 C 0.66916(11) 0.8689(2) 0.02956(12) 0.0438(6) Uani 1 1 d . . . . .
H27 H 0.662085 0.914246 0.064290 0.053 Uiso 1 1 calc R U . . .
N2 N 0.70258(7) 0.53942(18) 0.15830(8) 0.0356(4) Uani 1 1 d . U . . .
C2 C 0.37529(9) -0.1160(2) 0.15990(13) 0.0404(6) Uani 1 1 d . . . . .
C18 C 0.61484(8) 0.0495(2) 0.16359(11) 0.0399(5) Uani 1 1 d . . . . .
H18 H 0.631708 0.053809 0.201155 0.048 Uiso 1 1 calc R U . . .
N6 N 0.71960(8) 0.59858(18) -0.21259(9) 0.0371(4) Uani 1 1 d . U . . .
C17 C 0.62517(8) 0.1343(2) 0.11828(12) 0.0362(5) Uani 1 1 d . . . . .
C20 C 0.66486(8) 0.2307(2) 0.12823(11) 0.0379(5) Uani 1 1 d . U . . .
O4 O 0.68104(9) 0.2886(2) 0.08489(10) 0.0679(6) Uani 1 1 d . . . . .
C14 C 0.55378(8) -0.0474(2) 0.09700(13) 0.0461(6) Uani 1 1 d . U . . .
C22 C 0.68098(10) 0.7372(2) 0.14758(10) 0.0412(5) Uani 1 1 d . . . . .
H22 H 0.671935 0.818188 0.156008 0.049 Uiso 1 1 calc R U . . .
C31 C 0.70117(8) 0.6856(2) -0.17875(10) 0.0352(5) Uani 1 1 d . . . . .
H31 H 0.688424 0.759868 -0.193671 0.042 Uiso 1 1 calc R U . . .
C25 C 0.67685(11) 0.8515(2) -0.07834(12) 0.0463(6) Uani 1 1 d . . . . .
H25 H 0.675266 0.885213 -0.117372 0.056 Uiso 1 1 calc R U . . .
C6 C 0.45716(9) -0.0331(2) 0.14485(13) 0.0464(6) Uani 1 1 d . . . . .
H6 H 0.479850 0.030732 0.151272 0.056 Uiso 1 1 calc R U . . .
C5 C 0.47111(9) -0.1360(2) 0.11173(14) 0.0453(6) Uani 1 1 d . . . . .
C29 C 0.72360(10) 0.5369(2) -0.11547(11) 0.0409(5) Uani 1 1 d . . . . .
H29 H 0.729066 0.489903 -0.080412 0.049 Uiso 1 1 calc R U . . .
C16 C 0.59881(10) 0.1281(2) 0.06261(13) 0.0439(6) Uani 1 1 d . . . . .
H16 H 0.605260 0.184791 0.031952 0.053 Uiso 1 1 calc R U . . .
C30 C 0.73415(10) 0.5048(2) -0.17316(11) 0.0427(5) Uani 1 1 d . . . . .
H30 H 0.748909 0.431001 -0.184646 0.051 Uiso 1 1 calc R U . . .
C7 C 0.41039(9) -0.0237(2) 0.16838(12) 0.0431(5) Uani 1 1 d . . . . .
H7 H 0.402172 0.046307 0.190493 0.052 Uiso 1 1 calc R U . . .
C23 C 0.69031(10) 0.6469(2) 0.18828(11) 0.0414(5) Uani 1 1 d . . . . .
H23 H 0.688739 0.655376 0.230411 0.050 Uiso 1 1 calc R U . . .
C19 C 0.57954(9) -0.0416(2) 0.15316(13) 0.0455(6) Uani 1 1 d . . . . .
H19 H 0.572965 -0.098826 0.183502 0.055 Uiso 1 1 calc R U . . .
C26 C 0.66615(11) 0.9208(3) -0.02770(12) 0.0504(6) Uani 1 1 d . . . . .
H26 H 0.656861 1.003095 -0.032234 0.060 Uiso 1 1 calc R U . . .
C3 C 0.38918(10) -0.2192(3) 0.12679(15) 0.0559(7) Uani 1 1 d . . . . .
H3 H 0.366094 -0.282003 0.120008 0.067 Uiso 1 1 calc R U . . .
C4 C 0.43556(10) -0.2314(3) 0.10397(16) 0.0605(8) Uani 1 1 d . . . . .
H4 H 0.443897 -0.302906 0.083142 0.073 Uiso 1 1 calc R U . . .
C15 C 0.56327(9) 0.0382(3) 0.05305(13) 0.0496(6) Uani 1 1 d . . . . .
H15 H 0.545452 0.035599 0.016084 0.059 Uiso 1 1 calc R U . . .
C21 C 0.70044(9) 0.5665(2) 0.09969(10) 0.0354(5) Uani 1 1 d . . . . .
H21 H 0.706951 0.510908 0.068572 0.042 Uiso 1 1 calc R U . . .
O2 O 0.31246(6) 0.00026(17) 0.20846(8) 0.0469(4) Uani 1 1 d . . . . .
C1 C 0.32403(9) -0.0980(2) 0.18328(11) 0.0380(5) Uani 1 1 d . U . . .
O1 O 0.29247(6) -0.18566(16) 0.17340(9) 0.0487(4) Uani 1 1 d . U . . .
C9 C 0.5356(5) -0.2418(9) 0.0471(5) 0.049(3) Uani 0.364(16) 1 d DG U P A 1
C10 C 0.5426(5) -0.2372(12) -0.0155(5) 0.099(5) Uani 0.364(16) 1 d G U P A 1
H10 H 0.534000 -0.166406 -0.037383 0.119 Uiso 0.364(16) 1 calc R U P A 1
C8 C 0.5625(5) -0.3382(15) -0.0453(6) 0.131(7) Uani 0.364(16) 1 d G U P A 1
H8 H 0.567184 -0.335123 -0.087199 0.157 Uiso 0.364(16) 1 calc R U P A 1
C12 C 0.5753(5) -0.4440(12) -0.0126(8) 0.096(5) Uani 0.364(16) 1 d G U P A 1
H12 H 0.588626 -0.511632 -0.032600 0.115 Uiso 0.364(16) 1 calc R U P A 1
C11 C 0.5683(5) -0.4487(9) 0.0499(8) 0.114(6) Uani 0.364(16) 1 d G U P A 1
H11 H 0.576883 -0.519425 0.071814 0.137 Uiso 0.364(16) 1 calc R U P A 1
C13 C 0.5484(5) -0.3476(10) 0.0798(6) 0.087(4) Uani 0.364(16) 1 d G U P A 1
H13 H 0.543699 -0.350709 0.121631 0.104 Uiso 0.364(16) 1 calc R U P A 1
C8A C 0.5430(3) -0.2813(6) 0.0065(4) 0.090(3) Uani 0.636(16) 1 d G U P A 2
H8A H 0.532757 -0.220577 -0.021120 0.108 Uiso 0.636(16) 1 calc R U P A 2
C13A C 0.5638(3) -0.3903(7) -0.0145(4) 0.112(4) Uani 0.636(16) 1 d G U P A 2
H13A H 0.567513 -0.402387 -0.056177 0.134 Uiso 0.636(16) 1 calc R U P A 2
C12A C 0.5790(2) -0.4811(5) 0.0267(5) 0.096(3) Uani 0.636(16) 1 d G U P A 2
H12A H 0.592964 -0.553982 0.012637 0.115 Uiso 0.636(16) 1 calc R U P A 2
C11A C 0.5735(2) -0.4630(5) 0.0889(5) 0.110(3) Uani 0.636(16) 1 d G U P A 2
H11A H 0.583660 -0.523768 0.116507 0.132 Uiso 0.636(16) 1 calc R U P A 2
C10A C 0.5526(2) -0.3541(5) 0.1099(4) 0.087(2) Uani 0.636(16) 1 d DG U P A 2
H10A H 0.548905 -0.341959 0.151565 0.105 Uiso 0.636(16) 1 calc R U P A 2
C9A C 0.5374(2) -0.2632(5) 0.0687(4) 0.055(2) Uani 0.636(16) 1 d DG U P A 2
loop_
_atom_site_aniso_label
_atom_site_aniso_U_11
_atom_site_aniso_U_22
_atom_site_aniso_U_33
_atom_site_aniso_U_23
_atom_site_aniso_U_13
_atom_site_aniso_U_12
O5 0.234(10) 0.091(4) 0.150(7) 0.014(5) 0.087(7) -0.004(6)
Zn1 0.0371(2) 0.0311(2) 0.0254(2) 0.00287(9) -0.00042(12) -0.00467(8)
N4 0.0357(9) 0.0309(9) 0.0271(9) 0.0022(7) 0.0020(7) 0.0021(7)
C24 0.0377(11) 0.0328(11) 0.0265(11) 0.0022(8) 0.0049(8) 0.0030(8)
N3 0.0380(9) 0.0326(9) 0.0238(9) 0.0011(7) 0.0011(7) 0.0055(7)
N5 0.0447(10) 0.0350(10) 0.0251(9) 0.0002(8) 0.0027(8) 0.0033(8)
C28 0.0321(10) 0.0346(11) 0.0262(10) 0.0038(8) 0.0035(8) 0.0039(8)
O3 0.0477(9) 0.0454(9) 0.0432(10) -0.0022(8) -0.0073(8) -0.0135(7)
N1 0.0346(11) 0.0525(13) 0.090(2) -0.0299(13) 0.0096(11) -0.0097(9)
C27 0.0628(16) 0.0365(13) 0.0324(13) -0.0006(9) 0.0082(11) 0.0139(10)
N2 0.0419(10) 0.0385(10) 0.0262(9) 0.0005(8) -0.0016(7) 0.0012(8)
C2 0.0350(12) 0.0423(14) 0.0436(14) 0.0059(10) -0.0029(10) -0.0025(9)
C18 0.0375(12) 0.0409(13) 0.0411(13) -0.0044(10) -0.0027(9) -0.0038(9)
N6 0.0444(11) 0.0386(10) 0.0280(10) -0.0016(8) -0.0013(8) 0.0088(8)
C17 0.0308(11) 0.0325(11) 0.0452(14) -0.0084(9) -0.0010(10) 0.0032(8)
C20 0.0366(11) 0.0352(11) 0.0419(13) -0.0054(10) 0.0025(9) -0.0021(9)
O4 0.0886(15) 0.0648(13) 0.0507(12) -0.0024(10) 0.0104(10) -0.0353(11)
C14 0.0288(11) 0.0476(14) 0.0619(16) -0.0228(13) 0.0003(10) -0.0047(9)
C22 0.0569(14) 0.0366(12) 0.0299(12) -0.0034(9) 0.0009(10) 0.0074(10)
C31 0.0413(12) 0.0395(12) 0.0248(11) 0.0023(9) 0.0017(9) 0.0087(9)
C25 0.0696(17) 0.0388(12) 0.0309(13) 0.0099(10) 0.0101(11) 0.0167(12)
C6 0.0362(12) 0.0425(13) 0.0604(16) -0.0099(12) -0.0004(11) -0.0088(10)
C5 0.0304(12) 0.0449(14) 0.0603(17) -0.0120(11) -0.0017(11) -0.0051(9)
C29 0.0582(14) 0.0352(12) 0.0291(12) 0.0037(9) -0.0009(10) 0.0081(10)
C16 0.0466(14) 0.0408(14) 0.0439(15) -0.0029(10) -0.0043(12) 0.0001(10)
C30 0.0580(14) 0.0359(12) 0.0340(12) -0.0043(10) -0.0049(10) 0.0139(10)
C7 0.0409(12) 0.0419(13) 0.0467(14) -0.0039(11) 0.0042(10) -0.0060(10)
C23 0.0550(14) 0.0448(13) 0.0243(12) -0.0023(10) -0.0002(10) 0.0060(11)
C19 0.0412(12) 0.0423(13) 0.0536(15) -0.0006(11) 0.0099(11) -0.0066(10)
C26 0.0743(18) 0.0356(12) 0.0418(14) 0.0063(11) 0.0106(12) 0.0186(12)
C3 0.0366(13) 0.0468(15) 0.084(2) -0.0125(14) 0.0020(12) -0.0126(11)
C4 0.0422(14) 0.0520(16) 0.088(2) -0.0279(16) 0.0061(14) -0.0106(12)
C15 0.0395(13) 0.0567(16) 0.0519(15) -0.0125(13) -0.0116(11) 0.0015(11)
C21 0.0465(12) 0.0327(11) 0.0269(11) 0.0010(9) 0.0012(9) 0.0038(9)
O2 0.0431(9) 0.0516(11) 0.0463(10) -0.0010(8) 0.0068(7) -0.0021(8)
C1 0.0359(12) 0.0433(13) 0.0345(12) 0.0098(10) -0.0022(9) -0.0026(9)
O1 0.0383(9) 0.0450(10) 0.0631(12) 0.0002(9) 0.0049(8) -0.0068(7)
C9 0.044(4) 0.051(5) 0.053(6) -0.016(5) 0.005(4) -0.013(4)
C10 0.108(8) 0.090(8) 0.101(8) -0.035(7) 0.024(6) -0.001(6)
C8 0.126(9) 0.146(10) 0.122(10) -0.030(8) 0.018(8) 0.012(8)
C12 0.078(7) 0.087(8) 0.123(9) -0.028(7) 0.020(7) 0.000(6)
C11 0.109(9) 0.096(9) 0.139(11) -0.018(8) 0.024(8) 0.006(7)
C13 0.093(7) 0.070(7) 0.098(8) -0.017(6) -0.003(6) 0.009(6)
C8A 0.096(4) 0.072(4) 0.102(6) -0.039(4) 0.010(4) -0.004(4)
C13A 0.100(6) 0.113(6) 0.124(7) -0.068(6) 0.022(5) 0.002(5)
C12A 0.076(4) 0.080(5) 0.131(8) -0.034(5) 0.018(4) -0.003(3)
C11A 0.075(4) 0.075(4) 0.179(8) -0.004(5) -0.011(5) 0.008(3)
C10A 0.081(4) 0.063(3) 0.117(6) -0.016(4) -0.015(4) 0.002(3)
C9A 0.037(3) 0.047(4) 0.082(5) -0.021(3) 0.008(3) -0.007(2)
loop_
_atom_type_symbol
_atom_type_description
_atom_type_scat_dispersion_real
_atom_type_scat_dispersion_imag
_atom_type_scat_source
C C 0.0033 0.0016 'International Tables Vol C Tables 4.2.6.8 and 6.1.1.4'
H H 0.0000 0.0000 'International Tables Vol C Tables 4.2.6.8 and 6.1.1.4'
Zn Zn 0.2839 1.4301 'International Tables Vol C Tables 4.2.6.8 and 6.1.1.4'
N N 0.0061 0.0033 'International Tables Vol C Tables 4.2.6.8 and 6.1.1.4'
O O 0.0106 0.0060 'International Tables Vol C Tables 4.2.6.8 and 6.1.1.4'
loop_
_geom_angle_atom_site_label_1
_geom_angle_atom_site_label_2
_geom_angle_atom_site_label_3
_geom_angle
_geom_angle_site_symmetry_1
_geom_angle_site_symmetry_3
H5A O5 H5B 109.4 . .
O1 Zn1 O3 105.83(7) 3 .
O1 Zn1 N2 120.04(8) 3 .
O3 Zn1 N2 111.25(7) . .
O1 Zn1 N6 114.07(8) 3 6_566
O3 Zn1 N6 97.65(7) . 6_566
N2 Zn1 N6 105.78(8) . 6_566
C24 N4 C28 116.68(18) . .
N4 C24 C25 124.6(2) . .
N4 C24 N5 115.38(19) . .
C25 C24 N5 120.0(2) . .
C21 N3 C22 107.17(17) . .
C21 N3 C28 125.32(17) . .
C22 N3 C28 127.48(18) . .
C31 N5 C29 107.05(19) . .
C31 N5 C24 126.46(19) . .
C29 N5 C24 126.32(19) . .
N4 C28 C27 124.3(2) . .
N4 C28 N3 115.37(18) . .
C27 C28 N3 120.3(2) . .
C20 O3 Zn1 115.01(15) . .
C5 N1 C14 120.2(2) . .
C5 N1 C9 126.8(5) . .
C14 N1 C9 113.0(5) . .
C5 N1 C9A 119.9(3) . .
C14 N1 C9A 115.8(3) . .
C26 C27 C28 117.0(2) . .
C26 C27 H27 121.5 . .
C28 C27 H27 121.5 . .
C21 N2 C23 105.77(19) . .
C21 N2 Zn1 126.62(16) . .
C23 N2 Zn1 127.13(15) . .
C7 C2 C3 117.3(2) . .
C7 C2 C1 119.4(2) . .
C3 C2 C1 123.2(2) . .
C19 C18 C17 120.3(2) . .
C19 C18 H18 119.9 . .
C17 C18 H18 119.9 . .
C31 N6 C30 106.32(19) . .
C31 N6 Zn1 122.36(15) . 6_565
C30 N6 Zn1 131.14(16) . 6_565
C18 C17 C16 119.2(2) . .
C18 C17 C20 120.8(2) . .
C16 C17 C20 120.1(2) . .
O4 C20 O3 123.9(2) . .
O4 C20 C17 120.5(2) . .
O3 C20 C17 115.6(2) . .
C15 C14 C19 119.5(2) . .
C15 C14 N1 120.8(2) . .
C19 C14 N1 119.7(3) . .
C23 C22 N3 106.2(2) . .
C23 C22 H22 126.9 . .
N3 C22 H22 126.9 . .
N6 C31 N5 111.0(2) . .
N6 C31 H31 124.5 . .
N5 C31 H31 124.5 . .
C26 C25 C24 117.1(2) . .
C26 C25 H25 121.4 . .
C24 C25 H25 121.4 . .
C7 C6 C5 121.2(2) . .
C7 C6 H6 119.4 . .
C5 C6 H6 119.4 . .
N1 C5 C6 121.2(2) . .
N1 C5 C4 121.5(2) . .
C6 C5 C4 117.3(3) . .
C30 C29 N5 106.2(2) . .
C30 C29 H29 126.9 . .
N5 C29 H29 126.9 . .
C15 C16 C17 120.0(3) . .
C15 C16 H16 120.0 . .
C17 C16 H16 120.0 . .
C29 C30 N6 109.4(2) . .
C29 C30 H30 125.3 . .
N6 C30 H30 125.3 . .
C6 C7 C2 121.6(2) . .
C6 C7 H7 119.2 . .
C2 C7 H7 119.2 . .
C22 C23 N2 109.9(2) . .
C22 C23 H23 125.0 . .
N2 C23 H23 125.0 . .
C18 C19 C14 119.9(2) . .
C18 C19 H19 120.0 . .
C14 C19 H19 120.0 . .
C27 C26 C25 120.2(2) . .
C27 C26 H26 119.9 . .
C25 C26 H26 119.9 . .
C4 C3 C2 122.1(2) . .
C4 C3 H3 119.0 . .
C2 C3 H3 119.0 . .
C3 C4 C5 120.5(3) . .
C3 C4 H4 119.8 . .
C5 C4 H4 119.8 . .
C14 C15 C16 121.0(2) . .
C14 C15 H15 119.5 . .
C16 C15 H15 119.5 . .
N2 C21 N3 110.93(19) . .
N2 C21 H21 124.5 . .
N3 C21 H21 124.5 . .
O2 C1 O1 122.3(2) . .
O2 C1 C2 120.5(2) . .
O1 C1 C2 117.1(2) . .
C1 O1 Zn1 105.63(16) . 3_445
C10 C9 C13 120.0 . .
C10 C9 N1 127.5(6) . .
C13 C9 N1 112.4(6) . .
C9 C10 C8 120.0 . .
C9 C10 H10 120.0 . .
C8 C10 H10 120.0 . .
C12 C8 C10 120.0 . .
C12 C8 H8 120.0 . .
C10 C8 H8 120.0 . .
C8 C12 C11 120.0 . .
C8 C12 H12 120.0 . .
C11 C12 H12 120.0 . .
C13 C11 C12 120.0 . .
C13 C11 H11 120.0 . .
C12 C11 H11 120.0 . .
C11 C13 C9 120.0 . .
C11 C13 H13 120.0 . .
C9 C13 H13 120.0 . .
C13A C8A C9A 120.0 . .
C13A C8A H8A 120.0 . .
C9A C8A H8A 120.0 . .
C8A C13A C12A 120.0 . .
C8A C13A H13A 120.0 . .
C12A C13A H13A 120.0 . .
C11A C12A C13A 120.0 . .
C11A C12A H12A 120.0 . .
C13A C12A H12A 120.0 . .
C12A C11A C10A 120.0 . .
C12A C11A H11A 120.0 . .
C10A C11A H11A 120.0 . .
C11A C10A C9A 120.0 . .
C11A C10A H10A 120.0 . .
C9A C10A H10A 120.0 . .
C10A C9A C8A 120.0 . .
C10A C9A N1 124.3(4) . .
C8A C9A N1 115.6(4) . .
loop_
_geom_bond_atom_site_label_1
_geom_bond_atom_site_label_2
_geom_bond_distance
_geom_bond_site_symmetry_2
O5 H5A 0.8505 .
O5 H5B 0.8499 .
Zn1 O1 1.9651(18) 3
Zn1 O3 1.9665(16) .
Zn1 N2 2.0090(19) .
Zn1 N6 2.031(2) 6_566
N4 C24 1.318(3) .
N4 C28 1.327(3) .
C24 C25 1.386(3) .
C24 N5 1.426(3) .
N3 C21 1.352(3) .
N3 C22 1.378(3) .
N3 C28 1.421(3) .
N5 C31 1.357(3) .
N5 C29 1.378(3) .
C28 C27 1.389(3) .
O3 C20 1.269(3) .
N1 C5 1.384(4) .
N1 C14 1.442(3) .
N1 C9 1.458(7) .
N1 C9A 1.458(4) .
C27 C26 1.376(4) .
C27 H27 0.9300 .
N2 C21 1.317(3) .
N2 C23 1.381(3) .
C2 C7 1.384(3) .
C2 C3 1.390(4) .
C2 C1 1.496(4) .
C18 C19 1.383(3) .
C18 C17 1.387(4) .
C18 H18 0.9300 .
N6 C31 1.306(3) .
N6 C30 1.383(3) .
C17 C16 1.395(4) .
C17 C20 1.504(3) .
C20 O4 1.228(3) .
C14 C15 1.366(4) .
C14 C19 1.397(4) .
C22 C23 1.343(3) .
C22 H22 0.9300 .
C31 H31 0.9300 .
C25 C26 1.377(4) .
C25 H25 0.9300 .
C6 C7 1.376(4) .
C6 C5 1.388(4) .
C6 H6 0.9300 .
C5 C4 1.415(4) .
C29 C30 1.349(3) .
C29 H29 0.9300 .
C16 C15 1.377(4) .
C16 H16 0.9300 .
C30 H30 0.9300 .
C7 H7 0.9300 .
C23 H23 0.9300 .
C19 H19 0.9300 .
C26 H26 0.9300 .
C3 C4 1.362(4) .
C3 H3 0.9300 .
C4 H4 0.9300 .
C15 H15 0.9300 .
C21 H21 0.9300 .
O2 C1 1.242(3) .
C1 O1 1.288(3) .
C9 C10 1.3900 .
C9 C13 1.3900 .
C10 C8 1.3900 .
C10 H10 0.9300 .
C8 C12 1.3900 .
C8 H8 0.9300 .
C12 C11 1.3900 .
C12 H12 0.9300 .
C11 C13 1.3900 .
C11 H11 0.9300 .
C13 H13 0.9300 .
C8A C13A 1.3900 .
C8A C9A 1.3900 .
C8A H8A 0.9300 .
C13A C12A 1.3900 .
C13A H13A 0.9300 .
C12A C11A 1.3900 .
C12A H12A 0.9300 .
C11A C10A 1.3900 .
C11A H11A 0.9300 .
C10A C9A 1.3900 .
C10A H10A 0.9300 .
loop_
_geom_torsion_atom_site_label_1
_geom_torsion_atom_site_label_2
_geom_torsion_atom_site_label_3
_geom_torsion_atom_site_label_4
_geom_torsion
_geom_torsion_site_symmetry_1
_geom_torsion_site_symmetry_4
C28 N4 C24 C25 0.9(3) . .
C28 N4 C24 N5 178.06(18) . .
N4 C24 N5 C31 178.2(2) . .
C25 C24 N5 C31 -4.5(4) . .
N4 C24 N5 C29 -7.2(3) . .
C25 C24 N5 C29 170.2(2) . .
C24 N4 C28 C27 -0.3(3) . .
C24 N4 C28 N3 -179.98(18) . .
C21 N3 C28 N4 -0.9(3) . .
C22 N3 C28 N4 177.0(2) . .
C21 N3 C28 C27 179.4(2) . .
C22 N3 C28 C27 -2.7(3) . .
N4 C28 C27 C26 -0.1(4) . .
N3 C28 C27 C26 179.5(2) . .
C19 C18 C17 C16 1.3(4) . .
C19 C18 C17 C20 -177.6(2) . .
Zn1 O3 C20 O4 4.3(3) . .
Zn1 O3 C20 C17 -175.52(15) . .
C18 C17 C20 O4 165.0(3) . .
C16 C17 C20 O4 -13.9(4) . .
C18 C17 C20 O3 -15.1(3) . .
C16 C17 C20 O3 165.9(2) . .
C5 N1 C14 C15 -103.8(3) . .
C9 N1 C14 C15 76.1(6) . .
C9A N1 C14 C15 98.9(5) . .
C5 N1 C14 C19 76.2(4) . .
C9 N1 C14 C19 -103.9(6) . .
C9A N1 C14 C19 -81.1(5) . .
C21 N3 C22 C23 0.1(3) . .
C28 N3 C22 C23 -178.1(2) . .
C30 N6 C31 N5 0.2(3) . .
Zn1 N6 C31 N5 -175.49(15) 6_565 .
C29 N5 C31 N6 -0.9(3) . .
C24 N5 C31 N6 174.6(2) . .
N4 C24 C25 C26 -1.0(4) . .
N5 C24 C25 C26 -178.1(2) . .
C14 N1 C5 C6 4.3(5) . .
C9 N1 C5 C6 -175.6(7) . .
C9A N1 C5 C6 160.7(4) . .
C14 N1 C5 C4 -177.3(3) . .
C9 N1 C5 C4 2.8(8) . .
C9A N1 C5 C4 -20.9(6) . .
C7 C6 C5 N1 177.5(3) . .
C7 C6 C5 C4 -0.9(4) . .
C31 N5 C29 C30 1.3(3) . .
C24 N5 C29 C30 -174.3(2) . .
C18 C17 C16 C15 -0.4(4) . .
C20 C17 C16 C15 178.6(2) . .
N5 C29 C30 N6 -1.2(3) . .
C31 N6 C30 C29 0.6(3) . .
Zn1 N6 C30 C29 175.78(18) 6_565 .
C5 C6 C7 C2 -0.2(4) . .
C3 C2 C7 C6 0.3(4) . .
C1 C2 C7 C6 -176.4(2) . .
N3 C22 C23 N2 0.0(3) . .
C21 N2 C23 C22 0.0(3) . .
Zn1 N2 C23 C22 172.33(17) . .
C17 C18 C19 C14 -0.7(4) . .
C15 C14 C19 C18 -0.8(4) . .
N1 C14 C19 C18 179.2(2) . .
C28 C27 C26 C25 0.0(4) . .
C24 C25 C26 C27 0.5(4) . .
C7 C2 C3 C4 0.9(4) . .
C1 C2 C3 C4 177.4(3) . .
C2 C3 C4 C5 -2.0(5) . .
N1 C5 C4 C3 -176.4(3) . .
C6 C5 C4 C3 2.0(5) . .
C19 C14 C15 C16 1.8(4) . .
N1 C14 C15 C16 -178.2(2) . .
C17 C16 C15 C14 -1.1(4) . .
C23 N2 C21 N3 0.1(3) . .
Zn1 N2 C21 N3 -172.32(14) . .
C22 N3 C21 N2 -0.1(3) . .
C28 N3 C21 N2 178.13(19) . .
C7 C2 C1 O2 2.2(4) . .
C3 C2 C1 O2 -174.3(3) . .
C7 C2 C1 O1 178.9(2) . .
C3 C2 C1 O1 2.4(4) . .
O2 C1 O1 Zn1 6.9(3) . 3_445
C2 C1 O1 Zn1 -169.80(17) . 3_445
C5 N1 C9 C10 106.7(9) . .
C14 N1 C9 C10 -73.3(9) . .
C5 N1 C9 C13 -76.2(8) . .
C14 N1 C9 C13 103.8(7) . .
C13 C9 C10 C8 0.0 . .
N1 C9 C10 C8 176.9(11) . .
C9 C10 C8 C12 0.0 . .
C10 C8 C12 C11 0.0 . .
C8 C12 C11 C13 0.0 . .
C12 C11 C13 C9 0.0 . .
C10 C9 C13 C11 0.0 . .
N1 C9 C13 C11 -177.3(9) . .
C9A C8A C13A C12A 0.0 . .
C8A C13A C12A C11A 0.0 . .
C13A C12A C11A C10A 0.0 . .
C12A C11A C10A C9A 0.0 . .
C11A C10A C9A C8A 0.0 . .
C11A C10A C9A N1 -176.7(6) . .
C13A C8A C9A C10A 0.0 . .
C13A C8A C9A N1 177.0(5) . .
C5 N1 C9A C10A -69.5(5) . .
C14 N1 C9A C10A 87.9(5) . .
C5 N1 C9A C8A 113.6(4) . .
C14 N1 C9A C8A -89.0(4) . .
