#------------------------------------------------------------------------------
#$Date: 2019-11-08 00:00:08 +0200 (Fri, 08 Nov 2019) $
#$Revision: 224159 $
#$URL: file:///home/coder/svn-repositories/cod/cif/7/04/86/7048622.cif $
#------------------------------------------------------------------------------
#
# This file is available in the Crystallography Open Database (COD),
# http://www.crystallography.net/
#
# All data on this site have been placed in the public domain by the
# contributors.
#
data_7048622
loop_
_publ_author_name
'Li, Feng-Cai'
'Li, Xi-Li'
'Tan, Li-Kun'
'Wang, Jin-Tang'
'Yao, Wei-Zhong'
_publ_section_title
;
 Evans-Showell-type polyoxometalate-based metal-organic complexes with
 novel 3D structures constructed from flexible bis-pyrazine-bis-amide
 ligands and copper metals: syntheses, structures, and fluorescence and
 catalytic properties.
;
_journal_issue                   6
_journal_name_full
'Dalton transactions (Cambridge, England : 2003)'
_journal_page_first              2160
_journal_page_last               2169
_journal_paper_doi               10.1039/c8dt04698k
_journal_volume                  48
_journal_year                    2019
_chemical_formula_moiety         'C16 H26 Cu2 N6 O6, Co2 Mo10 O38'
_chemical_formula_sum            'C16 H26 Co2 Cu2 Mo10 N6 O44'
_chemical_formula_weight         2210.77
_space_group_crystal_system      monoclinic
_space_group_IT_number           15
_space_group_name_Hall           '-C 2yc'
_space_group_name_H-M_alt        'C 1 2/c 1'
_symmetry_space_group_name_Hall  '-C 2yc'
_symmetry_space_group_name_H-M   'C 1 2/c 1'
_atom_sites_solution_hydrogens   mixed
_atom_sites_solution_primary     dual
_audit_creation_date             2018-06-12
_audit_creation_method
;
Olex2 1.2
(compiled 2018.04.18 svn.r3501 for OlexSys, GUI svn.r5497)
;
_audit_update_record
;
2018-07-12 deposited with the CCDC.
2019-01-14 downloaded from the CCDC.
;
_cell_angle_alpha                90
_cell_angle_beta                 96.520(4)
_cell_angle_gamma                90
_cell_formula_units_Z            4
_cell_length_a                   23.3279(8)
_cell_length_b                   12.4706(5)
_cell_length_c                   22.1391(12)
_cell_measurement_reflns_used    6477
_cell_measurement_temperature    293(2)
_cell_measurement_theta_max      28.8410
_cell_measurement_theta_min      3.5280
_cell_volume                     6398.9(5)
_computing_molecular_graphics    'Olex2 (Dolomanov et al., 2009)'
_computing_publication_material  'Olex2 (Dolomanov et al., 2009)'
_computing_structure_refinement  'ShelXL (Sheldrick, 2015)'
_computing_structure_solution    'ShelXT (Sheldrick, 2015)'
_diffrn_ambient_temperature      293(2)
_diffrn_measured_fraction_theta_full 0.998
_diffrn_measured_fraction_theta_max 0.854
_diffrn_measurement_device_type  'multiwire proportional'
_diffrn_measurement_method       'phi and omega scans'
_diffrn_radiation_monochromator  graphite
_diffrn_radiation_type           MoK\a
_diffrn_radiation_wavelength     0.71073
_diffrn_reflns_av_R_equivalents  0.0320
_diffrn_reflns_av_unetI/netI     0.0467
_diffrn_reflns_Laue_measured_fraction_full 0.998
_diffrn_reflns_Laue_measured_fraction_max 0.854
_diffrn_reflns_limit_h_max       29
_diffrn_reflns_limit_h_min       -26
_diffrn_reflns_limit_k_max       15
_diffrn_reflns_limit_k_min       -16
_diffrn_reflns_limit_l_max       29
_diffrn_reflns_limit_l_min       -30
_diffrn_reflns_number            17275
_diffrn_reflns_point_group_measured_fraction_full 0.998
_diffrn_reflns_point_group_measured_fraction_max 0.854
_diffrn_reflns_theta_full        25.242
_diffrn_reflns_theta_max         29.34
_diffrn_reflns_theta_min         3.10
_exptl_absorpt_coefficient_mu    3.134
_exptl_absorpt_correction_T_max  1.00000
_exptl_absorpt_correction_T_min  0.79276
_exptl_absorpt_correction_type   multi-scan
_exptl_crystal_colour            'clear dark green'
_exptl_crystal_colour_lustre     clear
_exptl_crystal_colour_modifier   dark
_exptl_crystal_colour_primary    green
_exptl_crystal_density_diffrn    2.295
_exptl_crystal_description       block
_exptl_crystal_F_000             4192
_exptl_crystal_size_max          0.3
_exptl_crystal_size_mid          0.25
_exptl_crystal_size_min          0.2
_refine_diff_density_max         1.282
_refine_diff_density_min         -1.253
_refine_diff_density_rms         0.236
_refine_ls_extinction_method     none
_refine_ls_goodness_of_fit_ref   1.074
_refine_ls_hydrogen_treatment    constr
_refine_ls_matrix_type           full
_refine_ls_number_parameters     364
_refine_ls_number_reflns         7494
_refine_ls_number_restraints     0
_refine_ls_restrained_S_all      1.074
_refine_ls_R_factor_all          0.0639
_refine_ls_R_factor_gt           0.0505
_refine_ls_shift/su_max          0.001
_refine_ls_shift/su_mean         0.000
_refine_ls_structure_factor_coef Fsqd
_refine_ls_weighting_details
'w=1/[\s^2^(Fo^2^)+(0.0989P)^2^+11.9185P] where P=(Fo^2^+2Fc^2^)/3'
_refine_ls_weighting_scheme      calc
_refine_ls_wR_factor_gt          0.1559
_refine_ls_wR_factor_ref         0.1697
_reflns_Friedel_coverage         0.000
_reflns_number_gt                5906
_reflns_number_total             7494
_reflns_threshold_expression     'I > 2\s(I)'
_iucr_refine_instructions_details
;

    1.res created by SHELXL-2014/7

TITL 1_a.res in C2/c
REM Old TITL 1 in C2/c
REM SHELXT solution in C2/c
REM R1 0.149, Rweak 0.005, Alpha 0.034, Orientation as input
REM Formula found by SHELXT: C9 N3 O23 Cu Mo6
CELL 0.71073 23.3279 12.4706 22.1391 90 96.52 90
ZERR 4 0.0008 0.0005 0.0012 0 0.004 0
LATT 7
SYMM -X,+Y,0.5-Z
SFAC C H Co Cu Mo N O
UNIT 64 104 8 8 40 24 176
 
L.S. 4 0 0
PLAN  5
SIZE 0.3 0.25 0.2
TEMP 20(2)
list 4
fmap 2 53
ACTA
ABIN
REM <olex2.extras>
REM <HklSrc "%.\\1.hkl">
REM </olex2.extras>
 
WGHT    0.098900   11.918500
FVAR       0.07377
C1    1    0.176452    0.452488    0.711805    11.00000    0.04054    0.03895 =
         0.04775   -0.00799    0.01442   -0.01472
AFIX  43
H1    2    0.189537    0.385860    0.700394    11.00000   -1.20000
AFIX   0
C2    1    0.161558    0.530918    0.668546    11.00000    0.06185    0.05577 =
         0.04043    0.00080    0.01045   -0.00544
AFIX  43
H2    2    0.164366    0.514153    0.628056    11.00000   -1.20000
AFIX   0
C3    1    0.138879    0.647344    0.739416    11.00000    0.06082    0.03070 =
         0.05281    0.00035   -0.00228   -0.00326
AFIX  43
H3    2    0.125933    0.714569    0.749994    11.00000   -1.20000
AFIX   0
C4    1    0.152499    0.571152    0.785095    11.00000    0.02054    0.03762 =
         0.04735    0.00006    0.00057   -0.01196
C5    1    0.147808    0.583242    0.851311    11.00000    0.02591    0.03285 =
         0.04531    0.00499    0.00676    0.00047
C6    1    0.123852    0.696355    0.936558    11.00000    0.05095    0.03801 =
         0.04351   -0.00416    0.01857    0.00202
AFIX  23
H6A   2    0.123515    0.629052    0.958480    11.00000   -1.20000
H6B   2    0.087034    0.731435    0.938749    11.00000   -1.20000
AFIX   0
C7    1    0.172066    0.767285    0.966828    11.00000    0.06814    0.05743 =
         0.04393   -0.00446    0.01725   -0.00083
AFIX  23
H7A   2    0.178524    0.825470    0.939320    11.00000   -1.20000
H7B   2    0.159279    0.798751    1.003065    11.00000   -1.20000
AFIX   0
C8    1    0.227150    0.712406    0.983965    11.00000    0.06709    0.05484 =
         0.06024    0.00235    0.01764   -0.00172
AFIX  23
H8A   2    0.241204    0.683406    0.947747    11.00000   -1.20000
H8B   2    0.220991    0.652932    1.010720    11.00000   -1.20000
AFIX   0
CU1   4    0.192106    0.382336    0.842909    11.00000    0.03940    0.02684 =
         0.04481    0.00189    0.01156    0.00224
N1    6    0.171763    0.473862    0.769890    11.00000    0.02089    0.02827 =
         0.04454   -0.00422    0.00851   -0.00624
N2    6    0.143879    0.626612    0.680955    11.00000    0.05520    0.04838 =
         0.05168    0.00801    0.00162   -0.00326
N3    6    0.130978    0.674448    0.872555    11.00000    0.04432    0.02692 =
         0.04844    0.00488    0.00478    0.00425
AFIX  43
H3A   2    0.123457    0.725855    0.846987    11.00000   -1.20000
AFIX   0
O21   7    0.231579    0.268087    0.803556    11.00000    0.03840    0.03280 =
         0.06099   -0.00854    0.01521   -0.00828
AFIX   7
H21A  2    0.246872    0.292748    0.772478    11.00000   -1.50000
H21B  2    0.207089    0.220790    0.787723    11.00000   -1.50000
AFIX   0
O22   7    0.208314    0.312104    0.920881    11.00000    0.07517    0.04682 =
         0.05155    0.01276    0.00622    0.00422
AFIX   7
H22   2    0.187833    0.254275    0.921881    11.00000   -1.50000
AFIX   0
O23   7    0.159733    0.502588    0.884039    11.00000    0.05376    0.03078 =
         0.04037    0.00254    0.01355    0.00610
 
CO1   3    0.552232    0.583335    0.725932    11.00000    0.01737    0.02005 =
         0.02965    0.00073    0.00884    0.00104
MO1   5    0.557610    0.712414    0.841494    11.00000    0.02213    0.02406 =
         0.03190   -0.00163    0.00927   -0.00299
MO2   5    0.435495    0.714531    0.900557    11.00000    0.02770    0.03015 =
         0.03175   -0.00332    0.01255   -0.00293
MO3   5    0.322612    0.587723    0.830375    11.00000    0.01981    0.02743 =
         0.03784    0.00162    0.01195   -0.00031
MO4   5    0.338069    0.462775    0.701089    11.00000    0.02086    0.02816 =
         0.04249   -0.00630    0.00970   -0.00376
MO5   5    0.464919    0.448029    0.651996    11.00000    0.02450    0.02449 =
         0.03601   -0.00629    0.01127   -0.00273
O1    7    0.602737    0.689576    0.696530    11.00000    0.02235    0.02234 =
         0.03256    0.00179    0.01199   -0.00381
O2    7    0.609917    0.480815    0.706842    11.00000    0.02254    0.01777 =
         0.03960   -0.00066    0.01013    0.00150
O3    7    0.500000    0.684090    0.750000    10.50000    0.02281    0.02285 =
         0.03179    0.00000    0.01275    0.00000
O4    7    0.588566    0.578368    0.807557    11.00000    0.02704    0.02290 =
         0.03248    0.00366    0.00718    0.00211
O5    7    0.598223    0.803624    0.806171    11.00000    0.02857    0.03049 =
         0.04474   -0.00357    0.01391   -0.00593
O6    7    0.593271    0.695052    0.912349    11.00000    0.04269    0.04294 =
         0.03864   -0.00261    0.00778   -0.00331
O7    7    0.493407    0.790847    0.861199    11.00000    0.02666    0.02283 =
         0.04293   -0.00512    0.01320   -0.00200
O8    7    0.473524    0.686131    0.969138    11.00000    0.04268    0.05944 =
         0.03246    0.00454    0.00868   -0.00046
O9    7    0.394105    0.821131    0.913482    11.00000    0.05258    0.03392 =
         0.05547   -0.01062    0.02570   -0.00428
O10   7    0.380250    0.597931    0.899204    11.00000    0.03029    0.02992 =
         0.03538    0.00214    0.01266    0.00040
O11   7    0.280670    0.695851    0.839157    11.00000    0.03188    0.04339 =
         0.04427    0.00265    0.01369    0.01365
O12   7    0.284858    0.479534    0.851659    11.00000    0.03411    0.03959 =
         0.04838    0.00676    0.01376   -0.00619
O13   7    0.306013    0.581416    0.742005    11.00000    0.02315    0.02888 =
         0.04185    0.00365    0.00778    0.00143
O14   7    0.299687    0.359171    0.727212    11.00000    0.02719    0.03062 =
         0.07441   -0.00206    0.01968   -0.00535
O15   7    0.306383    0.488279    0.629244    11.00000    0.03835    0.06167 =
         0.04586   -0.01159    0.00016    0.00031
O16   7    0.404439    0.374080    0.685935    11.00000    0.03007    0.02420 =
         0.04987   -0.00867    0.01468   -0.00106
O17   7    0.433714    0.458756    0.578896    11.00000    0.05576    0.04600 =
         0.04062   -0.01098    0.01289   -0.01391
O18   7    0.518456    0.353488    0.650090    11.00000    0.03067    0.03020 =
         0.06170   -0.01255    0.01339    0.00221
O19   7    0.509375    0.584337    0.648244    11.00000    0.02210    0.02701 =
         0.03073    0.00269    0.00688   -0.00119
O20   7    0.500000    0.480733    0.750000    10.50000    0.01539    0.02294 =
         0.03875    0.00000    0.00927    0.00000
HKLF 4
 
REM  1_a.res in C2/c
REM R1 =  0.0505 for    5906 Fo > 4sig(Fo)  and  0.0639 for all    7494 data
REM    364 parameters refined using      0 restraints
 
END  
     
WGHT      0.0990     11.9333 

REM Highest difference peak  1.282,  deepest hole -1.253,  1-sigma level  0.236
Q1    1   0.1789  0.2170  0.7837  11.00000  0.05    0.97
Q2    1   0.6147  0.8216  0.7989  11.00000  0.05    0.96
Q3    1   0.5815  0.4212  0.6821  11.00000  0.05    0.91
Q4    1   0.5990  0.7429  0.7257  11.00000  0.05    0.86
Q5    1   0.6221  0.7686  0.7421  11.00000  0.05    0.86

  REM The information below was added by Olex2.
  REM
  REM R1 = 0.0505 for 5906 Fo > 4sig(Fo) and 0.0639 for all 17275 data
  REM n/a parameters refined using n/a restraints
  REM Highest difference peak 1.28, deepest hole -1.25
  REM Mean Shift 0, Max Shift 0.001.

  REM +++ Tabular Listing of Refinement Information +++
  REM R1_all = 0.0639
  REM R1_gt = 0.0505
  REM wR_ref = 0.1697
  REM GOOF = 1.074
  REM Shift_max = 0.001
  REM Shift_mean = 0
  REM Reflections_all = 17275
  REM Reflections_gt = 5906
  REM Parameters = n/a
  REM Hole = -1.25
  REM Peak = 1.28
  REM Flack = n/a

  
;
_cod_data_source_file            c8dt04698k2.cif
_cod_data_source_block           1_CCDC1
_cod_depositor_comments
'Adding full bibliography for 7048621--7048622.cif.'
_cod_database_code               7048622
_shelx_shelxl_version_number     2014/7
_shelx_space_group_comment
;
The symmetry employed for this shelxl refinement is uniquely defined
by the following loop, which should always be used as a source of
symmetry information in preference to the above space-group names.
They are only intended as comments.
;
_shelx_estimated_absorpt_t_max   0.573
_shelx_estimated_absorpt_t_min   0.453
_olex2_refinement_description
;
1. Fixed Uiso
 At 1.2 times of:
  All C(H) groups, All C(H,H) groups, All N(H) groups
 At 1.5 times of:
  All O(H) groups, All O(H,H) groups
2.a Rotating group:
 O21(H21A,H21B), O22(H22)
2.b Secondary CH2 refined with riding coordinates:
 C6(H6A,H6B), C7(H7A,H7B), C8(H8A,H8B)
2.c Aromatic/amide H refined with riding coordinates:
 C1(H1), C2(H2), C3(H3), N3(H3A)
;
_shelx_fab_file
;
-29 1 1 5.7159 0.8527
-29 1 2 0.0044 0.9515
-29 1 3 -6.3678 -0.5238
-29 1 4 -4.1146 -1.7029
-29 1 5 -19.4953 -0.4238
-29 1 6 8.5135 -0.0780
-29 1 7 -12.8990 0.8328
-29 3 1 8.4217 0.4788
-29 3 2 10.3112 0.0047
-29 3 3 -3.8034 -0.4783
-29 3 4 2.7430 -0.1692
-29 3 5 8.5389 0.0306
-29 3 6 0.4940 -0.0382
-29 3 7 -4.3229 0.1607
-29 5 1 9.8649 -0.2689
-29 5 2 2.9254 -0.5818
-29 5 3 -1.5707 0.5640
-29 5 4 -3.7629 -0.0342
-29 5 5 14.6774 0.1202
-28 0 2 4.7548 -1.2558
-28 0 4 15.1303 2.7100
-28 0 6 -10.7590 -1.8007
-28 0 8 -5.0683 -0.8772
-28 0 10 8.9125 -0.7993
-28 2 1 -9.8073 -1.0763
-28 2 2 -11.7368 -0.0073
-28 2 3 2.7840 0.0527
-28 2 4 -1.9324 0.5433
-28 2 5 -9.5615 -0.0305
-28 2 6 -0.3389 -0.0028
-28 2 7 -10.1719 -0.1033
-28 2 8 -10.0221 -0.8261
-28 2 9 -4.1898 -0.3448
-28 2 10 8.4528 0.0570
-28 2 11 4.1432 0.4012
-28 4 1 -8.3784 0.7778
-28 4 2 -4.7339 0.2164
-28 4 3 9.2134 -0.1592
-28 4 4 -4.7866 0.3917
-28 4 5 -0.5210 -0.3814
-28 4 6 -6.7384 -0.1039
-28 4 7 9.5492 -0.5901
-28 4 8 -5.7037 -0.2305
-28 4 9 1.7180 0.3619
-28 4 10 9.5726 0.2678
-28 6 1 -4.7267 0.2830
-28 6 2 -5.8396 -0.0926
-28 6 3 12.1428 -0.0918
-28 6 4 10.3948 -0.1024
-28 6 5 0.4101 -0.4211
-28 6 6 -0.5087 -0.2262
-28 6 7 1.8225 -0.6204
-28 6 8 2.6163 0.4817
-28 6 9 0.3696 0.3946
-28 8 2 -1.3616 0.3292
-28 8 3 -0.4811 -0.0012
-28 8 4 8.1676 -0.5532
-27 1 1 6.0375 0.3984
-27 1 2 5.4707 0.5325
-27 1 3 -10.4677 0.0162
-27 1 4 -3.3529 -1.7425
-27 1 5 -7.6182 -0.6271
-27 1 6 8.6027 0.6166
-27 1 7 -1.2303 0.5338
-27 1 8 4.1112 0.3644
-27 1 9 -4.2910 0.1964
-27 1 10 -5.9258 0.1572
-27 1 11 -3.4745 -0.4397
-27 1 12 0.3696 -1.2110
-27 1 13 0.1707 -0.1323
-27 1 16 14.1312 1.2370
-27 1 17 -4.3544 -0.2025
-27 3 1 24.0292 0.1506
-27 3 2 13.5704 0.2790
-27 3 3 1.7810 -0.3091
-27 3 4 18.1471 -0.1536
-27 3 5 5.0291 0.4477
-27 3 6 33.0768 -0.2686
-27 3 7 -5.3998 -0.1944
-27 3 8 40.0216 0.0318
-27 3 9 -3.3107 -0.0566
-27 3 10 15.0100 -0.2007
-27 3 11 -1.5832 -0.5184
-27 3 12 5.6632 0.3886
-27 3 13 3.7480 0.3710
-27 3 16 7.6571 -0.0806
-27 3 17 4.0107 -0.0316
-27 3 18 5.7662 -0.0413
-27 5 1 -0.4463 -0.2621
-27 5 2 12.2557 -0.3698
-27 5 3 -11.0158 0.1106
-27 5 4 5.4773 -0.0565
-27 5 5 10.9811 -0.1946
-27 5 6 8.8531 -0.0739
-27 5 7 1.4916 0.4280
-27 5 8 5.1861 -0.0562
-27 5 9 1.6627 -0.2393
-27 5 10 -9.0600 -0.2093
-27 5 11 2.4738 0.0916
-27 5 12 -3.3286 0.3240
-27 5 13 12.1486 0.3628
-27 7 1 -2.1058 -0.2735
-27 7 2 8.7566 0.2904
-27 7 3 -6.0236 0.1255
-27 7 4 -11.6947 0.1277
-27 7 5 -4.4165 -0.0241
-27 7 6 0.6663 0.4749
-27 7 7 -1.1364 0.4404
-27 7 8 -7.0097 -0.3056
-27 7 9 -7.0048 -0.0134
-27 7 10 -3.9582 -0.3284
-27 7 11 -8.1985 0.3610
-27 7 12 -9.2687 0.4175
-26 0 2 2.0574 -1.4139
-26 0 4 5.6689 1.8944
-26 0 6 -12.4628 -2.5378
-26 0 8 -0.8525 0.3334
-26 0 10 4.6062 -1.1432
-26 0 12 2.3555 3.4325
-26 0 14 -3.5815 -0.9116
-26 0 16 -5.9941 -1.1499
-26 2 1 -14.7788 -1.2265
-26 2 2 -2.4840 0.3557
-26 2 3 7.3720 0.1271
-26 2 4 6.5513 0.1255
-26 2 5 5.3543 0.3614
-26 2 6 -8.3973 -0.1998
-26 2 7 12.8585 0.2193
-26 2 8 -12.4705 -0.6431
-26 2 9 14.9514 -0.6026
-26 2 10 -2.7113 0.0881
-26 2 11 9.0045 0.5408
-26 2 12 -2.0723 0.4378
-26 2 13 -5.0816 -0.1007
-26 2 14 -4.6699 0.3169
-26 2 15 0.5437 -0.2869
-26 2 16 -2.9286 -0.8240
-26 2 17 -4.4749 -0.2002
-26 2 18 5.4203 -0.0225
-26 2 19 -0.4497 0.1878
-26 4 1 3.2774 0.4875
-26 4 2 -19.0274 0.1068
-26 4 3 16.5862 -0.3072
-26 4 4 -10.3898 0.2462
-26 4 5 -3.0636 -0.1936
-26 4 6 -7.0268 -0.3217
-26 4 7 -5.9300 -0.1325
-26 4 8 -8.7561 -0.2557
-26 4 9 -9.5473 0.2973
-26 4 10 7.0570 0.5209
-26 4 11 -13.6590 0.3073
-26 4 12 3.4586 0.0430
-26 4 13 -13.0553 -0.0632
-26 4 14 4.5159 -0.2303
-26 4 16 -0.3288 0.0145
-26 6 1 -4.7367 0.2887
-26 6 2 -2.4123 0.1766
-26 6 3 9.0864 -0.0456
-26 6 4 7.6517 0.2095
-26 6 5 -4.4688 -0.1478
-26 6 6 -9.7100 -0.2320
-26 6 7 1.0596 -0.1769
-26 6 8 0.6237 -0.0310
-26 6 9 -0.9837 0.2295
-26 6 10 1.2086 0.1218
-26 6 11 1.8760 -0.1250
-26 6 12 -5.8973 -0.1991
-26 6 13 -7.3776 -0.1101
-26 8 1 -1.4030 0.3654
-26 8 2 3.3660 0.1280
-26 8 3 -10.3643 0.2744
-26 8 4 14.5979 -0.1353
-26 8 5 -0.8366 -0.3428
-26 8 6 4.6961 0.1632
-26 8 7 -1.5795 -0.4043
-26 8 8 -0.4947 -0.2806
-26 8 9 12.2738 0.6136
-26 8 10 -6.3261 -0.2386
-26 8 11 6.6223 0.7877
-26 10 1 4.6094 -0.1486
-26 10 2 9.7482 0.2051
-26 10 3 2.7998 0.3270
-26 10 4 3.9559 0.0692
-26 10 5 5.2859 -0.3215
-25 1 1 4.3646 -0.2330
-25 1 2 -0.1951 -0.0673
-25 1 3 -11.2036 1.1168
-25 1 4 -4.1418 -0.5228
-25 1 5 -2.5518 -0.7777
-25 1 6 11.9751 1.0185
-25 1 7 -4.0132 -0.2289
-25 1 8 2.7606 -0.6878
-25 1 9 -5.9571 0.6643
-25 1 10 -2.8634 0.7944
-25 1 11 -5.4417 0.0153
-25 1 12 -2.2021 -1.5366
-25 1 13 1.6278 -0.5173
-25 1 14 2.3520 0.5017
-25 1 15 -1.3058 0.8931
-25 1 16 4.6797 0.7181
-25 1 17 0.4864 -0.3445
-25 1 18 -2.4787 -0.5664
-25 1 19 -0.6255 -0.4555
-25 1 20 -6.9116 -0.6211
-25 3 1 2.1020 0.1331
-25 3 2 25.1412 0.2372
-25 3 3 -15.5443 -0.3728
-25 3 4 15.4047 -0.2976
-25 3 5 -6.3488 0.2570
-25 3 6 16.1881 -0.2408
-25 3 7 -3.0826 -0.3497
-25 3 8 10.3849 0.2717
-25 3 9 -2.6393 0.5096
-25 3 10 -1.5518 -0.2621
-25 3 11 8.0884 -0.4038
-25 3 12 -1.7222 -0.1297
-25 3 13 13.4091 0.5724
-25 3 14 4.0975 -0.1717
-25 3 15 3.2367 -0.2234
-25 3 16 6.6499 -0.1071
-25 3 17 1.5685 -0.3085
-25 3 18 2.1354 -0.2501
-25 3 19 -4.7149 -0.7788
-25 3 20 2.6714 0.1096
-25 5 1 4.3016 -0.3515
-25 5 2 -0.1783 -0.1753
-25 5 3 -8.1443 0.2499
-25 5 4 -2.6312 -0.3365
-25 5 5 2.0647 -0.1210
-25 5 6 4.8410 -0.0869
-25 5 7 -7.7623 0.2203
-25 5 8 4.5201 0.3783
-25 5 9 -1.6047 -0.2070
-25 5 10 -6.4576 -0.3737
-25 5 11 -0.5764 0.1363
-25 5 12 2.7216 -0.0349
-25 5 13 0.6098 0.0609
-25 5 14 -0.4970 -0.1966
-25 5 15 -7.8179 0.4479
-25 7 1 3.8921 -0.2330
-25 7 2 6.4791 0.1129
-25 7 3 0.2070 -0.5102
-25 7 4 -11.7383 -0.0252
-25 7 5 0.7255 0.0162
-25 7 6 5.8815 0.0502
-25 7 7 2.6253 0.5216
-25 7 8 -3.4979 -0.3429
-25 7 9 -8.2144 -0.1510
-25 7 10 5.0009 0.2971
-25 7 11 -3.7006 -0.2960
-25 7 12 2.1928 0.3960
-25 7 13 6.3738 0.0973
-25 9 1 -11.5222 0.0485
-25 9 2 -0.2636 -0.0458
-25 9 3 6.0775 -0.4291
-25 9 4 1.6610 0.2118
-25 9 5 -6.0512 0.2684
-25 9 6 3.9719 -0.0742
-25 9 7 -7.5945 0.1338
-25 9 8 6.6606 0.1681
-25 9 9 -7.1211 0.3180
-25 9 10 3.5739 -0.9058
-25 9 11 2.3223 -0.3439
-24 0 2 4.8560 -2.2279
-24 0 4 2.5385 0.0284
-24 0 6 -8.9197 -2.7470
-24 0 8 0.4332 1.5750
-24 0 10 0.2745 -1.0664
-24 0 12 -1.1913 3.6616
-24 0 14 -3.0835 -2.7792
-24 0 16 -1.4111 -0.7293
-24 0 18 0.4536 -0.6543
-24 0 20 3.5972 1.6995
-24 2 1 4.0071 -0.4483
-24 2 2 -1.3654 0.2731
-24 2 3 23.0725 -0.4554
-24 2 4 9.8964 -1.0900
-24 2 5 7.5582 0.0787
-24 2 6 -5.6801 -0.3578
-24 2 7 4.4239 0.5244
-24 2 8 -1.6001 0.1757
-24 2 9 7.1395 -0.5313
-24 2 10 -0.4644 0.0774
-24 2 11 5.2487 0.3725
-24 2 12 4.1633 0.2930
-24 2 13 -3.8748 0.0140
-24 2 14 1.0128 0.2016
-24 2 15 2.6395 0.1289
-24 2 16 -4.5664 -0.7607
-24 2 17 0.7147 -0.3848
-24 2 18 0.8577 0.2040
-24 2 19 4.6987 -0.0089
-24 2 20 0.2597 0.0259
-24 2 21 7.9403 -0.9177
-24 4 1 -2.4098 0.0481
-24 4 2 1.3023 -0.2682
-24 4 3 -2.5926 -0.3117
-24 4 4 3.1866 0.3338
-24 4 5 -8.7733 -0.0278
-24 4 6 -1.3935 -0.2608
-24 4 7 -6.5785 0.1751
-24 4 8 -6.1743 -0.5754
-24 4 9 -4.2876 0.2781
-24 4 10 5.4063 0.4360
-24 4 11 -13.1893 0.3766
-24 4 12 -2.5875 0.3953
-24 4 13 -11.0914 -0.1279
-24 4 14 -2.7732 -0.0239
-24 4 15 -5.7329 -0.2138
-24 4 16 -9.5381 -0.1228
-24 4 17 -3.3849 -0.0399
-24 4 18 -0.5601 0.1329
-24 6 1 -4.7850 -0.2406
-24 6 2 7.8461 -0.0286
-24 6 3 8.0400 -0.0556
-24 6 4 12.3662 -0.1484
-24 6 5 -1.9953 0.1338
-24 6 6 -1.7370 -0.1608
-24 6 7 0.5382 0.0723
-24 6 8 7.6643 0.0816
-24 6 9 -2.8113 0.1626
-24 6 10 2.3471 0.1782
-24 6 11 -1.2050 0.1806
-24 6 12 2.2864 -0.1834
-24 6 13 -8.8971 -0.0015
-24 6 14 8.9591 0.0059
-24 8 1 2.1754 0.2274
-24 8 2 -0.1138 -0.3290
-24 8 3 -10.4463 0.3002
-24 8 4 8.3885 -0.0001
-24 8 5 2.5472 -0.2218
-24 8 6 -6.4418 0.0424
-24 8 7 -3.6236 -0.0553
-24 8 8 -6.6761 -0.1444
-24 8 9 6.2520 0.4923
-24 8 10 -3.8192 0.1282
-24 8 11 -2.4060 0.1215
-24 8 12 1.0906 0.1645
-24 8 13 -3.4223 -0.3105
-24 10 1 7.2917 -0.3310
-24 10 2 7.9121 -0.5826
-24 10 3 2.9835 0.0917
-24 10 4 0.8248 -0.2950
-24 10 5 3.8950 -0.2087
-24 10 6 5.7358 0.1522
-24 10 7 1.3871 -0.1009
-24 10 8 6.9074 -0.2105
-24 10 9 -0.8816 -0.1017
-24 10 10 -0.5105 0.3747
-24 10 11 0.2041 0.6194
-23 1 1 6.6507 0.7131
-23 1 2 5.4951 -0.3865
-23 1 3 -6.4640 2.1974
-23 1 4 1.3079 0.2576
-23 1 5 7.5453 -0.7342
-23 1 6 5.2249 0.5937
-23 1 7 1.7373 -0.6210
-23 1 8 -6.7578 -1.2832
-23 1 9 0.1581 0.9348
-23 1 10 -2.3269 0.9700
-23 1 11 0.0109 0.2395
-23 1 12 0.3578 -1.3596
-23 1 13 7.0776 -1.0048
-23 1 14 1.8765 1.0201
-23 1 15 2.0142 0.6772
-23 1 16 1.9335 0.0203
-23 1 17 -3.2628 0.2318
-23 1 18 0.1279 -0.1989
-23 1 19 -1.9363 0.0797
-23 1 20 -0.0744 -1.0837
-23 1 21 -2.6487 0.2284
-23 1 22 11.9532 0.3702
-23 3 1 4.1575 0.3129
-23 3 2 -1.3106 -0.0358
-23 3 3 0.4865 -0.0885
-23 3 4 -15.5983 0.0542
-23 3 5 2.3016 0.3014
-23 3 6 -2.2875 -0.1990
-23 3 7 4.7231 -0.4833
-23 3 8 0.1126 0.0994
-23 3 9 0.5173 0.2416
-23 3 10 -5.0008 0.0301
-23 3 11 10.1326 -0.2908
-23 3 12 -7.0212 0.1901
-23 3 13 7.2046 0.6806
-23 3 14 -1.7238 -0.0887
-23 3 15 -1.8505 -0.7036
-23 3 16 4.6359 0.3542
-23 3 17 -0.9206 -0.1394
-23 3 18 -1.6264 0.0722
-23 3 19 -2.5324 -0.3037
-23 3 20 0.3582 0.2322
-23 3 21 -1.4125 1.1156
-23 5 1 19.1273 -0.3135
-23 5 2 -10.1290 -0.0883
-23 5 3 2.4801 0.3868
-23 5 4 0.1711 -0.5177
-23 5 5 4.1309 -0.2069
-23 5 6 2.1910 -0.1025
-23 5 7 -0.5477 0.0775
-23 5 8 -1.9103 0.5624
-23 5 9 2.1935 0.1198
-23 5 10 -8.9409 -0.2540
-23 5 11 1.6505 0.0553
-23 5 12 -1.4865 -0.0808
-23 5 13 3.5136 -0.4270
-23 5 14 -6.5396 -0.0211
-23 5 15 -0.2163 0.1577
-23 5 16 6.7570 0.2436
-23 5 17 0.5953 -0.0660
-23 7 1 -5.4724 0.0613
-23 7 2 0.7707 0.1714
-23 7 3 4.9144 -0.3327
-23 7 4 -10.6282 -0.2522
-23 7 5 -1.6644 0.4043
-23 7 6 5.3445 -0.1538
-23 7 7 -1.9839 0.3159
-23 7 8 -3.8946 -0.0836
-23 7 9 -9.6732 -0.3057
-23 7 10 2.3048 0.4960
-23 7 11 -3.5729 -0.3469
-23 7 12 -1.2248 0.2226
-23 7 13 -0.7997 0.0743
-23 7 14 3.9123 0.2127
-23 9 1 4.9692 0.0571
-23 9 2 5.8017 0.0508
-23 9 3 8.6151 -0.4073
-23 9 4 11.3554 0.0147
-23 9 5 -4.2856 -0.0464
-23 9 6 7.4033 -0.2930
-23 9 7 6.1194 0.1231
-23 9 8 5.6567 -0.0278
-23 9 9 2.7871 0.0212
-23 9 10 0.8424 -0.3761
-23 9 11 -2.8112 -0.3317
-23 9 12 1.0708 0.2779
-23 11 1 3.0647 -0.0192
-23 11 2 -0.8675 0.2289
-23 11 3 5.9602 0.1466
-23 11 4 -4.6084 0.0282
-22 0 2 3.0170 0.5659
-22 0 4 -0.5617 -0.4608
-22 0 6 -4.1097 -0.7859
-22 0 8 -1.4518 2.4249
-22 0 10 -2.9029 -0.7162
-22 0 12 2.7279 2.2347
-22 0 14 8.5453 -3.6649
-22 0 16 8.7280 0.6535
-22 0 18 -2.1678 -0.4738
-22 0 20 0.3755 3.1168
-22 0 22 -9.2937 -1.7961
-22 2 1 2.6870 0.0786
-22 2 2 -4.5423 0.5154
-22 2 3 1.0120 -0.2856
-22 2 4 8.6962 -0.9578
-22 2 5 -13.6359 0.8371
-22 2 6 -7.7926 0.1581
-22 2 7 -0.8047 0.7596
-22 2 8 -2.1243 0.6417
-22 2 9 8.9505 -0.6239
-22 2 10 -2.0237 -0.2038
-22 2 11 2.1896 -0.1113
-22 2 12 2.9129 -0.1412
-22 2 13 -5.6833 -0.0394
-22 2 14 -0.0681 0.0363
-22 2 15 2.0214 0.2152
-22 2 16 -2.5090 -0.4356
-22 2 17 6.3638 -0.2416
-22 2 18 4.4957 0.1317
-22 2 19 5.3615 0.6800
-22 2 20 -0.2213 0.3373
-22 2 21 6.3945 -0.4610
-22 2 22 -7.3072 0.5268
-22 2 23 -0.5019 -0.8967
-22 4 1 -6.1326 -0.2614
-22 4 2 2.4123 -0.3349
-22 4 3 -3.0151 -0.1266
-22 4 4 -5.3563 0.4963
-22 4 5 3.4124 0.0466
-22 4 6 -5.6757 0.0553
-22 4 7 -3.3996 0.3280
-22 4 8 -6.4361 -0.3883
-22 4 9 -3.1039 0.0959
-22 4 10 1.5676 0.2437
-22 4 11 -7.9120 -0.3036
-22 4 12 -2.9675 0.1660
-22 4 13 -2.3483 -0.5598
-22 4 14 0.6594 -0.0949
-22 4 15 1.4553 0.1955
-22 4 16 -7.0293 -0.2099
-22 4 17 5.6740 0.3677
-22 4 18 -0.8847 0.3412
-22 4 19 5.4761 0.1854
-22 6 1 3.3964 -0.0886
-22 6 2 -6.2069 0.2366
-22 6 3 2.3187 -0.1241
-22 6 4 -0.2619 0.0827
-22 6 5 -2.7838 0.0616
-22 6 6 -6.3905 0.1837
-22 6 7 0.7009 0.0876
-22 6 8 4.7246 -0.1063
-22 6 9 3.0711 -0.0981
-22 6 10 3.4959 -0.2664
-22 6 11 5.7399 0.0495
-22 6 12 5.5511 -0.1012
-22 6 13 3.8602 0.2453
-22 6 14 7.0376 0.2617
-22 6 15 14.4288 -0.2518
-22 6 16 -6.0889 0.2176
-22 6 17 15.1247 0.2049
-22 8 1 1.2253 -0.0958
-22 8 2 -1.1353 -0.2773
-22 8 3 -11.7641 0.3016
-22 8 4 -5.2096 0.1119
-22 8 5 4.5141 0.0381
-22 8 6 -7.1032 -0.1290
-22 8 7 -4.2021 -0.1213
-22 8 8 1.5620 -0.0985
-22 8 9 3.6255 0.0079
-22 8 10 4.7340 -0.0220
-22 8 11 2.3434 0.0558
-22 8 12 2.6672 0.0733
-22 8 13 3.0060 0.1620
-22 8 14 -0.8969 -0.1157
-22 10 1 -10.0971 -0.1077
-22 10 2 -6.6071 -0.1659
-22 10 3 -17.7329 -0.0349
-22 10 4 -2.8093 0.1873
-22 10 5 -14.9619 0.0499
-22 10 6 5.2452 0.2667
-22 10 7 -13.5018 0.1938
-22 10 8 -0.2079 -0.2124
-22 10 9 -3.7701 -0.0171
-22 10 10 -1.7508 0.4373
-22 10 11 6.4602 0.0095
-21 1 1 0.8672 -0.7997
-21 1 2 15.2263 -0.5542
-21 1 3 -7.7819 1.5646
-21 1 4 -4.9681 1.3371
-21 1 5 7.3706 -0.1858
-21 1 6 -3.9125 0.5691
-21 1 7 -0.0031 -0.9910
-21 1 8 -0.2917 -1.0675
-21 1 9 1.9513 0.4653
-21 1 10 9.1409 0.4217
-21 1 11 2.2583 0.4197
-21 1 12 4.3214 -0.4493
-21 1 13 1.6994 -1.1178
-21 1 14 -2.3167 0.9934
-21 1 15 -4.0783 0.3236
-21 1 16 -3.9912 -1.1586
-21 1 17 -5.8927 0.6029
-21 1 18 0.3577 0.3332
-21 1 19 4.1596 -0.5034
-21 1 20 -0.8778 -1.3049
-21 1 21 0.0964 -0.8651
-21 1 22 4.8760 0.6958
-21 1 23 -1.1436 0.9850
-21 1 24 -7.5606 -0.2054
-21 3 1 -4.7076 0.5044
-21 3 2 8.4809 -0.1876
-21 3 3 -1.9989 0.0012
-21 3 4 2.7851 -0.0762
-21 3 5 -3.8132 -0.0032
-21 3 6 11.3229 -0.3966
-21 3 7 2.7653 -0.1365
-21 3 8 1.7694 0.1932
-21 3 9 -0.1250 0.1717
-21 3 10 -3.8582 0.3559
-21 3 11 4.8357 0.0688
-21 3 12 1.0637 -0.0589
-21 3 13 0.3075 0.5556
-21 3 14 4.7234 -0.5433
-21 3 15 -3.0323 -0.6461
-21 3 16 4.7387 0.2416
-21 3 17 -5.7326 0.0927
-21 3 18 -3.6076 -0.2151
-21 3 19 -5.6511 -0.5984
-21 3 20 -0.8096 0.1339
-21 3 21 -4.2791 0.4573
-21 3 22 -3.1629 0.3226
-21 3 23 0.5618 -0.3922
-21 5 1 0.8759 0.0009
-21 5 2 8.6098 -0.0166
-21 5 3 2.3069 0.4289
-21 5 4 12.8048 -0.4915
-21 5 5 3.4744 -0.0764
-21 5 6 7.0845 -0.0260
-21 5 7 3.7803 -0.0383
-21 5 8 6.2109 0.4850
-21 5 9 6.0765 0.1939
-21 5 10 3.9258 -0.0115
-21 5 11 5.1289 0.2338
-21 5 12 5.4960 -0.1587
-21 5 13 2.7595 -0.1108
-21 5 14 0.8403 -0.1896
-21 5 15 -2.7267 0.3054
-21 5 16 11.0166 -0.0643
-21 5 17 -3.9446 -0.1146
-21 5 18 1.9474 -0.2290
-21 5 19 1.0405 -0.0407
-21 7 1 -0.3475 0.1816
-21 7 2 -2.3121 -0.2041
-21 7 3 12.7134 -0.1939
-21 7 4 -1.3225 -0.0798
-21 7 5 2.1165 0.2015
-21 7 6 10.4452 0.0079
-21 7 7 5.3855 -0.0080
-21 7 8 2.8656 -0.0705
-21 7 9 -2.4920 0.0316
-21 7 10 2.4183 0.1365
-21 7 11 -1.5872 -0.0140
-21 7 12 -1.1766 -0.1737
-21 7 13 0.7796 0.0428
-21 7 14 -2.8399 -0.1646
-21 7 15 -4.2367 0.1871
-21 7 16 -4.4752 -0.2425
-21 7 17 -2.0720 -0.0977
-21 9 1 1.1324 -0.1544
-21 9 2 -2.0494 0.4180
-21 9 3 11.1109 -0.0675
-21 9 4 2.7435 -0.1188
-21 9 5 6.5411 0.0219
-21 9 6 -4.5304 -0.1307
-21 9 7 14.5189 0.2818
-21 9 8 0.7079 0.2254
-21 9 9 3.5710 0.0627
-21 9 10 2.1470 -0.0371
-21 9 11 -3.0004 0.0391
-21 9 12 2.8310 -0.0473
-21 9 13 2.2700 -0.1261
-21 9 14 -0.5097 -0.0615
-21 11 1 14.9062 -0.0338
-21 11 2 1.1287 0.1928
-21 11 3 13.5004 -0.1081
-21 11 4 -0.7226 0.2166
-21 11 5 4.8071 -0.3350
-21 11 6 1.6979 0.2299
-21 11 7 2.2601 -0.2779
-21 11 8 0.6263 0.1148
-21 11 9 4.8999 0.2148
-21 11 10 -0.9663 0.2586
-20 0 2 -7.1811 -0.7885
-20 0 4 0.7795 -1.9687
-20 0 6 4.2433 1.7054
-20 0 8 5.9842 1.4061
-20 0 10 5.3735 -0.0379
-20 0 12 7.4084 0.0715
-20 0 14 6.3381 -3.1430
-20 0 16 4.5959 1.9654
-20 0 18 -4.2743 -0.2002
-20 0 20 5.4169 2.8933
-20 0 22 0.7760 -3.1457
-20 0 24 5.7070 0.1132
-20 2 1 -2.1622 0.8708
-20 2 2 -11.6420 0.4098
-20 2 3 5.2348 -0.0702
-20 2 4 11.1881 -1.0517
-20 2 5 4.3345 0.1974
-20 2 6 1.3690 -0.0690
-20 2 7 11.6428 0.0749
-20 2 8 5.7949 1.0037
-20 2 9 4.1951 -0.0509
-20 2 10 2.2329 0.2307
-20 2 11 -3.7925 -0.0798
-20 2 12 -0.7583 -0.4651
-20 2 13 1.5324 0.2123
-20 2 14 -2.7073 -0.1398
-20 2 15 7.6068 0.5207
-20 2 16 -3.2658 0.0400
-20 2 17 7.9518 -0.1805
-20 2 18 -2.7318 -0.2090
-20 2 19 -2.6705 0.3724
-20 2 20 -7.7703 0.2282
-20 2 21 -0.0343 -0.5635
-20 2 22 -6.1688 0.2513
-20 2 23 -3.9876 -0.4659
-20 2 24 6.4012 -0.6265
-20 2 25 -4.3993 0.0399
-20 4 1 6.9441 -0.3082
-20 4 2 -3.3552 -0.6482
-20 4 3 3.5983 0.2744
-20 4 4 0.4009 0.1309
-20 4 5 7.9888 0.3639
-20 4 6 4.2790 0.2517
-20 4 7 1.3665 0.2890
-20 4 8 1.0392 -0.1236
-20 4 9 3.6764 -0.0826
-20 4 10 3.1412 0.0903
-20 4 11 -0.6023 -0.3696
-20 4 12 -2.2052 0.2996
-20 4 13 -2.2452 -0.0265
-20 4 14 -3.1462 0.0350
-20 4 15 -2.7196 0.5339
-20 4 16 -8.0468 -0.5562
-20 4 17 1.9414 -0.0072
-20 4 18 -1.2047 0.2484
-20 4 19 -1.3978 -0.2088
-20 4 20 -0.2490 -0.3256
-20 4 21 -3.9096 -0.5415
-20 6 1 -3.3679 -0.0090
-20 6 2 1.4388 0.2315
-20 6 3 -13.5013 -0.1643
-20 6 4 1.5838 0.0124
-20 6 5 -4.5597 0.1352
-20 6 6 0.0924 0.1630
-20 6 7 1.2660 0.1058
-20 6 8 2.4691 0.0613
-20 6 9 2.4797 -0.3233
-20 6 10 -4.5030 -0.0517
-20 6 11 -0.7671 -0.1859
-20 6 12 -1.1902 0.1427
-20 6 13 -6.0396 0.2128
-20 6 14 5.4185 0.0985
-20 6 15 -1.6637 -0.1959
-20 6 16 -1.0704 -0.0665
-20 6 17 -4.9842 0.2746
-20 6 18 1.3852 -0.2320
-20 6 19 -12.7215 -0.6068
-20 8 1 -0.3546 -0.3126
-20 8 2 2.6597 -0.1304
-20 8 3 -9.7185 0.2181
-20 8 4 -3.3064 0.1894
-20 8 5 0.2267 0.0582
-20 8 6 -1.6310 -0.0447
-20 8 7 -10.6982 -0.0582
-20 8 8 -1.1389 0.0549
-20 8 9 -2.4646 -0.0475
-20 8 10 1.3535 0.0338
-20 8 11 2.7018 0.1324
-20 8 12 -1.4788 0.2059
-20 8 13 -1.7641 -0.0320
-20 8 14 -0.5075 0.0277
-20 8 15 -4.6297 0.1240
-20 8 16 2.8829 -0.0105
-20 10 1 -8.6341 0.1744
-20 10 2 6.9765 -0.0818
-20 10 3 -9.6643 -0.2443
-20 10 4 0.2588 -0.0050
-20 10 5 -1.7968 0.1471
-20 10 6 -0.5961 -0.1587
-20 10 7 -1.6757 0.0984
-20 10 8 -7.3857 -0.4036
-20 10 9 2.5130 -0.0401
-20 10 10 -1.0666 0.1672
-20 10 11 3.0895 -0.1818
-20 10 12 4.1059 -0.0678
-20 10 13 -0.7903 0.1895
-20 12 1 -4.4277 0.1784
-20 12 2 -10.9427 -0.1484
-20 12 3 -6.5419 0.4884
-20 12 4 -0.3610 -0.0798
-20 12 5 -1.4281 0.3378
-20 12 6 -4.3931 -0.3909
-20 12 7 -2.0228 0.1844
-20 12 8 2.7965 0.2590
-20 12 9 -4.9596 -0.1486
-19 1 1 -4.8968 -0.6340
-19 1 2 9.5363 -0.3295
-19 1 3 -5.6333 1.3495
-19 1 4 -9.6203 1.3479
-19 1 5 10.4774 0.3292
-19 1 6 0.4361 -0.5968
-19 1 7 3.8739 -1.3995
-19 1 8 5.2241 -0.2192
-19 1 9 2.6293 0.3319
-19 1 10 7.6989 -0.0484
-19 1 11 -0.5633 0.9476
-19 1 12 4.0580 0.7353
-19 1 13 -5.0103 -0.8442
-19 1 14 3.1788 0.5609
-19 1 15 -5.2537 -0.2471
-19 1 16 3.2045 -1.4331
-19 1 17 -7.2822 0.6149
-19 1 18 7.3187 0.8523
-19 1 19 -0.0258 -0.7132
-19 1 20 2.2731 -1.2005
-19 1 21 -8.1803 -0.6518
-19 1 22 0.9001 0.5324
-19 1 23 -7.7296 1.6102
-19 1 24 -6.9777 -1.0815
-19 1 25 -0.1198 0.3046
-19 3 1 -11.1003 0.1806
-19 3 2 9.6652 -0.1390
-19 3 3 -5.1541 -0.3991
-19 3 4 -6.4614 0.0658
-19 3 5 -4.5715 -0.2952
-19 3 6 -5.2423 0.1926
-19 3 7 1.2948 0.3674
-19 3 8 -6.2670 0.0922
-19 3 9 0.7670 -0.3733
-19 3 10 -2.2552 0.0067
-19 3 11 1.3138 0.2162
-19 3 12 2.7600 -0.0559
-19 3 13 -1.7015 0.3039
-19 3 14 -1.2693 -0.1319
-19 3 15 -0.3916 -0.4434
-19 3 16 -3.1015 0.2516
-19 3 17 -3.0280 0.0162
-19 3 18 -2.4462 -0.4089
-19 3 19 1.3500 -0.3194
-19 3 20 3.5008 -0.0694
-19 3 21 -3.0074 0.7320
-19 3 22 0.6979 -0.3376
-19 3 23 -1.2047 -0.0506
-19 3 24 -2.8242 -0.1337
-19 5 1 -1.5849 -0.0422
-19 5 2 -3.5779 0.2765
-19 5 3 3.8354 0.0894
-19 5 4 -5.8529 0.0260
-19 5 5 -1.2694 0.0403
-19 5 6 -5.4340 0.0353
-19 5 7 2.1013 -0.1716
-19 5 8 -1.6259 0.0682
-19 5 9 2.4832 0.1955
-19 5 10 -0.3321 0.2346
-19 5 11 -1.1402 0.1665
-19 5 12 -1.0332 -0.2359
-19 5 13 3.0267 -0.1487
-19 5 14 -2.3210 -0.1341
-19 5 15 6.3079 0.0634
-19 5 16 2.5367 0.2036
-19 5 17 3.6421 -0.0639
-19 5 18 -0.1765 -0.1658
-19 5 19 1.3854 0.2115
-19 5 20 -0.9414 -0.1001
-19 5 21 -4.5364 -0.0792
-19 7 1 1.3775 0.2081
-19 7 2 2.3101 -0.3933
-19 7 3 10.9552 0.1570
-19 7 4 6.7884 0.2013
-19 7 5 -1.2821 0.0735
-19 7 6 2.6285 0.1346
-19 7 7 -2.6214 -0.1346
-19 7 8 -4.8331 0.1580
-19 7 9 -5.4930 0.1655
-19 7 10 -4.0478 0.1101
-19 7 11 -1.0527 -0.0161
-19 7 12 0.4925 0.0917
-19 7 13 1.1979 0.0848
-19 7 14 0.4920 -0.0096
-19 7 15 -8.2281 0.2510
-19 7 16 1.3604 -0.1004
-19 7 17 -5.2301 -0.2123
-19 7 18 0.2888 0.1341
-19 7 19 1.6410 -0.0861
-19 9 1 3.1658 -0.1703
-19 9 2 5.3285 0.2875
-19 9 3 6.5427 0.2674
-19 9 4 6.8833 -0.4650
-19 9 5 -2.7924 -0.0525
-19 9 6 1.7563 -0.1237
-19 9 7 0.8964 0.1282
-19 9 8 10.0970 0.0464
-19 9 9 -7.3320 -0.0560
-19 9 10 6.0797 0.0358
-19 9 11 -10.5362 0.1714
-19 9 12 4.8195 0.0242
-19 9 13 -2.9188 0.0520
-19 9 14 3.6179 0.0815
-19 9 15 3.7827 0.0046
-19 9 16 6.1763 -0.3211
-19 11 1 -2.4815 0.1787
-19 11 2 10.7353 -0.2207
-19 11 3 -5.2237 0.1702
-19 11 4 10.2950 -0.0455
-19 11 5 -5.5070 0.3414
-19 11 6 8.1913 0.0094
-19 11 7 -2.5374 0.0354
-19 11 8 3.5232 0.0161
-19 11 9 -0.9644 0.1294
-19 11 10 -2.3388 0.1505
-19 11 11 -4.9420 0.1723
-19 11 12 -5.2830 0.0872
-19 11 13 -2.3362 0.1416
-19 13 5 -3.6622 0.0042
-19 13 6 16.5241 0.0453
-19 13 7 0.7901 0.5605
-19 13 8 4.9239 -0.4906
-19 13 9 3.1427 -0.0124
-18 0 2 -22.6580 0.9555
-18 0 4 3.9256 -0.3143
-18 0 6 9.7751 4.1509
-18 0 8 10.3213 -1.1780
-18 0 10 -1.0198 0.4526
-18 0 12 -2.3488 -2.0776
-18 0 14 0.2917 -0.9675
-18 0 16 4.1873 2.5220
-18 0 18 -4.7115 -0.0527
-18 0 20 -2.3303 1.2178
-18 0 22 -5.7322 -3.4256
-18 0 24 -7.2038 0.7746
-18 2 1 -6.1555 1.4843
-18 2 2 -19.9823 -0.3859
-18 2 3 1.0713 -0.0494
-18 2 4 2.6443 -0.2983
-18 2 5 -2.0082 -0.3960
-18 2 6 -4.7701 0.2885
-18 2 7 -2.3957 -0.1519
-18 2 8 0.9907 0.6394
-18 2 9 -6.9339 0.0955
-18 2 10 1.0778 -0.2273
-18 2 11 -3.5024 -0.6975
-18 2 12 -2.7980 -0.9339
-18 2 13 3.6779 0.3348
-18 2 14 -0.8780 -0.1059
-18 2 15 -1.1418 0.5044
-18 2 16 2.9745 0.7464
-18 2 17 -2.2017 -0.5001
-18 2 18 3.5494 -0.0649
-18 2 19 -9.5350 0.0876
-18 2 20 -0.7665 0.1165
-18 2 21 2.1255 0.3264
-18 2 22 -0.8826 -0.1507
-18 2 23 3.4158 0.7537
-18 2 24 2.4700 -0.7157
-18 2 25 1.1036 0.7495
-18 2 26 -5.5269 0.1662
-18 4 1 11.5415 -0.7131
-18 4 2 -3.9937 -0.4747
-18 4 3 -1.8665 0.6053
-18 4 4 1.0304 -0.1340
-18 4 5 2.5859 0.3506
-18 4 6 2.1280 0.2500
-18 4 7 1.6436 -0.3304
-18 4 8 1.8863 0.0485
-18 4 9 -0.7913 -0.0959
-18 4 10 2.7728 -0.2374
-18 4 11 -0.7408 -0.0332
-18 4 12 0.6092 -0.0477
-18 4 13 -1.4093 0.0940
-18 4 14 1.3033 -0.1571
-18 4 15 -2.8642 0.1604
-18 4 16 3.1707 -0.4356
-18 4 17 0.5296 -0.1962
-18 4 18 2.8880 0.5312
-18 4 19 -2.0346 -0.0763
-18 4 20 0.0429 -0.2209
-18 4 21 2.0275 -0.0169
-18 4 22 0.9714 -0.6404
-18 4 23 2.0870 0.6948
-18 4 24 -4.1380 -0.7452
-18 4 25 4.0435 0.7368
-18 6 1 2.8005 0.3072
-18 6 2 7.8496 0.2901
-18 6 3 -5.5214 -0.1327
-18 6 4 7.4261 -0.0422
-18 6 5 2.4253 0.0866
-18 6 6 1.8817 -0.0454
-18 6 7 -2.3105 0.2534
-18 6 8 -4.5436 0.0906
-18 6 9 -4.7180 -0.0848
-18 6 10 -4.9720 -0.1079
-18 6 11 -4.3466 -0.1037
-18 6 12 4.2553 0.0888
-18 6 13 -6.0265 0.2175
-18 6 14 3.2899 -0.0461
-18 6 15 0.2607 0.0015
-18 6 16 -5.1811 -0.1313
-18 6 17 -0.4930 0.1934
-18 6 18 -3.6239 0.0155
-18 6 19 -2.6711 -0.6206
-18 6 20 2.5643 0.3651
-18 8 1 4.4761 -0.1929
-18 8 2 3.6773 0.0698
-18 8 3 -4.2907 0.0316
-18 8 4 -3.8196 0.0237
-18 8 5 -6.0923 0.1019
-18 8 6 -0.9807 -0.0913
-18 8 7 -8.1147 0.0513
-18 8 8 -1.8651 0.0173
-18 8 9 1.2101 -0.2630
-18 8 10 -1.3488 0.1012
-18 8 11 5.5036 0.2160
-18 8 12 -6.5043 0.0836
-18 8 13 -1.6215 0.0404
-18 8 14 0.1058 -0.0479
-18 8 15 1.1099 0.2640
-18 8 16 5.8806 -0.1169
-18 8 17 2.0932 0.1844
-18 8 18 5.2233 -0.4202
-18 10 1 -6.8692 0.2165
-18 10 2 -2.9247 0.0872
-18 10 3 -2.3266 -0.3515
-18 10 4 -5.9881 0.2801
-18 10 5 5.1880 0.0882
-18 10 6 0.5013 0.1208
-18 10 7 -0.7674 0.0639
-18 10 8 -2.6233 -0.1851
-18 10 9 -3.1890 0.4116
-18 10 10 7.5399 0.0342
-18 10 11 -3.8601 -0.0383
-18 10 12 9.5423 -0.1693
-18 10 13 -4.2272 0.1730
-18 10 14 11.8876 0.1173
-18 10 15 -8.6613 0.0802
-18 10 16 1.7073 -0.1430
-18 12 1 8.0680 0.0936
-18 12 2 -6.0227 -0.1382
-18 12 3 -0.1214 0.2331
-18 12 4 0.2470 -0.1015
-18 12 5 -0.0582 -0.3394
-18 12 6 -8.0392 -0.4744
-18 12 7 0.0281 -0.1270
-18 12 8 3.9892 0.3904
-18 12 9 -2.1167 -0.0892
-18 12 10 7.6555 -0.1410
-18 12 11 0.3347 -0.1846
-18 12 12 15.5442 0.3835
-17 1 1 5.3415 -0.5862
-17 1 2 16.0192 0.4579
-17 1 3 1.9717 -0.8720
-17 1 4 -4.5382 0.4712
-17 1 5 3.1428 0.6781
-17 1 6 4.6690 -1.5817
-17 1 7 -3.6195 -1.0175
-17 1 8 -0.1676 1.1545
-17 1 9 -0.1699 -0.0607
-17 1 10 4.5036 -1.0017
-17 1 11 3.8052 0.8335
-17 1 12 7.0672 1.0310
-17 1 13 -2.8680 -0.2219
-17 1 14 7.3092 -0.0074
-17 1 15 -5.3467 -0.5728
-17 1 16 1.7301 -0.8798
-17 1 17 -6.5092 0.9245
-17 1 18 -0.4414 0.7076
-17 1 19 5.2844 -0.0211
-17 1 20 -3.5337 -0.3677
-17 1 21 0.5512 -0.6480
-17 1 22 -4.5983 0.5197
-17 1 23 -0.9986 0.4988
-17 1 24 -2.0034 -1.2745
-17 1 25 4.5491 -0.2487
-17 1 26 -0.7897 -0.0192
-17 3 1 0.5254 -0.0294
-17 3 2 30.2674 -0.3523
-17 3 3 4.6389 -0.0437
-17 3 4 8.1861 0.1327
-17 3 5 2.6561 -0.4905
-17 3 6 5.4639 0.4759
-17 3 7 4.5071 0.6579
-17 3 8 2.8223 -0.2151
-17 3 9 5.8079 -0.4708
-17 3 10 -0.2059 0.1141
-17 3 11 0.9409 0.4789
-17 3 12 -0.4478 0.1099
-17 3 13 0.4967 -0.2955
-17 3 14 -2.6218 -0.0947
-17 3 15 4.0891 -0.1516
-17 3 16 -3.5790 -0.0546
-17 3 17 -0.1027 0.1253
-17 3 18 -1.0278 -0.1200
-17 3 19 2.9353 0.1259
-17 3 20 0.7502 0.1977
-17 3 21 -4.0281 0.3014
-17 3 22 -5.0669 -0.3020
-17 3 23 1.5037 -0.5149
-17 3 24 -5.8304 0.1495
-17 3 25 1.8996 0.3926
-17 5 1 -2.0085 0.1249
-17 5 2 0.8618 0.4476
-17 5 3 14.0891 -0.2424
-17 5 4 1.3300 0.2456
-17 5 5 9.9252 0.2960
-17 5 6 1.3746 0.0091
-17 5 7 3.8469 -0.1206
-17 5 8 -2.6108 -0.2353
-17 5 9 -2.3741 0.0819
-17 5 10 -1.2692 0.3476
-17 5 11 -4.5316 -0.0364
-17 5 12 -5.3768 -0.4475
-17 5 13 5.5967 0.1863
-17 5 14 -4.9876 -0.0513
-17 5 15 7.0596 -0.0376
-17 5 16 -4.1455 0.3072
-17 5 17 0.6457 -0.0642
-17 5 18 -3.4642 -0.2106
-17 5 19 -1.1268 0.2029
-17 5 20 -7.4424 -0.4174
-17 5 21 -4.6622 -0.0847
-17 5 22 -6.0147 -0.2215
-17 5 23 -4.8444 0.4474
-17 5 24 2.7001 -0.0500
-17 5 25 1.8714 -0.0793
-17 7 1 -1.5771 0.1615
-17 7 2 0.4668 -0.5987
-17 7 3 1.6276 0.4096
-17 7 4 0.3011 0.2962
-17 7 5 -5.2480 -0.2068
-17 7 6 -6.1292 0.1181
-17 7 7 -3.3907 -0.2925
-17 7 8 -2.4646 0.0519
-17 7 9 -0.5415 0.2093
-17 7 10 1.7055 -0.3819
-17 7 11 -3.9204 -0.0483
-17 7 12 3.5687 0.1425
-17 7 13 -1.3308 0.1026
-17 7 14 0.7006 -0.1486
-17 7 15 -2.3006 0.1037
-17 7 16 -2.5864 -0.1351
-17 7 17 4.9631 -0.3357
-17 7 18 -5.4605 0.0116
-17 7 19 3.3652 -0.3368
-17 7 20 -7.6594 -0.0048
-17 9 1 -5.3001 -0.0633
-17 9 2 -6.2578 0.3221
-17 9 3 -6.3085 0.3950
-17 9 4 -0.2322 -0.2523
-17 9 5 -6.0289 -0.0179
-17 9 6 5.0992 0.0578
-17 9 7 -1.3633 0.0780
-17 9 8 9.5787 0.1002
-17 9 9 -1.9958 -0.1360
-17 9 10 -0.2345 0.2719
-17 9 11 3.2641 0.1176
-17 9 12 0.1322 -0.1222
-17 9 13 11.5187 -0.0048
-17 9 14 -3.9487 -0.3522
-17 9 15 9.2602 0.1197
-17 9 16 -1.9183 -0.5643
-17 9 17 -1.2100 0.3065
-17 9 18 0.6039 0.0407
-17 11 1 -2.2702 0.1319
-17 11 2 0.0604 -0.0511
-17 11 3 -4.9144 -0.0031
-17 11 4 -0.0926 -0.0882
-17 11 5 -8.1777 0.2139
-17 11 6 -0.8970 0.0379
-17 11 7 -8.8819 -0.2088
-17 11 8 2.3737 0.1211
-17 11 9 -1.3862 0.0119
-17 11 10 -0.8933 -0.1945
-17 11 11 0.4461 0.2764
-17 11 12 -4.3390 -0.2755
-17 11 13 1.9453 0.1420
-17 11 14 -14.0509 -0.0498
-17 11 15 0.3769 -0.1803
-17 13 1 -7.5418 0.1864
-17 13 2 -2.8326 0.1287
-17 13 5 -1.7636 0.2125
-17 13 6 11.6689 -0.0436
-17 13 7 3.3196 0.7667
-17 13 8 0.3811 -0.4479
-17 13 9 -0.5981 -0.3557
-17 13 10 2.9169 0.3112
-17 13 11 -7.5297 -0.0915
-17 13 12 -4.2271 -0.6421
-16 0 2 -14.4953 2.5045
-16 0 4 12.0027 0.1343
-16 0 6 4.2732 4.9920
-16 0 8 10.0635 -3.5841
-16 0 10 0.3799 0.6659
-16 0 12 3.5921 -2.3815
-16 0 14 -4.2855 2.3034
-16 0 16 -12.0407 1.2656
-16 0 18 -13.4885 0.0195
-16 0 20 -3.3356 -0.8160
-16 0 22 4.4075 -2.3563
-16 0 24 -1.6555 1.9149
-16 0 26 5.3281 0.5057
-16 2 1 11.0022 1.0683
-16 2 2 -23.4033 -0.0147
-16 2 3 14.7781 0.1628
-16 2 4 -2.1325 1.7920
-16 2 5 12.4297 -0.5357
-16 2 6 0.7096 0.1909
-16 2 7 3.0580 -0.3521
-16 2 8 10.7327 -0.4376
-16 2 9 -4.3310 0.3025
-16 2 10 5.5015 -0.1601
-16 2 11 -4.2193 -0.3847
-16 2 12 -3.9260 -0.4242
-16 2 13 -3.8722 0.5759
-16 2 14 -1.5953 -0.2218
-16 2 15 -8.5314 0.1085
-16 2 16 2.6394 0.7742
-16 2 17 -3.5665 -0.5768
-16 2 18 0.1300 -0.2455
-16 2 19 -5.4333 -0.2111
-16 2 20 -7.2357 -0.4720
-16 2 21 5.2531 0.4298
-16 2 22 -4.1399 -0.1082
-16 2 23 4.2823 0.4440
-16 2 24 1.0325 0.4126
-16 2 25 -1.0698 -0.0911
-16 2 26 0.5961 0.6374
-16 2 27 -1.5180 0.6500
-16 4 1 1.2143 -0.3399
-16 4 2 -11.1265 0.0743
-16 4 3 -5.0038 0.8007
-16 4 4 2.2138 -0.4609
-16 4 5 4.5861 0.0677
-16 4 6 3.8411 0.3220
-16 4 7 4.3630 -0.7593
-16 4 8 0.5354 0.3366
-16 4 9 -3.0070 0.0105
-16 4 10 -3.9821 -0.5087
-16 4 11 2.7915 0.2548
-16 4 12 -2.7691 -0.0360
-16 4 13 0.2753 0.1997
-16 4 14 -3.6030 0.2105
-16 4 15 -4.5330 0.0307
-16 4 16 -0.9105 -0.2498
-16 4 17 -1.3920 -0.3054
-16 4 18 -4.6142 0.0852
-16 4 19 -2.4815 -0.3250
-16 4 20 -3.8667 -0.2787
-16 4 21 4.2804 0.0378
-16 4 22 0.9911 -0.1622
-16 4 23 4.6367 0.6581
-16 4 24 -6.3373 -0.2301
-16 4 25 5.3960 0.1052
-16 4 26 -4.7136 0.1481
-16 6 1 12.1733 0.3261
-16 6 2 1.8712 0.1223
-16 6 3 1.4245 -0.2917
-16 6 4 -4.5599 -0.1453
-16 6 5 0.4952 -0.1753
-16 6 6 -10.8986 -0.3715
-16 6 7 -1.4727 0.0783
-16 6 8 -6.8734 0.1428
-16 6 9 1.1580 -0.0514
-16 6 10 -4.0868 0.0539
-16 6 11 4.6013 0.0271
-16 6 12 -2.8422 0.0092
-16 6 13 0.3569 0.1430
-16 6 14 -9.7241 -0.2792
-16 6 15 4.6649 0.0768
-16 6 16 -7.7789 -0.1425
-16 6 17 3.0909 -0.0596
-16 6 18 -3.0212 0.0931
-16 6 19 4.3498 -0.3383
-16 6 20 2.9723 0.3030
-16 6 21 10.7674 0.8022
-16 6 22 2.7843 0.0517
-16 6 23 6.6482 0.5224
-16 6 24 0.2193 -0.0510
-16 8 1 -4.6604 -0.1969
-16 8 2 -8.9560 0.0461
-16 8 3 -4.6160 -0.1218
-16 8 4 -6.5416 -0.3226
-16 8 5 -4.0751 0.1040
-16 8 6 -1.3913 0.0263
-16 8 7 5.8454 0.1247
-16 8 8 -2.3532 0.1343
-16 8 9 5.5701 -0.2970
-16 8 10 -0.2768 0.2543
-16 8 11 3.6857 0.3222
-16 8 12 0.7195 -0.0838
-16 8 13 -2.1433 -0.1043
-16 8 14 3.9776 -0.0177
-16 8 15 3.9690 -0.0224
-16 8 16 0.8444 -0.0662
-16 8 17 6.6491 -0.0891
-16 8 18 -0.1751 0.0283
-16 8 19 11.0285 0.3576
-16 8 20 4.0995 0.4954
-16 10 1 -16.5316 0.1574
-16 10 2 1.6718 -0.0891
-16 10 3 -4.8103 -0.3951
-16 10 4 -0.6617 0.1915
-16 10 5 0.9118 -0.0162
-16 10 6 -0.6995 0.0697
-16 10 7 -2.6391 0.0648
-16 10 8 -5.2557 -0.1892
-16 10 9 -1.4798 0.4732
-16 10 10 3.5138 0.0850
-16 10 11 0.5498 -0.3625
-16 10 12 -3.1581 -0.0484
-16 10 13 -1.4830 0.1088
-16 10 14 -1.5077 -0.1484
-16 10 15 -2.2313 0.1690
-16 10 16 -10.9609 -0.6600
-16 10 17 3.1475 0.1637
-16 12 1 1.8392 -0.4129
-16 12 2 4.5197 0.2534
-16 12 3 -2.8106 0.2478
-16 12 4 7.5964 0.2803
-16 12 5 1.7399 -0.0533
-16 12 6 0.6791 -0.0331
-16 12 7 6.4299 0.1344
-16 12 8 6.5880 0.3903
-16 12 9 0.0343 0.0816
-16 12 10 -0.6117 -0.3747
-16 12 11 -1.0776 0.2001
-16 12 12 -3.4879 -0.1050
-16 12 13 -1.8730 0.1201
-16 12 14 -2.2713 -1.0407
-15 1 1 5.5179 -2.8713
-15 1 2 13.3214 0.8437
-15 1 3 0.0539 -2.4126
-15 1 4 0.0162 -0.2743
-15 1 5 -7.2385 1.6010
-15 1 6 7.3326 -1.7998
-15 1 7 -1.0995 -0.8865
-15 1 8 -8.6889 2.2349
-15 1 9 4.6894 -0.7081
-15 1 10 -1.5153 -1.1661
-15 1 11 3.4126 0.7988
-15 1 12 0.8051 0.9354
-15 1 13 -6.7401 0.3297
-15 1 14 -0.4776 -0.8107
-15 1 15 -2.6394 -1.3529
-15 1 16 -5.3604 -0.0328
-15 1 17 3.4349 0.5542
-15 1 18 -9.4719 0.0771
-15 1 19 8.3009 0.3142
-15 1 20 -6.3385 0.4970
-15 1 21 -3.2855 -0.6234
-15 1 22 -5.7654 0.0848
-15 1 23 -8.2892 0.1650
-15 1 24 2.6117 -1.1824
-15 1 25 -0.8897 0.3895
-15 1 26 0.3226 0.6069
-15 1 27 -1.5243 -0.9707
-15 3 1 9.2566 -0.0216
-15 3 2 9.9004 -0.0408
-15 3 3 14.4792 -0.1921
-15 3 4 -0.4497 -0.0888
-15 3 5 6.1771 -0.9734
-15 3 6 -0.7474 0.4756
-15 3 7 0.7685 1.1783
-15 3 8 -0.2260 -0.1912
-15 3 9 -0.9849 -0.1084
-15 3 10 -1.7555 0.0099
-15 3 11 -6.5801 0.2670
-15 3 12 -1.0246 -0.3489
-15 3 13 -3.2895 -0.6879
-15 3 14 1.6504 0.0801
-15 3 15 -3.3407 0.4855
-15 3 16 -0.1973 -0.0656
-15 3 17 -7.9086 -0.0745
-15 3 18 -0.3617 0.0001
-15 3 19 -2.0428 0.2637
-15 3 20 -1.6120 0.1062
-15 3 21 -3.8970 0.0833
-15 3 22 -5.8767 -0.2134
-15 3 23 1.5451 -0.1454
-15 3 24 -1.4321 0.0811
-15 3 25 -0.3193 0.4453
-15 3 26 3.4394 -0.1249
-15 3 27 -1.8903 -0.4161
-15 5 1 6.6008 0.3393
-15 5 2 10.9349 0.2868
-15 5 3 15.9173 -0.4640
-15 5 4 2.1199 0.4455
-15 5 5 0.2842 0.5252
-15 5 6 -3.2747 0.1461
-15 5 7 -9.3641 -0.0970
-15 5 8 -6.5273 -0.5486
-15 5 9 -6.5428 -0.0380
-15 5 10 -0.8262 0.2682
-15 5 11 -7.5577 -0.2225
-15 5 12 -6.7587 -0.4466
-15 5 13 -2.7683 0.2970
-15 5 14 -2.2099 0.0285
-15 5 15 -3.4564 -0.3970
-15 5 16 1.6100 0.2888
-15 5 17 -5.9058 0.1570
-15 5 18 6.2480 0.1698
-15 5 19 -4.1015 0.3880
-15 5 20 2.9164 -0.2388
-15 5 21 -5.7882 0.1108
-15 5 22 -1.4943 -0.2143
-15 5 23 -3.4385 0.2749
-15 5 24 4.0350 -0.2521
-15 5 25 6.0662 0.0640
-15 5 26 2.5039 -0.5794
-15 7 1 -11.2236 0.0154
-15 7 2 -5.6624 -0.3303
-15 7 3 -12.1454 0.4462
-15 7 4 -7.3784 0.4967
-15 7 5 -2.8170 -0.3133
-15 7 6 -5.0215 0.1135
-15 7 7 0.4104 -0.1351
-15 7 8 -2.5790 -0.0401
-15 7 9 2.0656 0.3015
-15 7 10 -3.2811 -0.6927
-15 7 11 -1.0181 -0.0485
-15 7 12 -4.8805 0.2209
-15 7 13 6.6765 0.2155
-15 7 14 -1.0550 -0.1389
-15 7 15 0.7109 0.1146
-15 7 16 -0.8280 0.1241
-15 7 17 -1.5570 -0.0907
-15 7 18 0.7805 0.0186
-15 7 19 -4.3503 0.0390
-15 7 20 -0.6091 -0.2003
-15 7 21 -5.8842 0.0369
-15 7 22 -3.2380 -0.4669
-15 7 23 3.8111 0.1351
-15 9 1 4.4655 -0.0483
-15 9 2 -3.1595 0.2176
-15 9 3 2.6056 0.0753
-15 9 4 -0.2357 -0.1173
-15 9 5 4.0828 -0.1912
-15 9 6 2.1056 -0.0571
-15 9 7 1.7858 -0.1595
-15 9 8 -2.0895 -0.1491
-15 9 9 6.1504 -0.1754
-15 9 10 -6.5882 0.0945
-15 9 11 7.3602 0.2271
-15 9 12 -0.0777 -0.1518
-15 9 13 2.7135 -0.0368
-15 9 14 -5.4271 -0.0693
-15 9 15 -8.0022 0.1664
-15 9 16 -1.6959 0.0437
-15 9 17 -14.0965 0.0859
-15 9 18 -0.8643 0.2295
-15 9 19 -13.7101 -0.3134
-15 11 1 8.1029 0.0569
-15 11 2 6.2917 -0.1858
-15 11 3 2.1414 -0.0336
-15 11 4 2.3929 -0.1438
-15 11 5 2.5220 0.0382
-15 11 6 2.2104 0.0477
-15 11 7 2.7179 -0.2512
-15 11 8 5.8840 0.1842
-15 11 9 7.5554 0.0467
-15 11 10 -2.8796 -0.2605
-15 11 11 1.3955 0.1984
-15 11 12 -6.8116 -0.1448
-15 11 13 0.4755 0.1298
-15 11 14 -15.4888 0.1618
-15 11 15 -2.8057 0.1403
-15 11 16 -7.6360 0.0462
-15 11 17 -1.0279 0.6861
-15 13 1 -7.3364 -0.3480
-15 13 2 -5.4431 0.0430
-15 13 3 5.7806 -0.6466
-15 13 4 -7.8143 -0.3396
-15 13 5 2.0548 0.0484
-15 13 6 1.6590 -0.2795
-15 13 7 5.8723 0.3327
-15 13 8 -8.2155 -0.0113
-15 13 9 4.7986 -0.4405
-15 13 10 -2.4533 0.3648
-15 13 11 3.3732 0.3072
-15 13 12 0.3726 -0.4870
-15 13 13 2.8667 0.5978
-15 13 14 0.3777 0.2644
-14 0 2 20.9053 -2.2284
-14 0 4 28.8836 -1.3571
-14 0 6 9.4893 3.3859
-14 0 8 24.2536 -5.5077
-14 0 10 11.9571 0.3351
-14 0 12 6.0773 -0.9692
-14 0 14 -11.2281 4.2946
-14 0 16 -13.1794 -1.6265
-14 0 18 3.2114 0.3038
-14 0 20 8.1092 -2.0570
-14 0 22 6.6061 -0.0627
-14 0 24 -8.2290 2.1176
-14 0 26 -1.7087 0.1101
-14 2 1 9.5775 0.3883
-14 2 2 1.8132 -0.4666
-14 2 3 3.0149 -0.0866
-14 2 4 13.4675 1.2134
-14 2 5 8.8155 -1.1444
-14 2 6 15.4380 -0.8283
-14 2 7 -0.5364 -0.5180
-14 2 8 12.6622 -0.8190
-14 2 9 -1.1177 0.6240
-14 2 10 0.3385 0.2044
-14 2 11 -3.4109 -0.2694
-14 2 12 -3.5042 0.3300
-14 2 13 -7.6799 0.1879
-14 2 14 0.4046 -0.0615
-14 2 15 -3.4418 0.0072
-14 2 16 -2.2398 0.7408
-14 2 17 5.1390 -0.1207
-14 2 18 -3.1174 -0.2216
-14 2 19 2.1886 -0.4267
-14 2 20 -2.1710 -0.6388
-14 2 21 1.7016 0.6002
-14 2 22 7.4254 -0.0656
-14 2 23 -2.5683 0.3197
-14 2 24 9.1914 0.6535
-14 2 25 -6.9828 -0.5580
-14 2 26 4.8379 0.0131
-14 2 27 -2.0917 -0.2003
-14 2 28 3.0957 0.1995
-14 4 1 5.5018 -0.1563
-14 4 2 -6.1509 0.1444
-14 4 3 1.6953 0.3553
-14 4 4 -6.8815 -0.7616
-14 4 5 3.4739 0.0857
-14 4 6 -9.3345 0.0593
-14 4 7 -2.6524 -0.7229
-14 4 8 -10.5366 0.0763
-14 4 9 -8.6901 0.0874
-14 4 10 -10.2384 -0.6069
-14 4 11 -0.1793 0.7760
-14 4 12 -4.1314 0.2534
-14 4 13 -3.5261 0.3599
-14 4 14 -4.6497 0.3631
-14 4 15 -6.2984 -0.3013
-14 4 16 1.4455 -0.1907
-14 4 17 1.0319 -0.1769
-14 4 18 0.3103 -0.1632
-14 4 19 2.4922 0.1140
-14 4 20 2.6132 -0.1660
-14 4 21 6.6764 0.2377
-14 4 22 8.4177 -0.1420
-14 4 23 1.6642 0.1314
-14 4 24 1.4918 -0.2758
-14 4 25 -3.6951 -0.6400
-14 4 26 2.4626 0.3518
-14 4 27 -0.0732 -0.6095
-14 6 1 9.4662 0.3100
-14 6 2 -21.1241 -0.0676
-14 6 3 -7.1774 0.0287
-14 6 4 -24.0258 0.0416
-14 6 5 -6.7032 -0.1916
-14 6 6 -16.7904 -0.3553
-14 6 7 -1.4943 0.0250
-14 6 8 -2.0914 0.3361
-14 6 9 -1.5249 0.2263
-14 6 10 -1.6039 0.1558
-14 6 11 1.7657 0.2156
-14 6 12 3.6396 -0.1668
-14 6 13 -1.0553 -0.1256
-14 6 14 0.6448 -0.2635
-14 6 15 2.3496 0.0891
-14 6 16 1.2375 0.0377
-14 6 17 -1.7230 -0.2232
-14 6 18 0.5052 -0.0505
-14 6 19 -1.4182 -0.2028
-14 6 20 7.0599 0.1135
-14 6 21 2.8216 0.4316
-14 6 22 13.7968 -0.0173
-14 6 23 1.6832 0.2372
-14 6 24 6.5080 -0.0702
-14 6 25 -2.0222 0.5958
-14 8 1 0.7294 -0.0948
-14 8 2 -3.0384 0.3047
-14 8 3 7.7136 -0.1181
-14 8 4 3.2570 -0.4223
-14 8 5 1.1981 0.1443
-14 8 6 -0.9445 0.0807
-14 8 7 6.3192 0.2475
-14 8 8 1.7812 0.0574
-14 8 9 -0.0881 -0.3539
-14 8 10 6.6398 0.1798
-14 8 11 3.0201 0.1581
-14 8 12 5.2083 -0.3868
-14 8 13 2.3519 -0.0315
-14 8 14 -0.1845 -0.1246
-14 8 15 4.6219 -0.0182
-14 8 16 -1.1775 -0.0514
-14 8 17 2.4033 -0.1456
-14 8 18 1.1922 0.2699
-14 8 19 4.2736 0.0917
-14 8 20 2.2676 0.2119
-14 8 21 7.0470 -0.1821
-14 8 22 5.9742 -0.0665
-14 10 1 6.0114 -0.0211
-14 10 2 3.1432 0.0189
-14 10 3 6.9609 -0.2635
-14 10 4 -0.9541 0.2101
-14 10 5 3.2146 0.1015
-14 10 6 -0.4932 0.0512
-14 10 7 4.9215 0.0874
-14 10 8 -0.8266 -0.2239
-14 10 9 4.7255 0.3048
-14 10 10 2.2511 0.0341
-14 10 11 2.2502 -0.5942
-14 10 12 -5.9380 0.0150
-14 10 13 -3.2602 0.0449
-14 10 14 6.0976 -0.0466
-14 10 15 1.9675 -0.0521
-14 10 16 5.8854 -0.3138
-14 10 17 1.2020 -0.0118
-14 10 18 8.3279 -0.0331
-14 10 19 -4.4103 -0.0964
-14 12 1 2.8581 -0.3399
-14 12 2 2.5001 -0.1008
-14 12 3 4.1447 0.0804
-14 12 4 8.5899 0.0002
-14 12 5 5.6493 -0.1988
-14 12 6 2.1776 -0.1397
-14 12 7 5.9921 -0.0245
-14 12 8 2.1543 -0.1201
-14 12 9 -2.5980 -0.0949
-14 12 10 -0.0111 -0.4134
-14 12 11 2.5125 0.1477
-14 12 12 2.5619 0.3568
-14 12 13 8.3666 -0.1054
-14 12 14 10.3631 -0.2131
-14 12 15 14.5275 -0.1346
-14 12 16 12.3372 0.2009
-13 1 1 -18.9004 0.3993
-13 1 2 7.1346 0.7777
-13 1 3 -15.8634 -0.9405
-13 1 4 6.5955 -1.2833
-13 1 5 -21.5192 1.6618
-13 1 6 9.5968 -2.2358
-13 1 7 -6.4564 -0.2898
-13 1 8 -8.6413 2.0646
-13 1 9 -8.1699 -0.4813
-13 1 10 -1.7569 -0.5399
-13 1 11 -9.2529 0.5959
-13 1 12 -5.4354 0.2919
-13 1 13 -5.8061 0.7027
-13 1 14 -6.6176 -1.0758
-13 1 15 4.2592 -1.3600
-13 1 16 0.9893 1.4988
-13 1 17 3.4966 0.3395
-13 1 18 -0.1209 -0.7148
-13 1 19 -1.4351 0.7018
-13 1 20 1.7598 0.5705
-13 1 21 -3.0890 -0.3336
-13 1 22 -3.5880 -0.4577
-13 1 23 0.9243 -0.5035
-13 1 24 1.0063 -0.6082
-13 1 25 9.0392 0.3606
-13 1 26 -1.8926 0.7954
-13 1 27 3.4489 -0.5706
-13 1 28 -3.6376 0.2652
-13 3 1 -15.8801 -0.2284
-13 3 2 -2.3899 -0.1867
-13 3 3 -7.3480 0.1977
-13 3 4 8.2500 -0.3059
-13 3 5 -27.4338 -0.7260
-13 3 6 -0.1441 0.5371
-13 3 7 -26.5486 0.8462
-13 3 8 -1.5732 -0.1407
-13 3 9 -17.9697 -0.4282
-13 3 10 -4.8282 -0.0495
-13 3 11 -14.6433 -0.1697
-13 3 12 -2.9433 -0.1577
-13 3 13 -7.8060 -0.6224
-13 3 14 2.2032 0.5105
-13 3 15 -8.3623 0.7994
-13 3 16 -1.7998 -0.4149
-13 3 17 -6.1651 -0.3993
-13 3 18 -2.6048 -0.1137
-13 3 19 1.1866 0.3792
-13 3 20 0.8999 -0.0028
-13 3 21 2.2275 -0.1950
-13 3 22 1.6068 -0.0778
-13 3 23 5.0816 0.0864
-13 3 24 3.1833 0.0472
-13 3 25 2.7027 0.2694
-13 3 26 2.2626 0.3039
-13 3 27 -2.7344 0.1255
-13 3 28 -0.3175 0.5143
-13 5 1 -9.5770 0.0751
-13 5 2 -5.5473 0.1596
-13 5 3 -12.2671 -0.7567
-13 5 4 -10.6731 0.3186
-13 5 5 -18.9089 0.4190
-13 5 6 -6.2927 -0.0724
-13 5 7 -12.9296 -0.0041
-13 5 8 -1.7490 -0.6609
-13 5 9 -1.9638 -0.1036
-13 5 10 3.1484 0.3166
-13 5 11 -2.2442 -0.5370
-13 5 12 -3.3096 -0.2605
-13 5 13 1.0179 0.2624
-13 5 14 2.2092 0.0039
-13 5 15 0.4211 -0.3210
-13 5 16 4.3451 0.0515
-13 5 17 -2.7456 0.3607
-13 5 18 4.1343 0.1275
-13 5 19 0.9370 0.0866
-13 5 20 -0.1743 -0.4321
-13 5 21 2.4720 0.2090
-13 5 22 -5.6272 0.0893
-13 5 23 3.9281 -0.0005
-13 5 24 2.2495 0.6978
-13 5 25 7.5549 -0.1397
-13 5 26 6.3322 0.6770
-13 7 1 -9.8399 -0.3300
-13 7 2 -5.1556 -0.1059
-13 7 3 -0.7643 0.1529
-13 7 4 -0.4822 0.1496
-13 7 5 11.5135 -0.4319
-13 7 6 3.5625 -0.0384
-13 7 7 5.3590 -0.1863
-13 7 8 -2.7268 -0.0201
-13 7 9 4.6199 0.1440
-13 7 10 -0.4931 -0.6083
-13 7 11 2.3975 -0.0059
-13 7 12 -0.7355 0.4802
-13 7 13 5.2653 0.1479
-13 7 14 6.2000 0.1318
-13 7 15 0.3613 -0.0415
-13 7 16 3.4810 0.1040
-13 7 17 6.1853 0.0712
-13 7 18 2.9401 -0.2709
-13 7 19 6.3043 0.1493
-13 7 20 -0.9546 0.0217
-13 7 21 -2.5309 -0.0062
-13 7 22 -7.9937 0.1917
-13 7 23 -4.1800 0.0901
-13 9 1 7.6871 0.0731
-13 9 2 1.9620 -0.0741
-13 9 3 2.2160 -0.1032
-13 9 4 -1.3768 0.0439
-13 9 5 3.6329 -0.0097
-13 9 6 2.8025 -0.0897
-13 9 7 -1.6950 -0.0338
-13 9 8 1.2995 -0.2176
-13 9 9 2.4895 -0.0197
-13 9 10 1.5787 0.1900
-13 9 11 -1.3060 0.3152
-13 9 12 3.4938 0.0307
-13 9 13 -1.4271 -0.1691
-13 9 14 -3.9842 -0.1391
-13 9 15 -1.8336 0.0288
-13 9 16 0.9928 -0.0982
-13 9 17 0.9987 -0.3295
-13 9 18 0.7212 -0.0043
-13 9 19 0.2644 -0.2422
-13 9 20 -7.4900 0.1309
-13 11 1 0.7945 0.1074
-13 11 2 0.1451 -0.1066
-13 11 3 1.7451 0.1926
-13 11 4 3.9743 -0.2402
-13 11 5 5.6296 0.0319
-13 11 6 5.8191 -0.1673
-13 11 7 -0.8492 -0.0895
-13 11 8 4.6666 0.2333
-13 11 9 0.6524 0.1267
-13 11 10 -2.8651 -0.0923
-13 11 11 -1.6243 0.0165
-13 11 12 1.6509 -0.1490
-13 11 13 3.7281 -0.1731
-13 11 14 -3.2594 0.1437
-13 11 15 -3.9599 -0.2752
-13 11 16 -0.7423 0.0886
-13 11 17 -1.5253 0.0706
-13 11 18 5.0980 -0.1184
-13 13 1 -0.0646 0.1951
-13 13 2 0.2798 -0.0726
-13 13 3 2.4621 0.1939
-13 13 4 -5.8058 -0.2562
-13 13 5 -4.4276 0.2030
-13 13 6 -0.0987 -0.1058
-13 13 7 -1.1657 -0.0478
-13 13 8 -4.0558 0.1060
-13 13 9 3.0821 -0.2880
-13 13 10 -1.4616 0.1427
-13 13 11 1.0156 -0.1247
-13 13 12 1.0599 -0.2495
-13 13 13 -3.5771 -0.1327
-13 13 14 -5.4168 0.1657
-13 13 15 -4.1946 0.0738
-12 0 2 -11.4444 1.7348
-12 0 4 -16.3652 0.8734
-12 0 6 -27.6636 1.4682
-12 0 8 -2.7610 -3.8588
-12 0 10 -8.0027 0.1560
-12 0 12 -6.9890 0.5788
-12 0 14 -10.0545 4.2714
-12 0 16 -8.2555 -4.2122
-12 0 18 1.1553 0.6396
-12 0 20 -2.6641 -1.9054
-12 0 22 1.8780 2.0888
-12 0 24 -2.8746 0.7801
-12 0 26 2.3322 0.3997
-12 0 28 5.2401 -0.4261
-12 2 1 6.4865 -0.6748
-12 2 2 4.3691 -0.4805
-12 2 3 -11.2073 -0.3908
-12 2 4 -3.9615 1.6214
-12 2 5 5.6910 -0.4570
-12 2 6 -5.8605 0.0464
-12 2 7 -1.5806 0.1555
-12 2 8 -10.7372 -0.9577
-12 2 9 1.8539 0.5584
-12 2 10 -7.3757 -0.2722
-12 2 11 -3.4631 -0.4318
-12 2 12 -1.9946 0.7191
-12 2 13 -6.8057 -0.2451
-12 2 14 -2.8187 -0.2282
-12 2 15 2.3985 -0.1958
-12 2 16 -12.1900 -0.0565
-12 2 17 2.7619 0.0283
-12 2 18 -6.0732 -0.1998
-12 2 19 0.5518 -0.4023
-12 2 20 0.1712 -0.3166
-12 2 21 0.8909 0.7285
-12 2 22 4.0772 -0.0231
-12 2 23 2.6094 0.0365
-12 2 24 1.5885 0.9276
-12 2 25 -0.2391 -0.5837
-12 2 26 -3.2288 -0.0482
-12 2 27 4.7100 -0.4433
-12 2 28 1.7710 0.0691
-12 2 29 -0.6275 -0.0574
-12 4 1 10.2168 -0.2061
-12 4 2 5.2252 0.8091
-12 4 3 -10.5024 -0.1591
-12 4 4 -12.0071 -0.3581
-12 4 5 -9.4615 -0.1107
-12 4 6 -0.7550 0.2077
-12 4 7 -7.4113 -0.7096
-12 4 8 -1.1648 0.2994
-12 4 9 -2.8425 0.0637
-12 4 10 -1.2161 -0.3625
-12 4 11 2.9150 0.8079
-12 4 12 5.3649 0.0578
-12 4 13 -1.9931 -0.0958
-12 4 14 5.2891 0.1905
-12 4 15 -2.1106 -0.6332
-12 4 16 6.3853 0.0439
-12 4 17 7.2754 0.2575
-12 4 18 0.1171 -0.3280
-12 4 19 5.8816 0.4666
-12 4 20 -2.0876 -0.0365
-12 4 21 2.2829 0.1306
-12 4 22 0.4818 0.0726
-12 4 23 -2.7443 0.0379
-12 4 24 -2.9747 -0.2258
-12 4 25 -2.2351 -0.2324
-12 4 26 -0.8778 -0.0650
-12 4 27 7.7155 -0.0466
-12 6 1 -2.2010 0.1245
-12 6 2 -6.2756 -0.3862
-12 6 3 -1.1508 0.0604
-12 6 4 2.0215 0.2377
-12 6 5 4.9128 -0.3412
-12 6 6 5.9588 -0.3393
-12 6 7 4.5243 -0.0862
-12 6 8 10.0227 0.1350
-12 6 9 -0.3721 0.3939
-12 6 10 1.3866 0.0807
-12 6 11 3.6267 0.3107
-12 6 12 5.6154 -0.2120
-12 6 13 2.0213 -0.1866
-12 6 14 3.1932 -0.2221
-12 6 15 1.8389 0.1402
-12 6 16 5.6188 0.1383
-12 6 17 -4.0945 -0.2565
-12 6 18 5.8420 0.0105
-12 6 19 -6.2238 0.0752
-12 6 20 4.7271 0.1391
-12 6 21 -3.3825 0.2122
-12 6 22 2.8795 -0.0546
-12 6 23 -2.4626 0.1673
-12 6 24 -5.8448 0.1110
-12 6 25 -1.0002 0.0925
-12 8 1 7.6866 0.0689
-12 8 2 5.3325 0.0423
-12 8 3 6.0966 0.0407
-12 8 4 4.1120 -0.6294
-12 8 5 -2.1091 0.1620
-12 8 6 -5.7842 0.0460
-12 8 7 5.9859 0.2539
-12 8 8 0.4160 0.1471
-12 8 9 4.7587 -0.3329
-12 8 10 1.1108 0.0650
-12 8 11 5.8578 0.0302
-12 8 12 -0.5230 -0.5499
-12 8 13 -1.2665 0.1574
-12 8 14 -2.8507 -0.0473
-12 8 15 -6.2593 -0.0923
-12 8 16 -0.9079 0.1265
-12 8 17 -8.4008 -0.1392
-12 8 18 -3.9090 0.3189
-12 8 19 -3.6801 -0.0508
-12 8 20 -2.5061 -0.0318
-12 8 21 -0.5976 -0.2701
-12 8 22 7.2151 0.1448
-12 10 1 -0.3334 -0.0419
-12 10 2 -1.5684 -0.2013
-12 10 3 -1.5655 0.1276
-12 10 4 -0.6703 -0.0830
-12 10 5 -1.6019 0.1787
-12 10 6 -0.1994 -0.1061
-12 10 7 5.4895 -0.0014
-12 10 8 -0.3150 -0.2280
-12 10 9 -1.6097 0.1305
-12 10 10 -1.9943 0.0429
-12 10 11 -4.5511 -0.5211
-12 10 12 -7.4369 0.0947
-12 10 13 -7.4872 0.1430
-12 10 14 3.3728 -0.0277
-12 10 15 0.2865 0.1141
-12 10 16 1.7387 -0.1089
-12 10 17 -5.6766 0.1619
-12 10 18 -0.3268 0.1743
-12 10 19 -4.6442 -0.4367
-12 10 20 4.4531 0.0346
-12 12 1 -1.9876 -0.2057
-12 12 2 6.1849 -0.0429
-12 12 3 -2.0595 -0.1569
-12 12 4 6.3564 0.0748
-12 12 5 -6.8582 0.1035
-12 12 6 0.6000 -0.1018
-12 12 7 -4.8044 0.1086
-12 12 8 -1.5552 -0.2761
-12 12 9 -7.7083 -0.4169
-12 12 10 -1.5191 -0.1873
-12 12 11 -0.9068 -0.1393
-12 12 12 -5.4180 0.5247
-12 12 13 0.8826 -0.1356
-12 12 14 -0.8196 -0.0876
-12 12 15 5.6096 -0.0540
-12 12 16 5.0961 0.2483
-12 12 17 2.0026 -0.6302
-12 14 1 -3.3080 -0.3110
-12 14 2 8.7345 -0.2053
-12 14 3 -5.6016 0.0914
-12 14 4 9.1856 -0.1133
-12 14 5 3.2097 -0.1573
-12 14 14 -2.0793 0.1003
-11 1 1 -28.5272 -0.1875
-11 1 2 13.3217 0.8560
-11 1 3 3.8987 -2.6415
-11 1 4 5.2200 -0.6545
-11 1 5 -5.6926 0.6559
-11 1 6 -0.0606 -0.9220
-11 1 7 2.8496 0.8504
-11 1 8 -8.8874 1.0881
-11 1 9 -8.6430 -0.7580
-11 1 10 -6.4690 0.0672
-11 1 11 -5.3652 -0.0570
-11 1 12 -11.9923 -0.8467
-11 1 13 4.3192 0.9850
-11 1 14 -8.6882 -1.2309
-11 1 15 6.2185 -1.1428
-11 1 16 7.4099 2.1824
-11 1 17 0.3756 -0.2858
-11 1 18 4.2150 -1.2187
-11 1 19 -1.5052 0.7928
-11 1 20 1.8979 0.5891
-11 1 21 4.3270 -0.0531
-11 1 22 -2.4263 -0.4231
-11 1 23 2.8449 -0.9004
-11 1 24 -0.0200 0.2464
-11 1 25 4.7060 0.6632
-11 1 26 -0.3098 0.2579
-11 1 27 -1.8449 0.0386
-11 1 28 -6.1053 0.1053
-11 3 1 3.7267 -0.2381
-11 3 2 0.3673 -0.1737
-11 3 3 2.2837 0.8136
-11 3 4 8.1796 -0.0896
-11 3 5 -19.1389 -0.5965
-11 3 6 -14.3970 -0.0428
-11 3 7 -7.6124 0.4606
-11 3 8 -8.5876 -0.1853
-11 3 9 -5.4493 0.4691
-11 3 10 -6.6399 0.1088
-11 3 11 -6.5159 0.0187
-11 3 12 -0.5568 -0.1453
-11 3 13 3.4466 -0.4381
-11 3 14 2.0523 0.2423
-11 3 15 6.7632 0.7634
-11 3 16 0.7266 -0.4111
-11 3 17 9.1232 -0.6327
-11 3 18 5.0581 0.3149
-11 3 19 4.9819 0.0083
-11 3 20 4.9224 -0.0093
-11 3 21 1.5063 -0.4251
-11 3 22 -1.0711 0.2008
-11 3 23 1.9887 0.5357
-11 3 24 -6.0235 0.1425
-11 3 25 2.2466 0.1125
-11 3 26 -4.3663 0.3922
-11 3 27 -0.3175 0.5442
-11 3 28 -7.7578 0.3178
-11 5 1 -9.9225 0.0059
-11 5 2 -21.0510 -0.1454
-11 5 3 -2.3631 -0.4547
-11 5 4 -2.6165 -0.1086
-11 5 5 -0.5371 0.5379
-11 5 6 1.3743 0.0222
-11 5 7 2.4782 0.3322
-11 5 8 1.0177 -0.3687
-11 5 9 5.7487 -0.0177
-11 5 10 1.9548 0.1527
-11 5 11 4.0984 -0.3513
-11 5 12 0.9842 0.0148
-11 5 13 3.2286 0.3936
-11 5 14 5.1944 -0.0090
-11 5 15 4.6771 -0.2474
-11 5 16 3.2918 -0.2497
-11 5 17 5.8356 0.0316
-11 5 18 -1.0994 0.1270
-11 5 19 10.7779 -0.3021
-11 5 20 -3.9646 -0.2243
-11 5 21 8.2673 0.3590
-11 5 22 -6.7886 0.1989
-11 5 23 3.3756 -0.0919
-11 5 24 -5.2230 0.3161
-11 5 25 -0.3097 0.4875
-11 5 26 -2.1162 -0.0520
-11 7 1 2.9284 -0.3046
-11 7 2 0.7718 0.0803
-11 7 3 8.6512 0.0207
-11 7 4 -3.3050 -0.1606
-11 7 5 4.6996 -0.1536
-11 7 6 0.8965 -0.0451
-11 7 7 -2.9835 0.0743
-11 7 8 -2.8839 0.0209
-11 7 9 -1.1771 0.2788
-11 7 10 4.8491 -0.4582
-11 7 11 0.4949 0.1353
-11 7 12 0.5162 0.3451
-11 7 13 1.8682 -0.0646
-11 7 14 2.8635 0.2066
-11 7 15 0.3239 -0.0738
-11 7 16 -1.9225 0.0006
-11 7 17 3.9515 0.0413
-11 7 18 1.2534 -0.2619
-11 7 19 1.6120 -0.1866
-11 7 20 1.3579 0.2080
-11 7 21 -3.0778 -0.1167
-11 7 22 -6.0698 0.0104
-11 7 23 -0.4614 0.2729
-11 7 24 -1.2372 -0.0268
-11 9 1 -4.1653 0.2019
-11 9 2 -7.4563 -0.2685
-11 9 3 -3.2928 -0.2627
-11 9 4 -3.5228 0.2999
-11 9 5 3.1444 0.0530
-11 9 6 4.7667 0.0033
-11 9 7 -1.5112 -0.1261
-11 9 8 0.5797 -0.1774
-11 9 9 2.4622 -0.0734
-11 9 10 -3.0490 0.2331
-11 9 11 -2.4811 0.4130
-11 9 12 -1.7053 0.0873
-11 9 13 -0.9289 -0.1195
-11 9 14 -0.0246 -0.1988
-11 9 15 -1.5358 -0.1562
-11 9 16 5.9406 -0.1066
-11 9 17 3.0768 -0.4741
-11 9 18 4.8450 -0.0118
-11 9 19 0.7108 0.0134
-11 9 20 -5.1489 0.2538
-11 9 21 -2.7735 0.0514
-11 11 1 4.4231 -0.0340
-11 11 2 -0.5995 0.0472
-11 11 3 1.9636 0.3013
-11 11 4 3.5607 -0.1556
-11 11 5 4.6707 -0.1697
-11 11 6 0.2473 -0.0020
-11 11 7 -3.3807 -0.0857
-11 11 8 -2.6491 0.3396
-11 11 9 -2.3953 0.1590
-11 11 10 -0.8165 -0.0798
-11 11 11 -5.0541 -0.0299
-11 11 12 8.5102 -0.4073
-11 11 13 -2.2287 -0.2080
-11 11 14 3.7708 -0.0329
-11 11 15 -11.8030 -0.3458
-11 11 16 1.2785 -0.1007
-11 11 17 -5.5685 -0.0673
-11 11 18 6.3488 -0.0846
-11 11 19 -1.3604 0.2556
-11 13 1 -0.4337 0.3586
-11 13 2 -2.6134 -0.0989
-11 13 3 -2.1053 0.0343
-11 13 4 -5.1447 -0.2048
-11 13 5 -5.1408 -0.1129
-11 13 6 -0.1485 -0.1275
-11 13 7 -2.6646 -0.0714
-11 13 8 -0.5871 0.1305
-11 13 9 4.9806 0.0407
-11 13 10 -2.0112 0.2030
-11 13 11 0.0157 -0.4755
-11 13 12 4.2997 -0.2821
-11 13 13 -6.3709 -0.2779
-11 13 14 0.5674 -0.6816
-11 13 15 -7.9195 -0.1585
-11 13 16 -3.5649 -1.1357
-10 0 2 -44.8124 -1.7918
-10 0 4 -17.7836 -3.3038
-10 0 6 -20.7491 -2.1502
-10 0 8 -8.9165 0.2520
-10 0 10 -15.7789 -0.4965
-10 0 12 -11.1201 1.8302
-10 0 14 -4.6789 2.9166
-10 0 16 -9.3059 -5.2712
-10 0 18 -8.1270 0.8124
-10 0 20 -3.2817 -0.3460
-10 0 22 7.6523 3.0713
-10 0 24 3.9590 -1.4592
-10 0 26 2.8305 0.3283
-10 0 28 7.9998 -2.0051
-10 2 1 5.7841 -2.0387
-10 2 2 10.1350 0.1480
-10 2 3 -25.4105 -0.3273
-10 2 4 -17.1336 0.9333
-10 2 5 -3.7942 0.5423
-10 2 6 -7.4937 -0.4120
-10 2 7 -8.4977 0.3743
-10 2 8 -10.0913 -0.8226
-10 2 9 0.2213 0.5978
-10 2 10 -0.6698 0.3333
-10 2 11 1.9708 0.1530
-10 2 12 -2.4451 1.2227
-10 2 13 1.4429 -0.5093
-10 2 14 -4.1392 -0.2432
-10 2 15 4.7870 -0.3801
-10 2 16 -9.0553 -0.5396
-10 2 17 -0.6263 0.3892
-10 2 18 -1.7003 -0.0194
-10 2 19 4.6049 -0.1927
-10 2 20 1.6310 0.1027
-10 2 21 1.8725 0.3104
-10 2 22 -0.2449 -0.0312
-10 2 23 -1.8851 -0.1476
-10 2 24 1.8518 0.6805
-10 2 25 -6.2055 -0.1016
-10 2 26 -0.2436 -0.4314
-10 2 27 -0.5280 -0.3421
-10 2 28 11.7931 -0.2087
-10 2 29 -6.0639 0.5841
-10 4 1 -16.5098 0.6041
-10 4 2 -2.6331 0.7388
-10 4 3 -26.9925 -0.5191
-10 4 4 -5.7365 -0.2125
-10 4 5 -7.1199 0.0299
-10 4 6 17.2694 0.0143
-10 4 7 0.3873 0.3016
-10 4 8 8.7619 -0.0686
-10 4 9 4.1689 0.0825
-10 4 10 10.4130 -0.3081
-10 4 11 1.5634 0.3126
-10 4 12 12.0218 0.1267
-10 4 13 -1.2017 -0.3177
-10 4 14 5.4156 0.4277
-10 4 15 1.7231 -0.7163
-10 4 16 2.2463 0.1610
-10 4 17 5.9651 0.1558
-10 4 18 -0.2330 -0.5031
-10 4 19 0.1962 0.3970
-10 4 20 2.1583 0.2367
-10 4 21 -3.3458 0.0340
-10 4 22 3.2790 0.1990
-10 4 23 -3.3586 -0.0795
-10 4 24 2.5778 -0.3255
-10 4 25 -0.6014 -0.0478
-10 4 26 -0.4498 -0.2135
-10 4 27 3.4876 0.1235
-10 6 1 5.5012 -0.0437
-10 6 2 7.6168 -0.4433
-10 6 3 6.8409 0.2645
-10 6 4 9.3801 0.4704
-10 6 5 2.9111 -0.2688
-10 6 6 2.8216 -0.2027
-10 6 7 -1.0007 -0.2449
-10 6 8 3.4045 -0.0739
-10 6 9 -0.0661 0.3940
-10 6 10 -2.7732 0.1842
-10 6 11 1.9455 0.1111
-10 6 12 3.7542 -0.1703
-10 6 13 -0.3904 -0.4750
-10 6 14 3.6465 -0.1883
-10 6 15 -1.0794 -0.1194
-10 6 16 2.8624 0.2755
-10 6 17 -3.0354 -0.0978
-10 6 18 -3.0248 -0.0057
-10 6 19 -4.3728 0.4248
-10 6 20 -6.2283 -0.2163
-10 6 21 -1.5113 0.1349
-10 6 22 -5.3658 -0.2144
-10 6 23 -1.1206 0.3117
-10 6 24 -2.2358 0.1191
-10 6 25 8.2324 0.0706
-10 8 1 3.2838 0.1459
-10 8 2 -6.0741 0.1204
-10 8 3 -2.7753 0.0281
-10 8 4 -7.7515 -0.3092
-10 8 5 0.8860 -0.1066
-10 8 6 -7.8129 0.0740
-10 8 7 7.2375 0.0756
-10 8 8 1.4995 0.1083
-10 8 9 4.2878 -0.2160
-10 8 10 0.0721 -0.1851
-10 8 11 -0.2467 -0.1308
-10 8 12 -0.5074 -0.3214
-10 8 13 -4.0679 0.1855
-10 8 14 -2.9417 0.1300
-10 8 15 -2.9085 -0.1777
-10 8 16 -1.8279 0.1656
-10 8 17 -3.0428 -0.0014
-10 8 18 -6.4523 0.2732
-10 8 19 -1.6169 0.2341
-10 8 20 -3.7300 -0.0909
-10 8 21 -3.8111 0.4051
-10 8 22 3.2608 -0.1185
-10 8 23 2.2354 0.1637
-10 10 1 7.9188 -0.0303
-10 10 2 3.4453 -0.1711
-10 10 3 8.5274 0.1350
-10 10 4 -1.8542 -0.1261
-10 10 5 4.2943 -0.0744
-10 10 6 -3.9268 -0.0208
-10 10 7 6.4894 -0.1150
-10 10 8 -1.6521 0.0203
-10 10 9 -1.7647 0.0216
-10 10 10 -5.5073 0.0543
-10 10 11 2.4883 -0.2451
-10 10 12 -8.3042 -0.0053
-10 10 13 -0.4888 0.1449
-10 10 14 -2.4458 0.0004
-10 10 15 0.9929 0.2886
-10 10 16 -3.5042 0.1756
-10 10 17 -6.3810 0.3324
-10 10 18 -9.6312 0.1009
-10 10 19 0.2552 -0.2079
-10 10 20 -2.7256 -0.1236
-10 12 1 -3.0366 0.1371
-10 12 2 -0.6258 -0.1042
-10 12 3 2.0120 -0.3497
-10 12 4 -0.7544 -0.2558
-10 12 5 -1.1120 0.1765
-10 12 6 -1.9878 -0.1309
-10 12 7 6.8327 -0.0236
-10 12 8 -1.8648 -0.1451
-10 12 9 4.8852 -0.3476
-10 12 10 3.5100 -0.0713
-10 12 11 6.1464 0.1900
-10 12 12 -1.0158 0.2982
-10 12 13 3.3979 0.2848
-10 12 14 2.1241 -0.0053
-10 12 15 6.4576 0.0614
-10 12 16 8.1284 0.3703
-10 12 17 1.8058 -0.5928
-10 12 18 3.5696 0.1696
-10 14 1 -4.8962 -0.0558
-10 14 2 -1.3341 -0.3212
-10 14 3 -0.5710 0.1901
-10 14 4 2.4741 0.1988
-10 14 5 4.9777 -0.1643
-10 14 6 3.2372 -0.0899
-10 14 7 1.4557 0.0805
-10 14 8 1.3868 -0.2194
-10 14 9 -0.2726 -0.0155
-10 14 14 1.1255 0.6917
-10 14 15 4.5440 0.5086
-9 1 1 9.7845 0.3512
-9 1 2 20.9180 -0.2212
-9 1 3 27.1905 0.0835
-9 1 4 -9.4074 0.3266
-9 1 5 0.6868 0.9494
-9 1 6 -12.6286 0.5334
-9 1 7 10.7182 1.0037
-9 1 8 -3.8724 -0.8775
-9 1 9 1.4985 -1.0849
-9 1 10 -4.1509 1.2095
-9 1 11 6.4989 -0.1688
-9 1 12 -5.3939 -0.6653
-9 1 13 9.9038 0.8879
-9 1 14 -4.6887 -0.7411
-9 1 15 5.8953 -0.5837
-9 1 16 4.6395 1.9514
-9 1 17 5.5492 -0.4474
-9 1 18 4.0809 -1.0580
-9 1 19 4.5171 0.8033
-9 1 20 3.3368 -0.0814
-9 1 21 4.4197 0.2287
-9 1 22 1.5811 -0.5290
-9 1 23 -2.3202 -1.0493
-9 1 24 1.4302 1.0948
-9 1 25 0.6849 0.1855
-9 1 26 4.7618 -0.4419
-9 1 27 -3.2696 -0.1558
-9 1 28 -3.8270 0.1349
-9 1 29 3.1761 -0.4639
-9 3 1 -32.4308 -0.1301
-9 3 2 -8.1652 0.2990
-9 3 3 -5.2305 0.5089
-9 3 4 10.8569 -0.2890
-9 3 5 1.9402 -0.4661
-9 3 6 -7.4339 -0.6675
-9 3 7 13.4651 -0.2877
-9 3 8 4.9675 0.3419
-9 3 9 5.2025 0.3686
-9 3 10 0.2331 0.1427
-9 3 11 2.5667 -0.5540
-9 3 12 0.0953 -0.1151
-9 3 13 11.5344 -0.0192
-9 3 14 -1.6430 0.2852
-9 3 15 10.1205 0.7879
-9 3 16 1.7095 -0.1202
-9 3 17 8.7300 -0.4510
-9 3 18 4.9568 0.0698
-9 3 19 0.8541 -0.0455
-9 3 20 -3.0446 -0.4686
-9 3 21 -0.0935 -0.0505
-9 3 22 -2.0519 0.1626
-9 3 23 2.0759 0.5670
-9 3 24 1.2473 -0.1905
-9 3 25 0.4737 -0.6599
-9 3 26 7.2582 0.1095
-9 3 27 -2.2119 0.1079
-9 3 28 -3.0281 0.0614
-9 5 1 -6.8518 0.0586
-9 5 2 -0.2426 -0.2908
-9 5 3 1.2692 -0.0977
-9 5 4 14.8159 -0.2460
-9 5 5 -3.8411 0.2016
-9 5 6 1.2909 0.0157
-9 5 7 -7.0289 0.2814
-9 5 8 0.4075 -0.1973
-9 5 9 -8.1219 -0.0385
-9 5 10 4.5987 0.1590
-9 5 11 -6.9671 -0.2014
-9 5 12 7.5983 0.5595
-9 5 13 -5.8265 -0.0301
-9 5 14 5.0926 -0.0632
-9 5 15 -0.8086 -0.0587
-9 5 16 -1.3463 -0.2897
-9 5 17 -1.8403 0.2034
-9 5 18 -3.3129 0.2679
-9 5 19 -1.7544 -0.1260
-9 5 20 -4.0020 -0.1575
-9 5 21 -2.9891 0.3659
-9 5 22 -0.8974 -0.2018
-9 5 23 -3.5340 -0.1746
-9 5 24 -2.4847 -0.1987
-9 5 25 -8.6003 0.4949
-9 5 26 6.1920 -0.3126
-9 7 1 -7.0655 -0.2061
-9 7 2 -2.1228 0.4313
-9 7 3 -7.7183 -0.0776
-9 7 4 -2.9815 -0.3810
-9 7 5 -12.8296 0.1180
-9 7 6 10.0191 -0.0771
-9 7 7 -4.7304 0.1010
-9 7 8 8.1796 0.0579
-9 7 9 -2.6779 0.0036
-9 7 10 11.9880 -0.1791
-9 7 11 -2.6639 -0.0419
-9 7 12 3.0347 0.1892
-9 7 13 -7.5699 -0.1268
-9 7 14 1.3621 0.4326
-9 7 15 -8.9776 0.2019
-9 7 16 -4.1163 -0.0867
-9 7 17 -4.3869 0.1790
-9 7 18 -0.0457 -0.3847
-9 7 19 -1.4332 -0.0645
-9 7 20 0.5711 0.0615
-9 7 21 0.4164 0.0459
-9 7 22 -3.8364 -0.1174
-9 7 23 3.9711 0.0491
-9 7 24 -0.7544 -0.1436
-9 9 1 -0.8166 0.0977
-9 9 2 4.3389 -0.2484
-9 9 3 7.5384 -0.3245
-9 9 4 12.2176 0.3104
-9 9 5 9.4425 0.2004
-9 9 6 10.8610 -0.0460
-9 9 7 0.5552 0.0497
-9 9 8 0.3900 -0.2285
-9 9 9 1.1283 0.0442
-9 9 10 -3.9131 0.1244
-9 9 11 -4.9796 0.2691
-9 9 12 -2.0860 0.1415
-9 9 13 -1.9213 -0.2119
-9 9 14 -0.9438 -0.1634
-9 9 15 -1.6419 -0.2381
-9 9 16 -3.9011 -0.2286
-9 9 17 2.6003 -0.1281
-9 9 18 -0.5161 -0.2535
-9 9 19 -4.4325 0.1759
-9 9 20 -2.1526 -0.1899
-9 9 21 -3.5256 -0.1192
-9 9 22 1.5151 -0.0334
-9 11 1 3.0410 -0.0872
-9 11 2 -0.8092 0.1293
-9 11 3 0.2846 0.1479
-9 11 4 0.5292 -0.0153
-9 11 5 5.2794 -0.3655
-9 11 6 -3.7251 -0.0156
-9 11 7 -2.4834 -0.0102
-9 11 8 -4.2211 0.0147
-9 11 9 -0.4176 0.1931
-9 11 10 0.1322 -0.0574
-9 11 11 1.0647 -0.0157
-9 11 12 4.2575 -0.2356
-9 11 13 4.8842 -0.1553
-9 11 14 0.7101 0.0876
-9 11 15 -1.1052 -0.2727
-9 11 16 -1.9681 -0.0408
-9 11 17 4.0269 0.1012
-9 11 18 1.1234 0.0602
-9 11 19 5.9034 0.6409
-9 11 20 -3.2852 0.2242
-9 13 1 1.4005 -0.0179
-9 13 2 0.4606 -0.2432
-9 13 3 -2.2108 0.1145
-9 13 4 -4.1867 0.0246
-9 13 5 -1.0382 0.0740
-9 13 6 -7.1696 0.0081
-9 13 7 -3.9452 -0.1387
-9 13 8 -10.4368 0.0799
-9 13 9 1.4368 0.0374
-9 13 10 -11.5768 -0.0576
-9 13 11 -6.4617 -0.2181
-9 13 12 -1.2709 -0.2823
-9 13 13 -7.8560 0.2753
-9 13 14 -2.0648 -0.2664
-9 13 15 -3.9994 0.0609
-9 13 16 -7.5132 0.1112
-9 13 17 -1.3830 0.1631
-9 15 1 2.5116 -0.1841
-9 15 2 3.7076 -0.1568
-9 15 3 -3.2529 0.1286
-8 0 2 -25.2245 -4.9068
-8 0 4 9.8737 -3.8538
-8 0 6 2.6061 -3.9855
-8 0 8 8.5754 4.2208
-8 0 10 3.7206 -1.3577
-8 0 12 8.0146 1.6486
-8 0 14 15.2854 0.1536
-8 0 16 12.5833 -3.8851
-8 0 18 11.9132 0.7199
-8 0 20 15.5782 1.2004
-8 0 22 12.1379 2.4213
-8 0 24 0.5994 -3.3217
-8 0 26 -3.2730 0.6785
-8 0 28 2.5484 -1.3992
-8 2 1 -29.2770 -1.8305
-8 2 2 -45.8723 -0.8731
-8 2 3 -47.0700 0.0237
-8 2 4 -31.0329 -2.0534
-8 2 5 -6.9248 0.6524
-8 2 6 4.6160 -0.6063
-8 2 7 -7.3607 0.1821
-8 2 8 -5.8834 0.3812
-8 2 9 -0.8749 0.3821
-8 2 10 0.5821 0.3898
-8 2 11 4.4987 0.0462
-8 2 12 -5.7018 0.5133
-8 2 13 3.3940 -0.9509
-8 2 14 -0.5477 -0.0517
-8 2 15 4.0842 -0.0399
-8 2 16 0.6276 -0.6588
-8 2 17 0.4060 0.7497
-8 2 18 1.0449 0.0162
-8 2 19 3.6464 -0.1839
-8 2 20 4.5814 0.5668
-8 2 21 -3.9093 -0.2573
-8 2 22 1.1065 0.0408
-8 2 23 -3.7042 -0.2580
-8 2 24 1.8465 0.2106
-8 2 25 -0.5401 -0.0395
-8 2 26 -4.0828 -0.1372
-8 2 27 2.9614 -0.4843
-8 2 28 9.3659 0.2165
-8 2 29 -2.8917 0.4249
-8 4 1 -26.6342 0.3978
-8 4 2 2.8035 0.2987
-8 4 3 -14.4897 -0.8817
-8 4 4 -5.0412 0.0011
-8 4 5 -6.1633 0.3871
-8 4 6 5.2131 -0.2460
-8 4 7 -6.7945 0.8631
-8 4 8 -6.5272 -0.0841
-8 4 9 -1.0584 -0.5332
-8 4 10 -1.8920 0.3388
-8 4 11 2.8825 -0.0476
-8 4 12 -6.2052 0.0324
-8 4 13 7.7619 0.0929
-8 4 14 -11.5158 0.0308
-8 4 15 7.3867 -0.3579
-8 4 16 -10.1579 0.0315
-8 4 17 2.3050 0.3659
-8 4 18 -9.9047 -0.2686
-8 4 19 0.2134 0.6519
-8 4 20 -2.3694 0.3717
-8 4 21 0.8182 -0.1175
-8 4 22 -2.0062 0.1667
-8 4 23 -1.2191 -0.4090
-8 4 24 -1.1104 0.0183
-8 4 25 0.5971 0.0792
-8 4 26 -5.7870 0.2267
-8 6 1 12.6142 -0.1910
-8 6 2 4.9157 -0.5020
-8 6 3 -1.1178 0.2760
-8 6 4 1.3954 0.4986
-8 6 5 0.6910 -0.1042
-8 6 6 0.0193 0.0432
-8 6 7 7.9072 -0.1272
-8 6 8 7.4074 -0.2896
-8 6 9 13.0376 0.3655
-8 6 10 2.2548 0.2231
-8 6 11 6.5169 -0.1377
-8 6 12 -0.7943 -0.0116
-8 6 13 3.2231 -0.2452
-8 6 14 -8.6121 0.0283
-8 6 15 3.3686 0.1021
-8 6 16 -9.8729 0.1870
-8 6 17 4.0637 0.1716
-8 6 18 -11.1208 -0.1991
-8 6 19 1.7188 0.3314
-8 6 20 -5.9779 -0.3548
-8 6 21 2.0163 -0.0373
-8 6 22 -4.0197 0.0354
-8 6 23 -2.2994 0.2789
-8 6 24 8.4702 0.2402
-8 6 25 10.4986 0.0265
-8 8 1 13.2337 0.1959
-8 8 2 10.0235 0.1062
-8 8 3 3.3618 0.1742
-8 8 4 11.3189 0.0454
-8 8 5 7.2434 -0.1172
-8 8 6 8.4667 0.1428
-8 8 7 1.4739 0.1368
-8 8 8 2.9955 0.2580
-8 8 9 -2.4398 0.1620
-8 8 10 -2.6957 -0.1177
-8 8 11 -6.9173 -0.1440
-8 8 12 0.2441 -0.0227
-8 8 13 -5.5352 0.1088
-8 8 14 1.8432 -0.2060
-8 8 15 -0.9937 -0.1896
-8 8 16 2.8919 -0.1482
-8 8 17 -2.5366 -0.0157
-8 8 18 -5.3400 0.1242
-8 8 19 1.0263 0.1372
-8 8 20 -6.2425 0.0297
-8 8 21 -2.7714 0.2338
-8 8 22 -0.8042 0.0890
-8 8 23 5.3716 -0.1944
-8 10 1 3.7031 -0.0650
-8 10 2 2.4945 -0.0231
-8 10 3 -0.2883 0.2487
-8 10 4 -5.0954 -0.1807
-8 10 5 -9.9491 0.0795
-8 10 6 -5.5781 0.0542
-8 10 7 -6.0525 0.0142
-8 10 8 -0.4841 0.1969
-8 10 9 -5.9853 -0.0567
-8 10 10 -1.9296 0.0088
-8 10 11 3.0938 0.0490
-8 10 12 0.9092 -0.0924
-8 10 13 -0.4637 -0.1196
-8 10 14 0.3067 -0.1211
-8 10 15 0.2228 0.2516
-8 10 16 -1.1570 -0.1557
-8 10 17 -2.0297 0.3785
-8 10 18 -6.6396 -0.3415
-8 10 19 2.0932 0.1138
-8 10 20 3.1023 -0.0134
-8 10 21 2.4804 0.0843
-8 12 1 -3.3844 0.1191
-8 12 2 -3.4134 -0.1733
-8 12 3 0.1464 -0.4373
-8 12 4 -2.9424 0.0094
-8 12 5 -4.7580 0.2932
-8 12 6 -0.3268 0.2712
-8 12 7 2.7491 0.0152
-8 12 8 0.2951 0.0690
-8 12 9 -3.5542 -0.2148
-8 12 10 1.8265 -0.1364
-8 12 11 -3.8876 -0.1581
-8 12 12 -6.9388 -0.2150
-8 12 13 -5.1492 0.0127
-8 12 14 -4.5824 -0.2006
-8 12 15 -2.5887 0.0046
-8 12 16 2.7992 -0.2795
-8 12 17 -4.0035 -0.1279
-8 12 18 4.0950 -0.8587
-8 12 19 -4.7907 0.2890
-8 14 1 4.7305 -0.0666
-8 14 2 -4.2298 -0.1171
-8 14 3 4.1547 0.0476
-8 14 4 -1.2796 0.1900
-8 14 5 5.5071 -0.2229
-8 14 6 -2.2766 -0.1361
-8 14 7 9.4719 0.1644
-8 14 8 -1.4888 0.1072
-8 14 9 6.3276 -0.0596
-8 14 10 -3.9010 0.1414
-8 14 11 8.3908 0.1959
-8 14 15 -2.4119 0.2250
-8 14 16 0.7536 -0.5843
-8 16 1 -2.0029 0.2645
-8 16 2 -2.6435 0.2765
-8 16 3 1.5067 -0.1691
-8 16 4 -0.3911 0.2650
-7 1 1 -32.5520 5.2327
-7 1 2 -33.7203 -0.6396
-7 1 3 -17.5899 2.3721
-7 1 4 -65.0949 1.2822
-7 1 5 -16.4903 -0.4893
-7 1 6 -45.1964 1.4611
-7 1 7 4.2776 1.3692
-7 1 8 -22.2428 -2.8353
-7 1 9 -6.5732 -0.3831
-7 1 10 -16.5826 1.6976
-7 1 11 -4.3036 -0.5932
-7 1 12 -4.9355 -0.5020
-7 1 13 -6.3356 0.3574
-7 1 14 -2.2797 -0.4559
-7 1 15 -7.7421 0.3599
-7 1 16 0.3502 0.8232
-7 1 17 -4.1508 -0.6327
-7 1 18 5.2129 -0.1741
-7 1 19 -6.6610 0.3957
-7 1 20 -1.1510 -0.5837
-7 1 21 -4.0368 0.4248
-7 1 22 -4.0520 -0.2767
-7 1 23 -3.4602 -0.8659
-7 1 24 -0.9707 1.5013
-7 1 25 0.7851 0.0210
-7 1 26 4.1393 -1.1107
-7 1 27 -2.4632 0.4852
-7 1 28 -5.8171 0.2373
-7 1 29 4.4773 0.0838
-7 3 1 -19.3712 0.0734
-7 3 2 27.7261 -0.0457
-7 3 3 11.4960 1.1104
-7 3 4 37.0320 -0.2512
-7 3 5 10.0626 0.4832
-7 3 6 0.0566 -0.4518
-7 3 7 3.5354 -1.3013
-7 3 8 5.7311 0.4883
-7 3 9 1.2394 0.2876
-7 3 10 -1.6151 -0.2380
-7 3 11 0.1418 -0.3578
-7 3 12 1.6101 0.1974
-7 3 13 3.1747 0.2490
-7 3 14 2.8025 0.1188
-7 3 15 -1.5777 -0.0145
-7 3 16 3.0522 -0.0955
-7 3 17 -2.0145 -0.1435
-7 3 18 1.6138 0.1065
-7 3 19 -6.7788 -0.0850
-7 3 20 -7.1228 -0.0805
-7 3 21 -4.4565 0.0828
-7 3 22 -0.9069 0.3081
-7 3 23 1.3998 0.2904
-7 3 24 -0.6878 -0.1736
-7 3 25 -0.7490 -0.6929
-7 3 26 0.6211 0.2536
-7 3 27 1.7318 0.2752
-7 3 28 -11.0761 0.0785
-7 3 29 -0.3585 -0.2719
-7 5 1 5.2468 -0.3013
-7 5 2 49.0997 -0.1988
-7 5 3 -0.9429 -0.0318
-7 5 4 29.9031 -0.5209
-7 5 5 -2.6129 -0.1966
-7 5 6 15.3412 -0.0767
-7 5 7 -0.5675 0.1795
-7 5 8 18.3353 0.3836
-7 5 9 0.6640 -0.1236
-7 5 10 14.4003 0.0715
-7 5 11 4.6355 -0.0224
-7 5 12 8.0855 0.3161
-7 5 13 3.5449 -0.2677
-7 5 14 2.0171 -0.4553
-7 5 15 2.7831 0.3543
-7 5 16 -0.3674 -0.2230
-7 5 17 -0.2301 0.1252
-7 5 18 3.8155 0.2192
-7 5 19 -1.4006 -0.1572
-7 5 20 -3.9258 0.1676
-7 5 21 -0.7311 0.2296
-7 5 22 -0.8096 0.0001
-7 5 23 3.8600 0.0250
-7 5 24 -7.2640 -0.0857
-7 5 25 1.7419 0.2996
-7 5 26 2.0350 -0.0983
-7 7 1 -4.0525 -0.1910
-7 7 2 13.4259 0.3202
-7 7 3 11.1011 -0.3236
-7 7 4 13.1620 -0.4299
-7 7 5 8.6311 0.1924
-7 7 6 13.1351 -0.1060
-7 7 7 9.7193 0.0617
-7 7 8 0.5730 0.1808
-7 7 9 -5.7752 -0.1931
-7 7 10 -0.1586 0.1748
-7 7 11 -4.2541 -0.0822
-7 7 12 -5.3422 -0.2878
-7 7 13 0.1766 -0.1433
-7 7 14 -5.3140 0.1392
-7 7 15 5.7033 0.1785
-7 7 16 -7.9283 -0.2035
-7 7 17 5.2072 0.2730
-7 7 18 -3.4515 -0.0815
-7 7 19 2.4790 0.2686
-7 7 20 -2.4527 0.2522
-7 7 21 6.1373 0.2402
-7 7 22 -4.9485 -0.0105
-7 7 23 10.4581 0.2272
-7 7 24 -7.6324 -0.2954
-7 9 1 -5.4373 -0.0250
-7 9 2 -6.7731 -0.3459
-7 9 3 2.7209 -0.1996
-7 9 4 1.0571 0.1680
-7 9 5 0.6825 0.1698
-7 9 6 -4.8625 0.1058
-7 9 7 -3.8182 0.0466
-7 9 8 -8.0982 -0.0903
-7 9 9 2.1376 -0.1544
-7 9 10 -3.5599 0.0643
-7 9 11 0.2802 -0.1038
-7 9 12 0.9576 0.2248
-7 9 13 1.8988 0.1638
-7 9 14 2.8310 -0.0684
-7 9 15 -3.5917 0.0969
-7 9 16 -1.9059 -0.1511
-7 9 17 -0.7229 0.1908
-7 9 18 5.5494 0.0219
-7 9 19 -4.2969 0.0092
-7 9 20 3.1157 0.1510
-7 9 21 6.7680 -0.2263
-7 9 22 2.4696 0.4976
-7 11 1 -4.5276 -0.0417
-7 11 2 -6.0938 0.1571
-7 11 3 -5.7095 0.1608
-7 11 4 -5.2616 0.0657
-7 11 5 2.3186 -0.0952
-7 11 6 -5.4113 -0.0247
-7 11 7 -0.7454 0.0580
-7 11 8 -5.2598 -0.1528
-7 11 9 1.6162 0.0203
-7 11 10 -3.2286 0.0760
-7 11 11 -2.9352 -0.1693
-7 11 12 0.0104 -0.1078
-7 11 13 -5.6020 -0.1194
-7 11 14 3.2973 -0.0878
-7 11 15 -4.7450 0.1227
-7 11 16 3.2336 -0.0621
-7 11 17 2.2867 0.3518
-7 11 18 3.1264 -0.0733
-7 11 19 5.6959 0.3784
-7 11 20 3.7466 0.0337
-7 13 1 -0.2119 0.1048
-7 13 2 4.5499 -0.0949
-7 13 3 -5.7900 0.1064
-7 13 4 -2.6872 0.1521
-7 13 5 -0.4287 -0.1845
-7 13 6 -8.0010 -0.0332
-7 13 7 -7.7078 -0.2947
-7 13 8 -9.8282 0.0779
-7 13 9 0.3156 0.1588
-7 13 10 -4.9820 -0.0879
-7 13 11 -2.4632 0.1962
-7 13 12 5.5741 0.1317
-7 13 13 0.2631 0.3520
-7 13 14 6.8160 0.0144
-7 13 15 -0.8549 0.1975
-7 13 16 5.0477 -0.2213
-7 13 17 -5.1489 0.4037
-7 13 18 1.2258 0.2840
-7 15 1 -0.0027 -0.0101
-7 15 2 -1.8384 -0.0474
-7 15 3 -2.9170 0.1052
-7 15 4 -3.5166 -0.1955
-7 15 5 -2.1308 -0.2127
-6 0 2 -114.3071 3.7450
-6 0 4 -41.0399 0.1292
-6 0 6 -9.7718 -3.6028
-6 0 8 7.9711 8.0431
-6 0 10 -1.0600 -1.5419
-6 0 12 -1.1918 -0.2978
-6 0 14 1.1424 -2.0654
-6 0 16 5.5516 0.0673
-6 0 18 -0.3017 0.0241
-6 0 20 0.4748 2.1003
-6 0 22 -0.7994 1.1145
-6 0 24 -4.9475 -3.7612
-6 0 26 -3.9514 1.0937
-6 0 28 1.2029 -0.1330
-6 2 1 31.1449 -0.9994
-6 2 2 -25.5501 -0.2801
-6 2 3 52.0263 0.1728
-6 2 4 -0.3921 -1.0016
-6 2 5 76.3640 1.0403
-6 2 6 10.9863 1.1175
-6 2 7 46.6181 0.5932
-6 2 8 -10.0725 0.9220
-6 2 9 30.8850 -0.0028
-6 2 10 2.2700 -0.0849
-6 2 11 26.3802 0.0788
-6 2 12 -1.6395 -0.2455
-6 2 13 18.7894 -0.5917
-6 2 14 5.2461 -0.0124
-6 2 15 14.6649 0.3242
-6 2 16 7.4557 -0.6758
-6 2 17 5.6934 0.6189
-6 2 18 -0.9684 0.1607
-6 2 19 -1.1169 0.1026
-6 2 20 3.5862 0.6991
-6 2 21 -7.3148 -0.3725
-6 2 22 -2.3669 -0.1271
-6 2 23 -6.2597 -0.1373
-6 2 24 -3.6141 -0.4476
-6 2 25 -5.0887 0.1243
-6 2 26 -5.2858 -0.1556
-6 2 27 -5.9669 -0.3137
-6 2 28 8.1804 -0.0552
-6 2 29 -4.9947 -0.0317
-6 4 1 39.0644 0.6049
-6 4 2 1.1278 0.2800
-6 4 3 30.5494 -0.2040
-6 4 4 -11.5450 0.5147
-6 4 5 10.4007 0.3644
-6 4 6 -3.6262 0.0816
-6 4 7 16.8592 0.9551
-6 4 8 -5.7177 0.2885
-6 4 9 19.7866 -0.6902
-6 4 10 1.8428 0.4252
-6 4 11 17.7648 -0.5306
-6 4 12 0.6981 -0.5379
-6 4 13 14.1468 -0.0434
-6 4 14 -0.6865 -0.1089
-6 4 15 8.1782 -0.1024
-6 4 16 -0.7119 0.2120
-6 4 17 2.8121 0.1408
-6 4 18 -4.8177 -0.1138
-6 4 19 4.4455 0.2264
-6 4 20 2.8904 0.0732
-6 4 21 -1.3031 -0.2589
-6 4 22 -1.9437 0.0619
-6 4 23 -8.9424 -0.3060
-6 4 24 -1.0813 -0.0307
-6 4 25 -4.9664 0.2203
-6 4 26 -1.5130 -0.3420
-6 4 27 -9.3215 -0.1375
-6 6 1 -26.7137 -0.3285
-6 6 2 0.8891 -0.2019
-6 6 3 -15.2761 0.1398
-6 6 4 14.2791 0.3037
-6 6 5 0.8061 0.1921
-6 6 6 13.6319 0.1958
-6 6 7 1.8116 -0.2381
-6 6 8 10.2587 -0.5841
-6 6 9 -0.4169 -0.1282
-6 6 10 -2.8709 0.1157
-6 6 11 -7.6541 -0.2837
-6 6 12 -6.6813 0.1617
-6 6 13 -5.2968 0.1326
-6 6 14 -6.5316 0.1132
-6 6 15 -5.3767 -0.0013
-6 6 16 -1.6730 -0.0625
-6 6 17 -4.9984 0.0754
-6 6 18 -7.0834 -0.0351
-6 6 19 -5.6927 0.0407
-6 6 20 -1.6088 -0.2149
-6 6 21 -4.4269 -0.1523
-6 6 22 -2.3447 0.0240
-6 6 23 -12.7598 0.0688
-6 6 24 8.9797 -0.0349
-6 6 25 -0.7182 0.0283
-6 8 1 -0.1033 0.1654
-6 8 2 4.5734 -0.0610
-6 8 3 -16.3607 -0.0462
-6 8 4 -1.2430 0.1879
-6 8 5 -11.2693 -0.3709
-6 8 6 -4.9206 -0.0934
-6 8 7 -14.5124 -0.0686
-6 8 8 -5.6134 0.0273
-6 8 9 -9.7460 0.2892
-6 8 10 1.9477 -0.1968
-6 8 11 -9.9481 -0.0275
-6 8 12 6.4705 0.3371
-6 8 13 -6.1894 0.2938
-6 8 14 1.4225 -0.0847
-6 8 15 -0.2806 0.1527
-6 8 16 -2.8542 -0.0035
-6 8 17 -1.9723 -0.1495
-6 8 18 -6.6365 -0.0364
-6 8 19 4.7807 -0.1281
-6 8 20 -6.6781 -0.0858
-6 8 21 -4.6823 0.2929
-6 8 22 -5.5294 -0.2344
-6 8 23 2.3061 0.3106
-6 10 1 7.2105 -0.2537
-6 10 2 -4.6141 0.0009
-6 10 3 1.5920 0.0855
-6 10 4 -9.2023 -0.2482
-6 10 5 -6.8234 -0.1358
-6 10 6 -3.5036 -0.0077
-6 10 7 -1.3980 -0.2253
-6 10 8 4.2179 0.1474
-6 10 9 -4.6067 -0.1475
-6 10 10 0.4182 -0.0034
-6 10 11 -3.1394 0.4495
-6 10 12 -2.1671 -0.1122
-6 10 13 -5.6039 -0.2825
-6 10 14 -8.5262 -0.1198
-6 10 15 -1.5020 0.2015
-6 10 16 -2.5397 -0.0256
-6 10 17 -0.2774 0.2473
-6 10 18 -2.3311 0.0692
-6 10 19 -0.1688 -0.0611
-6 10 20 -1.3059 0.2478
-6 10 21 -0.6577 -0.4509
-6 12 1 3.6269 0.1392
-6 12 2 0.3015 -0.0340
-6 12 3 10.7423 -0.2427
-6 12 4 -0.6820 -0.1104
-6 12 5 3.3767 0.1721
-6 12 6 2.1126 -0.0080
-6 12 7 6.1107 -0.0282
-6 12 8 0.6328 0.1213
-6 12 9 -4.2407 0.0419
-6 12 10 1.6064 0.1249
-6 12 11 -2.7311 -0.1183
-6 12 12 -0.8268 -0.1839
-6 12 13 -3.6832 0.3636
-6 12 14 2.5780 0.2503
-6 12 15 -2.1531 0.2180
-6 12 16 0.5073 -0.1550
-6 12 17 0.4120 0.1262
-6 12 18 0.2899 -0.3835
-6 12 19 -0.9297 0.1634
-6 14 1 -2.1909 -0.0169
-6 14 2 -3.3489 0.1101
-6 14 3 -0.5470 0.1314
-6 14 4 -0.9536 0.1937
-6 14 5 0.5109 -0.0923
-6 14 6 -0.1466 -0.0776
-6 14 7 8.2136 0.1403
-6 14 8 7.7468 -0.0299
-6 14 9 6.0889 -0.1731
-6 14 10 3.1246 0.0592
-6 14 11 4.7195 0.0251
-6 14 17 -0.6776 1.0073
-6 16 1 -2.2737 0.3465
-6 16 2 2.6291 0.3235
-6 16 3 -1.9413 -0.3302
-6 16 4 2.1978 0.3447
-5 1 1 11.1859 1.5052
-5 1 2 21.0545 -1.0420
-5 1 3 71.3930 -0.5197
-5 1 4 16.2345 1.7553
-5 1 5 37.6672 -1.3263
-5 1 6 34.7096 2.6739
-5 1 7 11.2923 1.6964
-5 1 8 28.9214 -3.0492
-5 1 9 -9.5977 -0.3678
-5 1 10 19.8134 1.4913
-5 1 11 -4.9526 -0.7765
-5 1 12 23.8213 0.1325
-5 1 13 -7.9373 0.3904
-5 1 14 22.2797 0.1359
-5 1 15 -6.9719 0.9014
-5 1 16 15.2995 -0.9120
-5 1 17 -5.1429 -0.9635
-5 1 18 17.5271 0.8401
-5 1 19 -6.0770 0.0466
-5 1 20 1.2317 -0.6079
-5 1 21 -1.0834 0.4058
-5 1 22 -4.2208 -0.0583
-5 1 23 -2.3692 -0.4756
-5 1 24 -2.0758 1.2302
-5 1 25 -2.6771 -0.1109
-5 1 26 -2.6778 -1.1534
-5 1 27 -3.1386 0.3551
-5 1 28 -8.4406 -0.1067
-5 1 29 1.3637 -0.2016
-5 3 1 44.3496 -0.3400
-5 3 2 48.6419 -0.0272
-5 3 3 23.1282 0.5117
-5 3 4 17.5543 0.1948
-5 3 5 13.0708 0.3819
-5 3 6 -21.0331 -0.5210
-5 3 7 4.6197 -1.4895
-5 3 8 -1.5697 0.1474
-5 3 9 13.1337 1.0668
-5 3 10 -3.6984 -0.2127
-5 3 11 6.2135 0.0794
-5 3 12 -0.8289 0.2969
-5 3 13 1.8863 0.1925
-5 3 14 -0.2574 -0.4037
-5 3 15 -6.6658 -0.5396
-5 3 16 -0.6951 0.0592
-5 3 17 -8.7236 0.4105
-5 3 18 5.8048 0.0231
-5 3 19 -8.4720 -0.3967
-5 3 20 1.3134 -0.0831
-5 3 21 -4.6599 0.1363
-5 3 22 3.0162 0.1544
-5 3 23 1.5698 0.1887
-5 3 24 0.5334 0.1216
-5 3 25 -2.0897 -0.4470
-5 3 26 0.9320 0.4175
-5 3 27 3.7132 -0.0571
-5 3 28 -5.6514 0.1554
-5 3 29 -5.2023 -0.3129
-5 5 1 3.8871 -0.0167
-5 5 2 -10.7845 -0.2751
-5 5 3 8.6628 0.4266
-5 5 4 -8.9256 -0.5095
-5 5 5 25.9416 -0.2609
-5 5 6 2.5196 0.3414
-5 5 7 21.2752 0.1109
-5 5 8 -0.5538 0.7682
-5 5 9 9.9606 0.1090
-5 5 10 -11.6633 -0.2525
-5 5 11 3.0276 0.5964
-5 5 12 -15.6237 0.3974
-5 5 13 -3.1225 -0.3243
-5 5 14 -12.0228 -0.1589
-5 5 15 -3.9370 0.1862
-5 5 16 -9.6363 -0.0846
-5 5 17 -3.6075 -0.2677
-5 5 18 -1.7640 -0.0271
-5 5 19 -7.8901 0.0252
-5 5 20 -9.3870 0.3972
-5 5 21 -5.0472 0.0688
-5 5 22 2.5310 -0.1319
-5 5 23 4.6896 0.1936
-5 5 24 -4.8430 -0.1321
-5 5 25 0.5177 0.1954
-5 5 26 0.4954 0.2435
-5 7 1 -4.5365 0.1547
-5 7 2 11.2976 0.2832
-5 7 3 6.7245 -0.1184
-5 7 4 -7.5420 -0.1153
-5 7 5 -4.4560 0.4143
-5 7 6 -14.0262 -0.0793
-5 7 7 -8.0211 0.1382
-5 7 8 -14.5692 0.4213
-5 7 9 -15.3302 -0.1588
-5 7 10 -6.8589 0.4200
-5 7 11 0.6149 0.0367
-5 7 12 -6.6379 -0.7882
-5 7 13 6.7845 -0.1330
-5 7 14 -6.1782 0.0657
-5 7 15 5.3501 -0.0323
-5 7 16 -4.8902 0.1063
-5 7 17 -0.0723 0.0614
-5 7 18 -1.3155 0.0134
-5 7 19 -0.3100 0.0242
-5 7 20 -0.8543 -0.1888
-5 7 21 3.4091 -0.0468
-5 7 22 -2.0539 -0.1343
-5 7 23 1.7372 0.2194
-5 7 24 -3.9399 -0.2950
-5 9 1 -11.0889 -0.0541
-5 9 2 -2.8327 -0.2875
-5 9 3 -6.9109 -0.0188
-5 9 4 1.8224 0.1726
-5 9 5 -5.3233 0.0466
-5 9 6 -3.2461 0.1878
-5 9 7 -3.7607 0.1817
-5 9 8 0.4510 -0.0831
-5 9 9 0.4036 -0.1311
-5 9 10 3.2712 -0.1375
-5 9 11 -6.4475 -0.3170
-5 9 12 1.0966 -0.0704
-5 9 13 -8.7123 0.3688
-5 9 14 0.7828 -0.2867
-5 9 15 -10.8477 -0.0670
-5 9 16 -4.5334 -0.1299
-5 9 17 -0.1058 0.1562
-5 9 18 -0.4488 0.1442
-5 9 19 -2.3326 -0.0555
-5 9 20 -1.9259 -0.1173
-5 9 21 5.9234 -0.0805
-5 9 22 2.0985 -0.3524
-5 9 23 -9.9700 0.1589
-5 11 1 1.1029 -0.0110
-5 11 2 -0.5554 0.2112
-5 11 3 1.5318 0.0113
-5 11 4 3.7555 0.1099
-5 11 5 4.8431 -0.0728
-5 11 6 2.2822 0.0411
-5 11 7 -2.2037 -0.0020
-5 11 8 0.3957 -0.2543
-5 11 9 -2.8181 0.0438
-5 11 10 2.6624 0.0004
-5 11 11 -5.7252 -0.1401
-5 11 12 6.0691 -0.0354
-5 11 13 -1.5422 0.0160
-5 11 14 5.1156 -0.1813
-5 11 15 4.9581 0.2855
-5 11 16 0.7336 0.1095
-5 11 17 3.1370 -0.2085
-5 11 18 -3.9277 -0.1033
-5 11 19 3.5035 -0.2866
-5 11 20 3.8398 0.2869
-5 11 21 -2.1713 0.1663
-5 13 1 2.5728 -0.0692
-5 13 2 -0.3475 -0.1281
-5 13 3 -0.8900 -0.0642
-5 13 4 -4.2076 -0.0006
-5 13 5 4.1219 0.0131
-5 13 6 -2.8975 -0.1236
-5 13 7 -5.2357 -0.1542
-5 13 8 0.6214 -0.0292
-5 13 9 4.8237 -0.0759
-5 13 10 10.7424 -0.3654
-5 13 11 2.0443 0.0750
-5 13 12 14.6806 0.2040
-5 13 13 2.4198 -0.1090
-5 13 14 7.9869 0.0355
-5 13 15 -1.9350 -0.0294
-5 13 16 3.5558 -0.4250
-5 13 17 -5.3273 -0.2395
-5 13 18 -6.6153 0.2724
-5 15 1 3.4956 0.0594
-5 15 2 0.2598 -0.1014
-5 15 3 8.4424 -0.0439
-5 15 4 -0.8323 -0.1827
-5 15 5 9.0194 -0.1202
-5 15 6 1.2590 0.1050
-5 15 7 3.6723 0.3410
-5 15 8 0.6863 0.1342
-4 0 2 -49.2412 0.0849
-4 0 4 66.1478 -2.2953
-4 0 6 38.7938 -3.2305
-4 0 8 12.7071 7.8367
-4 0 10 -7.7018 -1.9014
-4 0 12 -9.4461 -1.8261
-4 0 14 -15.5838 -2.4789
-4 0 16 -7.8555 3.9631
-4 0 18 -14.7318 -1.4279
-4 0 20 -6.4440 1.6990
-4 0 22 0.4254 -0.5483
-4 0 24 -4.0834 -2.5475
-4 0 26 -4.5585 1.0898
-4 0 28 -4.3214 1.0784
-4 2 1 28.4965 -0.3131
-4 2 2 -0.5954 -0.2854
-4 2 3 65.2160 0.1536
-4 2 4 -32.7973 -1.1379
-4 2 5 52.4357 0.5817
-4 2 6 -15.5700 0.0985
-4 2 7 20.2783 -0.2009
-4 2 8 -6.6034 0.7086
-4 2 9 11.5700 -0.6549
-4 2 10 14.2674 0.2828
-4 2 11 6.3566 0.5208
-4 2 12 8.4011 -0.6209
-4 2 13 -3.2454 -0.1415
-4 2 14 6.9738 0.1431
-4 2 15 -9.1460 0.2708
-4 2 16 4.1525 0.0442
-4 2 17 -13.6593 0.2679
-4 2 18 -7.7518 0.2313
-4 2 19 -13.5937 0.0670
-4 2 20 1.2266 0.2172
-4 2 21 -6.5094 -0.7380
-4 2 22 -0.7377 0.0330
-4 2 23 -2.3321 0.1335
-4 2 24 0.2087 -0.3449
-4 2 25 1.9193 0.5847
-4 2 26 0.7655 0.3592
-4 2 27 1.8281 0.2599
-4 2 28 4.0816 0.5863
-4 2 29 6.0262 0.0524
-4 4 1 0.1027 0.8079
-4 4 2 -33.7405 -0.4495
-4 4 3 4.4943 -0.0324
-4 4 4 -10.6120 0.3729
-4 4 5 8.8457 0.0649
-4 4 6 10.0276 -0.1310
-4 4 7 30.7746 1.3223
-4 4 8 8.0209 0.0596
-4 4 9 13.2324 -0.4423
-4 4 10 5.3911 0.3391
-4 4 11 1.8605 -0.8457
-4 4 12 3.0515 -0.3614
-4 4 13 -4.4858 0.4932
-4 4 14 2.0082 0.0543
-4 4 15 -6.8892 0.6812
-4 4 16 2.0788 0.1100
-4 4 17 -10.8327 -0.3300
-4 4 18 -3.4162 0.0092
-4 4 19 -8.3010 -0.1631
-4 4 20 1.9956 -0.0206
-4 4 21 -7.6701 0.0451
-4 4 22 -2.5526 0.1389
-4 4 23 -3.0361 -0.2087
-4 4 24 2.3355 0.2120
-4 4 25 3.0819 0.1433
-4 4 26 2.8166 0.1447
-4 4 27 -4.7984 -0.0011
-4 6 1 0.3680 -0.3780
-4 6 2 -1.9329 0.0087
-4 6 3 5.4467 0.2533
-4 6 4 3.4812 -0.1161
-4 6 5 -10.2429 0.4416
-4 6 6 -11.8993 0.3764
-4 6 7 -18.2598 -0.3107
-4 6 8 -14.5291 -0.6096
-4 6 9 -7.0849 -0.2497
-4 6 10 -11.4008 0.0206
-4 6 11 -0.5315 -0.2202
-4 6 12 -0.9231 0.3552
-4 6 13 3.1854 0.1805
-4 6 14 2.7703 0.2068
-4 6 15 -3.3799 -0.0101
-4 6 16 2.5087 -0.1668
-4 6 17 -2.0143 0.3504
-4 6 18 -4.7557 0.1069
-4 6 19 0.5050 -0.1076
-4 6 20 5.9350 -0.3090
-4 6 21 0.8771 -0.1942
-4 6 22 -0.9013 -0.0207
-4 6 23 -10.0755 -0.0215
-4 6 24 3.0102 0.1715
-4 6 25 -0.0856 0.0830
-4 8 1 3.7957 -0.0024
-4 8 2 5.4373 -0.0083
-4 8 3 -18.4696 -0.0521
-4 8 4 -1.8632 0.2379
-4 8 5 -12.7337 -0.1562
-4 8 6 1.3056 -0.1016
-4 8 7 -8.7697 -0.1846
-4 8 8 3.1062 0.0476
-4 8 9 0.1890 0.2809
-4 8 10 4.3098 -0.0871
-4 8 11 0.5089 0.0492
-4 8 12 -5.1506 0.5742
-4 8 13 2.1971 0.0808
-4 8 14 -12.0768 -0.0616
-4 8 15 5.9862 0.0254
-4 8 16 -9.1340 -0.0726
-4 8 17 2.5941 -0.2996
-4 8 18 -1.0897 -0.1213
-4 8 19 9.4088 0.0479
-4 8 20 -2.6229 0.1997
-4 8 21 -0.8270 0.4984
-4 8 22 -3.5240 -0.1288
-4 8 23 8.9209 0.2397
-4 8 24 -3.0337 -0.1394
-4 10 1 -2.7060 -0.0730
-4 10 2 4.4966 0.1973
-4 10 3 -0.7834 0.0307
-4 10 4 5.8090 -0.0827
-4 10 5 -3.5934 -0.0989
-4 10 6 8.1606 -0.0507
-4 10 7 -1.5120 -0.1042
-4 10 8 6.9402 0.1001
-4 10 9 -7.5339 -0.0781
-4 10 10 1.2416 -0.0135
-4 10 11 -1.8810 0.5527
-4 10 12 0.9389 -0.1843
-4 10 13 5.4896 -0.5026
-4 10 14 -0.1348 -0.1247
-4 10 15 9.1813 -0.0712
-4 10 16 5.9811 -0.0593
-4 10 17 7.3310 0.0424
-4 10 18 2.2674 0.0904
-4 10 19 4.7211 0.1337
-4 10 20 -4.8371 0.1206
-4 10 21 5.0298 0.1304
-4 10 22 -4.9771 -0.0911
-4 12 1 -1.2988 0.0071
-4 12 2 0.8012 -0.1480
-4 12 3 -0.0595 -0.1031
-4 12 4 -0.5173 -0.0850
-4 12 5 -5.7080 -0.0675
-4 12 6 3.1294 -0.0109
-4 12 7 1.1387 -0.0262
-4 12 8 3.8904 0.0324
-4 12 9 -5.3371 0.1557
-4 12 10 6.4534 -0.0781
-4 12 11 0.3881 -0.1971
-4 12 12 4.1880 -0.5476
-4 12 13 1.1755 0.1887
-4 12 14 2.8139 0.2503
-4 12 15 3.3695 -0.2308
-4 12 16 -5.6288 0.0133
-4 12 17 5.0607 0.0061
-4 12 18 -0.7925 0.4520
-4 12 19 -1.4826 -0.1163
-4 12 20 -10.6720 0.2805
-4 14 1 -1.9096 -0.0916
-4 14 2 -4.1467 0.2543
-4 14 3 -2.2630 0.1489
-4 14 4 0.8321 -0.0499
-4 14 5 -1.9668 0.0068
-4 14 6 0.8136 -0.1944
-4 14 7 4.7166 0.1363
-4 14 8 4.8592 -0.1275
-4 14 9 0.5376 -0.1002
-4 14 10 -6.8146 0.1754
-4 14 11 -8.1826 -0.1171
-4 16 1 -0.4053 -0.1063
-4 16 2 -4.7298 0.3666
-4 16 3 -1.4713 -0.3789
-4 16 4 -5.9441 0.1586
-3 1 1 149.4734 0.7079
-3 1 2 -5.1229 -2.1911
-3 1 3 96.5657 1.1905
-3 1 4 54.3600 0.5346
-3 1 5 -12.0178 -0.3782
-3 1 6 72.4799 2.1687
-3 1 7 -18.0081 0.6160
-3 1 8 48.8671 -2.4917
-3 1 9 -5.2132 -0.2688
-3 1 10 32.0464 0.7173
-3 1 11 8.0207 -0.5725
-3 1 12 21.6483 1.1359
-3 1 13 8.0942 0.0337
-3 1 14 11.9001 0.6472
-3 1 15 9.3242 1.1349
-3 1 16 -4.3591 -2.4415
-3 1 17 4.1973 -0.5358
-3 1 18 -4.7879 1.7369
-3 1 19 1.6367 -0.0507
-3 1 20 -15.6974 -0.2845
-3 1 21 2.1981 0.3130
-3 1 22 -11.4604 -0.1120
-3 1 23 -1.0007 0.1383
-3 1 24 -3.8695 0.5142
-3 1 25 0.2733 -0.3330
-3 1 26 -0.8149 -0.3247
-3 1 27 2.2803 0.0729
-3 1 28 2.2540 -0.0313
-3 1 29 1.7389 -0.0680
-3 3 1 47.6916 -0.3404
-3 3 2 -14.0118 0.4328
-3 3 3 14.9597 -0.1487
-3 3 4 -32.8787 0.0584
-3 3 5 37.0344 0.5992
-3 3 6 -24.0495 -0.2269
-3 3 7 23.1860 -1.1390
-3 3 8 6.5914 0.3929
-3 3 9 22.0980 0.4703
-3 3 10 -3.7718 -0.0518
-3 3 11 7.2468 -0.1314
-3 3 12 -6.2290 0.1376
-3 3 13 3.6922 0.1534
-3 3 14 -6.3208 -0.2682
-3 3 15 -0.8091 -0.7253
-3 3 16 -4.7152 0.3681
-3 3 17 -1.3881 0.9152
-3 3 18 1.5198 -0.3053
-3 3 19 0.3078 -0.2964
-3 3 20 -4.4682 0.0321
-3 3 21 -2.3096 0.2106
-3 3 22 -1.9174 -0.0147
-3 3 23 0.2105 -0.2993
-3 3 24 2.5494 -0.1283
-3 3 25 -0.5825 -0.3907
-3 3 26 1.8164 -0.0017
-3 3 27 6.2052 -0.3779
-3 3 28 1.3716 0.1040
-3 3 29 -7.1804 0.0038
-3 3 30 3.3321 0.3067
-3 5 1 44.1965 0.1608
-3 5 2 -0.1895 -0.0671
-3 5 3 32.2089 0.3883
-3 5 4 -14.4265 -0.0172
-3 5 5 22.8306 -0.4557
-3 5 6 -25.1302 0.1745
-3 5 7 -8.0372 -0.1704
-3 5 8 -32.1417 0.2645
-3 5 9 -13.9876 0.0043
-3 5 10 -23.4475 -0.3138
-3 5 11 -8.0400 0.5727
-3 5 12 -16.0416 0.4672
-3 5 13 -3.2399 -0.4653
-3 5 14 -11.9626 -0.1520
-3 5 15 0.4296 0.1859
-3 5 16 -11.8769 0.0008
-3 5 17 1.0407 -0.0283
-3 5 18 1.0536 0.0130
-3 5 19 -3.1655 0.3486
-3 5 20 -1.6571 0.4413
-3 5 21 0.8533 -0.3678
-3 5 22 8.0585 -0.3549
-3 5 23 3.5420 0.1010
-3 5 24 -6.0416 -0.0401
-3 5 25 -2.6848 -0.0705
-3 5 26 -3.1425 0.3775
-3 7 1 1.3675 0.2468
-3 7 2 12.8663 0.0958
-3 7 3 6.9648 -0.1206
-3 7 4 -8.4902 0.1729
-3 7 5 1.7079 0.1557
-3 7 6 -0.5896 -0.2244
-3 7 7 3.1671 0.0009
-3 7 8 5.2091 0.2905
-3 7 9 -0.8173 -0.1014
-3 7 10 1.5445 0.4446
-3 7 11 3.5653 0.1082
-3 7 12 -5.8674 -0.8052
-3 7 13 -3.2658 -0.1245
-3 7 14 -8.9657 0.1139
-3 7 15 -2.2309 -0.1248
-3 7 16 -2.9246 0.1651
-3 7 17 1.0193 0.0355
-3 7 18 -2.3528 0.0014
-3 7 19 4.0567 0.1386
-3 7 20 -2.3165 -0.1563
-3 7 21 3.2163 0.0639
-3 7 22 0.9929 0.3159
-3 7 23 3.5208 -0.0083
-3 7 24 4.1613 -0.0610
-3 9 1 -22.1380 -0.1213
-3 9 2 2.9734 -0.0134
-3 9 3 -9.7692 0.2340
-3 9 4 16.2486 -0.0842
-3 9 5 -0.2237 -0.1103
-3 9 6 13.2369 0.0855
-3 9 7 -1.1183 0.1811
-3 9 8 9.5741 0.1564
-3 9 9 0.7542 -0.1545
-3 9 10 0.4134 -0.0566
-3 9 11 0.5957 -0.4695
-3 9 12 -1.8989 -0.1223
-3 9 13 5.3197 0.4694
-3 9 14 2.8367 0.0011
-3 9 15 5.8461 0.0084
-3 9 16 -0.4247 0.1888
-3 9 17 9.3295 0.2454
-3 9 18 -2.6773 0.1555
-3 9 19 -1.2883 -0.1273
-3 9 20 -0.1295 -0.1550
-3 9 21 3.5830 -0.0710
-3 9 22 6.0200 -0.1295
-3 9 23 -4.8779 -0.1022
-3 11 1 -2.3250 0.0878
-3 11 2 0.2711 -0.0491
-3 11 3 -8.3206 -0.2476
-3 11 4 0.9790 0.0139
-3 11 5 -9.7941 0.0407
-3 11 6 -0.5357 0.1197
-3 11 7 -10.0285 0.0890
-3 11 8 2.5250 -0.2654
-3 11 9 0.4884 0.0015
-3 11 10 2.9459 0.0240
-3 11 11 4.1621 -0.1557
-3 11 12 2.0617 0.2241
-3 11 13 6.3619 0.2160
-3 11 14 -1.5246 -0.1668
-3 11 15 5.9257 0.5666
-3 11 16 0.3557 0.1471
-3 11 17 0.0468 -0.1574
-3 11 18 -3.5076 -0.3840
-3 11 19 5.2329 -0.0862
-3 11 20 7.2402 -0.0648
-3 11 21 3.4042 0.2333
-3 13 1 -2.5031 -0.1648
-3 13 2 -5.0994 -0.0783
-3 13 3 -5.1495 -0.0620
-3 13 4 -4.4034 0.0102
-3 13 5 -2.3844 0.0430
-3 13 6 0.5177 0.0268
-3 13 7 -7.6401 -0.1382
-3 13 8 1.8149 0.0055
-3 13 9 1.5314 0.1321
-3 13 10 6.8762 -0.3792
-3 13 11 -1.7307 0.4636
-3 13 12 1.9198 0.2966
-3 13 13 0.3429 -0.0151
-3 13 14 -8.6818 0.1509
-3 13 15 -0.4326 0.2286
-3 13 16 -2.1264 -0.5965
-3 13 17 -1.1173 -0.4771
-3 13 18 -2.1746 -0.0370
-3 13 19 4.7247 0.0042
-3 15 1 1.8750 -0.0268
-3 15 2 -0.8167 -0.0583
-3 15 3 3.8158 -0.1493
-3 15 4 -0.0998 -0.0003
-3 15 5 2.0302 0.0657
-3 15 6 2.3579 0.0347
-3 15 7 1.9619 0.2432
-3 15 8 -2.4482 0.1943
-3 15 9 -1.2707 -0.0398
-3 15 10 0.3064 -0.2573
-2 0 4 169.4265 2.5370
-2 0 6 30.9922 -0.2819
-2 0 8 15.6303 3.5174
-2 0 10 17.4138 -1.1925
-2 0 12 19.3531 -2.5554
-2 0 14 11.8929 -2.1138
-2 0 16 11.8713 6.4872
-2 0 18 -5.7007 -2.3001
-2 0 20 -5.1456 0.3061
-2 0 22 -2.9720 -1.3863
-2 0 24 -3.8075 0.0889
-2 0 26 0.1906 0.2896
-2 0 28 -0.1775 1.6210
-2 2 1 32.7438 1.6261
-2 2 2 -25.4459 0.3467
-2 2 3 -33.3062 0.9925
-2 2 4 -33.4939 -0.5598
-2 2 5 -73.3785 -0.0225
-2 2 6 23.0920 0.1827
-2 2 7 -62.8497 -0.7296
-2 2 8 25.8685 0.6789
-2 2 9 -39.7091 -0.7239
-2 2 10 26.3915 -0.1871
-2 2 11 -30.7128 0.4872
-2 2 12 14.3215 -1.0869
-2 2 13 -26.1233 0.0107
-2 2 14 6.8341 0.1844
-2 2 15 -18.7069 0.2554
-2 2 16 1.6490 0.3865
-2 2 17 -6.8496 -0.0929
-2 2 18 -6.2043 -0.0365
-2 2 19 -2.0708 -0.0304
-2 2 20 0.6520 -0.2785
-2 2 21 3.2035 -0.5691
-2 2 22 -2.1176 0.0855
-2 2 23 1.6612 0.3219
-2 2 24 0.2887 -0.4614
-2 2 25 1.9435 0.2078
-2 2 26 3.3904 0.2275
-2 2 27 -3.1836 -0.0568
-2 2 28 0.8253 0.4757
-2 2 29 0.6470 -0.4544
-2 4 1 -17.0582 0.2818
-2 4 2 8.2105 -0.4205
-2 4 3 13.3377 0.0831
-2 4 4 19.3150 0.5118
-2 4 5 -6.8070 -0.2014
-2 4 6 -1.9787 -0.1835
-2 4 7 -12.1910 0.4545
-2 4 8 -25.3995 0.1109
-2 4 9 -31.3795 -0.5926
-2 4 10 -25.8555 0.2821
-2 4 11 -21.3917 -0.6769
-2 4 12 -14.3605 -0.4326
-2 4 13 -16.8573 0.8027
-2 4 14 -4.2666 -0.2349
-2 4 15 -14.0585 0.7231
-2 4 16 0.5780 0.0365
-2 4 17 -14.0600 -0.6939
-2 4 18 -0.8685 0.2485
-2 4 19 -4.8887 -0.1170
-2 4 20 3.7770 -0.1419
-2 4 21 1.6593 0.3646
-2 4 22 0.1474 0.1113
-2 4 23 2.2363 -0.1463
-2 4 24 1.2622 0.3185
-2 4 25 -5.6375 -0.0394
-2 4 26 -1.1477 0.1388
-2 4 27 -11.5367 -0.1635
-2 4 28 -9.8866 0.1936
-2 6 1 30.9572 -0.3461
-2 6 2 -21.4074 0.1280
-2 6 3 21.8876 0.0088
-2 6 4 -13.2780 -0.4808
-2 6 5 5.5219 0.2661
-2 6 6 -16.9992 0.4002
-2 6 7 17.5091 -0.1296
-2 6 8 -7.3319 -0.3952
-2 6 9 25.8307 -0.2341
-2 6 10 -3.8069 -0.0963
-2 6 11 18.4848 -0.2494
-2 6 12 -1.9118 0.3474
-2 6 13 12.1614 0.2506
-2 6 14 -1.4641 0.0542
-2 6 15 0.6291 0.1429
-2 6 16 0.0655 -0.3416
-2 6 17 2.5742 0.2931
-2 6 18 1.1459 0.1809
-2 6 19 -1.5540 -0.3424
-2 6 20 11.6903 0.0011
-2 6 21 -5.3019 0.0196
-2 6 22 0.4733 0.1887
-2 6 23 -11.3535 0.0125
-2 6 24 7.3743 0.0191
-2 6 25 -3.2101 -0.2134
-2 8 1 -1.2734 0.0407
-2 8 2 -20.0366 -0.0804
-2 8 3 -0.9348 -0.0005
-2 8 4 -11.6768 0.1823
-2 8 5 10.4910 -0.0458
-2 8 6 -1.2028 0.0182
-2 8 7 13.0645 -0.1807
-2 8 8 -1.6788 -0.0446
-2 8 9 11.9958 0.4110
-2 8 10 -0.0218 -0.1517
-2 8 11 8.7467 0.1414
-2 8 12 -3.4244 0.4674
-2 8 13 12.4328 -0.0304
-2 8 14 0.9856 -0.0750
-2 8 15 15.0305 0.2142
-2 8 16 1.0929 -0.1405
-2 8 17 6.1689 -0.1200
-2 8 18 4.3485 -0.2154
-2 8 19 6.3296 -0.1440
-2 8 20 -1.7681 0.2535
-2 8 21 0.3813 -0.0970
-2 8 22 -1.0347 -0.0920
-2 8 23 9.5336 -0.1136
-2 8 24 0.8784 0.1358
-2 10 1 1.2125 -0.0131
-2 10 2 3.6360 0.2898
-2 10 3 -1.2072 -0.1115
-2 10 4 -2.1980 0.0158
-2 10 5 -6.9151 0.2282
-2 10 6 -0.7712 0.0470
-2 10 7 -4.1276 0.0283
-2 10 8 3.3293 0.1946
-2 10 9 -3.4864 -0.2196
-2 10 10 7.9035 -0.0069
-2 10 11 4.1131 0.4502
-2 10 12 5.9186 -0.1548
-2 10 13 8.1835 -0.3922
-2 10 14 0.9344 -0.2252
-2 10 15 5.6778 -0.2660
-2 10 16 0.6578 -0.3207
-2 10 17 6.1626 -0.0285
-2 10 18 3.2311 0.0257
-2 10 19 5.7374 0.2503
-2 10 20 -1.0460 0.0045
-2 10 21 5.0865 -0.0866
-2 10 22 3.7741 0.0607
-2 12 1 -5.4504 0.0458
-2 12 2 4.7688 -0.0960
-2 12 3 -3.9694 0.2500
-2 12 4 3.8625 0.3040
-2 12 5 -2.6358 -0.1300
-2 12 6 8.4190 -0.0216
-2 12 7 2.5741 0.0129
-2 12 8 8.9121 0.0084
-2 12 9 -6.1553 0.1517
-2 12 10 6.6226 0.1333
-2 12 11 -2.0878 -0.1253
-2 12 12 0.1492 -0.5236
-2 12 13 -3.2963 0.1148
-2 12 14 -0.0149 -0.0175
-2 12 15 -5.7390 -0.0294
-2 12 16 -5.5036 -0.2473
-2 12 17 -4.3287 0.6090
-2 12 18 0.9700 0.1994
-2 12 19 -4.8310 0.2572
-2 12 20 -9.6159 -0.0211
-2 14 1 -3.3077 -0.0415
-2 14 2 -1.4825 0.0836
-2 14 3 -3.0274 0.2159
-2 14 4 4.2339 -0.1453
-2 14 5 -2.4728 0.0093
-2 14 6 4.4408 0.0293
-2 14 7 -4.6658 0.0904
-2 14 8 8.8181 -0.1587
-2 14 9 -11.1500 0.0199
-2 14 10 2.2980 -0.1782
-2 14 11 -14.7084 -0.1455
-2 14 13 -13.1410 0.4079
-2 14 14 11.5427 -0.4506
-2 16 1 5.9666 -0.4167
-2 16 2 -5.7127 -0.0762
-2 16 3 1.4094 -0.1765
-1 1 3 -19.5684 0.0089
-1 1 4 -43.9803 0.0760
-1 1 5 -57.8988 -1.3093
-1 1 6 -29.6386 1.1109
-1 1 7 -6.2283 0.0538
-1 1 8 -24.5683 -0.7201
-1 1 9 -3.1606 0.5170
-1 1 10 -16.3340 -0.7519
-1 1 11 -3.7470 -0.6402
-1 1 12 -14.5138 0.8784
-1 1 13 -3.3816 -0.1352
-1 1 14 -13.2751 0.6278
-1 1 15 -3.5273 1.0520
-1 1 16 -13.1234 -2.7699
-1 1 17 -5.0889 -0.7001
-1 1 18 -2.1562 1.9645
-1 1 19 2.8965 -0.4713
-1 1 20 -2.7449 0.1353
-1 1 21 5.7644 0.3073
-1 1 22 -0.7363 -0.1821
-1 1 23 3.2467 0.5338
-1 1 24 -4.4412 -0.4629
-1 1 25 2.2317 -0.4397
-1 1 26 -5.7527 0.6821
-1 1 27 2.3655 0.3117
-1 1 28 -4.0489 -0.0978
-1 1 29 -0.5142 0.4329
-1 3 1 121.1175 -0.8794
-1 3 2 -27.9107 -0.2168
-1 3 3 90.2196 -0.1835
-1 3 4 28.7324 -0.1135
-1 3 5 71.0493 0.9465
-1 3 6 33.6602 0.5230
-1 3 7 0.0583 -0.4291
-1 3 8 22.6292 -0.0169
-1 3 9 -22.9587 -0.0137
-1 3 10 0.7159 -0.3056
-1 3 11 -30.6231 0.3215
-1 3 12 3.0794 0.0028
-1 3 13 -19.0136 0.0299
-1 3 14 1.8417 -0.1486
-1 3 15 -10.1350 -0.8025
-1 3 16 2.4581 0.2627
-1 3 17 -3.9754 1.1370
-1 3 18 0.7318 -0.2065
-1 3 19 3.2990 -0.2266
-1 3 20 -0.9414 0.4568
-1 3 21 1.4318 0.0353
-1 3 22 3.8616 -0.0913
-1 3 23 0.4860 -0.2311
-1 3 24 2.1561 0.0004
-1 3 25 -2.4556 0.4330
-1 3 26 -5.5035 0.1800
-1 3 27 -3.9958 -0.2203
-1 3 28 2.6491 0.2702
-1 3 29 -13.9272 0.2911
-1 5 1 18.2574 0.3011
-1 5 2 25.7668 0.1582
-1 5 3 -15.2525 0.3114
-1 5 4 -0.3333 0.2153
-1 5 5 -13.6902 -0.1564
-1 5 6 5.0430 0.1125
-1 5 7 -15.4501 -0.2189
-1 5 8 18.5423 0.2879
-1 5 9 4.5229 -0.1115
-1 5 10 25.3104 -0.2197
-1 5 11 7.2341 0.4125
-1 5 12 18.5079 -0.1213
-1 5 13 1.8348 -0.1905
-1 5 14 13.0398 -0.1460
-1 5 15 1.3421 0.1193
-1 5 16 11.2646 0.2353
-1 5 17 1.0364 -0.1196
-1 5 18 17.6011 -0.0591
-1 5 19 -0.2761 0.2566
-1 5 20 6.0311 0.3046
-1 5 21 1.3907 -0.5039
-1 5 22 7.0576 -0.0384
-1 5 23 -0.0682 0.2870
-1 5 24 -3.2827 0.3695
-1 5 25 3.6257 0.0299
-1 5 26 2.0315 0.4899
-1 7 1 -41.0827 0.2508
-1 7 2 -16.4815 -0.1412
-1 7 3 -25.6619 -0.0931
-1 7 4 -19.2933 0.4064
-1 7 5 -4.7734 -0.0367
-1 7 6 -3.9302 -0.3471
-1 7 7 3.4969 -0.0886
-1 7 8 -4.8935 0.0853
-1 7 9 2.7293 -0.1302
-1 7 10 -10.0769 0.4806
-1 7 11 2.8105 0.0925
-1 7 12 -5.1614 -0.6301
-1 7 13 -4.2393 -0.0779
-1 7 14 0.7303 -0.1542
-1 7 15 3.1738 -0.1176
-1 7 16 15.8252 0.1293
-1 7 17 4.2576 -0.0660
-1 7 18 10.8389 0.1299
-1 7 19 2.5386 0.0784
-1 7 20 7.2641 -0.3312
-1 7 21 -1.7669 0.0809
-1 7 22 12.7028 0.2010
-1 7 23 1.5271 0.0796
-1 7 24 13.2276 0.0780
-1 9 1 -7.5476 0.0240
-1 9 2 5.5750 -0.0580
-1 9 3 -0.4915 0.3390
-1 9 4 1.0848 -0.2763
-1 9 5 -0.2850 -0.3996
-1 9 6 -10.9437 0.1594
-1 9 7 -4.9810 0.1273
-1 9 8 -12.5523 0.1947
-1 9 9 2.9251 0.0284
-1 9 10 -14.0952 -0.2377
-1 9 11 7.0867 -0.3395
-1 9 12 -5.2287 -0.2381
-1 9 13 4.3551 0.4183
-1 9 14 -0.0268 0.0766
-1 9 15 -0.8049 0.0244
-1 9 16 -0.6334 0.0871
-1 9 17 1.5401 0.1205
-1 9 18 0.0409 0.1247
-1 9 19 0.5512 -0.1018
-1 9 20 8.1570 0.1654
-1 9 21 3.7603 0.1436
-1 9 22 6.1410 0.0343
-1 9 23 -2.3312 -0.1260
-1 11 1 9.7534 0.0802
-1 11 2 6.5237 -0.0548
-1 11 3 7.2900 -0.2528
-1 11 4 9.8935 -0.0538
-1 11 5 4.9775 0.1922
-1 11 6 6.9646 0.0158
-1 11 7 2.0298 -0.0087
-1 11 8 4.3762 -0.2021
-1 11 9 4.8689 -0.0829
-1 11 10 -4.5876 0.0894
-1 11 11 0.5124 -0.0149
-1 11 12 -5.5454 0.2545
-1 11 13 -1.9072 0.2576
-1 11 14 -8.0527 -0.2266
-1 11 15 0.4524 0.5084
-1 11 16 -6.1588 0.1801
-1 11 17 -0.2105 -0.2605
-1 11 18 -12.9933 -0.3987
-1 11 19 2.0314 -0.4323
-1 11 20 1.2052 -0.2934
-1 11 21 -2.7954 -0.1315
-1 13 1 -4.4810 -0.1933
-1 13 2 7.3588 0.0338
-1 13 3 0.4014 -0.0670
-1 13 4 7.6860 -0.1127
-1 13 5 2.5021 0.0594
-1 13 6 6.8303 0.0256
-1 13 7 -1.2552 0.0622
-1 13 8 0.1590 0.0185
-1 13 9 2.1053 0.1468
-1 13 10 -0.4272 -0.1574
-1 13 11 1.2280 0.1283
-1 13 12 -2.3046 0.2352
-1 13 13 5.4945 -0.0501
-1 13 14 -7.6344 0.0190
-1 13 15 8.4413 0.4721
-1 13 16 3.9796 -1.1939
-1 13 17 4.6504 -0.3304
-1 13 18 2.5702 -0.9183
-1 13 19 5.6844 0.3780
-1 15 1 -4.4837 0.2835
-1 15 2 16.8386 -0.0336
-1 15 3 3.4795 -0.0157
-1 15 4 9.6113 0.1011
-1 15 5 4.8055 0.1704
-1 15 6 5.3167 0.0687
-1 15 7 5.1704 0.0064
-1 15 8 1.7508 0.0965
-1 15 9 -1.1848 0.2779
-1 15 10 6.6473 -0.1934
-1 15 11 0.6471 0.8307
0 0 4 275.8293 3.6993
0 0 6 84.0612 0.7658
0 0 8 46.5231 -1.6748
0 0 10 12.4532 0.8547
0 0 12 -0.8137 -2.3023
0 0 14 -2.3144 -0.7990
0 0 16 -6.7848 6.1728
0 0 18 -11.8268 -2.8541
0 0 20 -2.6112 -1.1231
0 0 22 0.8386 -0.9127
0 0 24 4.3036 2.4938
0 0 26 -0.1289 -1.1133
0 0 28 -1.4471 1.3327
0 2 0 162.3458 0.8788
0 2 1 -16.6921 1.9336
0 2 2 185.4819 0.2583
0 2 3 -25.6405 0.1200
0 2 4 148.0767 1.1970
0 2 5 6.5265 -0.3978
0 2 6 108.0782 0.6391
0 2 7 18.8124 -0.3757
0 2 8 31.9206 -0.0399
0 2 9 8.6338 -0.3542
0 2 10 5.3023 -0.2084
0 2 11 -2.2197 0.5067
0 2 12 -7.1095 -0.3348
0 2 13 -3.3061 0.4615
0 2 14 -4.9770 0.1535
0 2 15 -0.7839 -0.0573
0 2 16 -4.4413 0.6167
0 2 17 4.6489 -0.5001
0 2 18 -4.6923 0.1931
0 2 19 -2.4191 0.1820
0 2 20 -3.1031 -0.5906
0 2 21 -0.3841 -0.1424
0 2 22 -5.9489 0.0177
0 2 23 2.6976 0.2368
0 2 24 -2.0705 0.0015
0 2 25 3.5113 0.0327
0 2 26 -2.2010 0.2632
0 2 27 -0.3368 -0.0034
0 2 28 -10.4522 0.1091
0 2 29 4.8381 -0.3481
0 4 0 -18.0439 0.2214
0 4 1 -5.9406 0.3629
0 4 2 -51.1912 -0.3851
0 4 3 13.6540 0.6737
0 4 4 -52.1167 0.1892
0 4 5 -36.1168 -0.6399
0 4 6 -43.5585 -0.1335
0 4 7 -20.5020 -0.3225
0 4 8 -18.2012 0.3670
0 4 9 -9.0083 0.4735
0 4 10 5.0695 0.1768
0 4 11 1.5768 -0.2122
0 4 12 9.7983 -0.3179
0 4 13 -5.0967 0.1965
0 4 14 9.8721 -0.1873
0 4 15 -4.2868 0.4623
0 4 16 6.2001 0.0193
0 4 17 -1.1439 -0.6347
0 4 18 2.9678 0.1327
0 4 19 6.5206 -0.2230
0 4 20 -1.3306 -0.2233
0 4 21 6.5196 0.5928
0 4 22 -8.5264 0.0833
0 4 23 5.3397 0.2727
0 4 24 -5.7250 0.1557
0 4 25 0.4088 -0.1111
0 4 26 -1.0605 0.0193
0 4 27 4.5675 -0.0067
0 4 28 -8.2451 0.1531
0 6 0 -40.3578 0.3448
0 6 1 -11.1899 -0.0036
0 6 2 -70.2694 0.1906
0 6 3 -22.7413 -0.1396
0 6 4 -33.3024 -0.6676
0 6 5 -27.6534 0.0115
0 6 6 -19.9017 0.3559
0 6 7 -12.5901 -0.0448
0 6 8 -11.5090 0.1490
0 6 9 -15.4783 -0.2912
0 6 10 -12.6412 -0.2077
0 6 11 -14.4305 0.0406
0 6 12 -8.8108 0.1363
0 6 13 -3.8109 0.2811
0 6 14 0.8052 -0.1536
0 6 15 -5.9005 -0.1759
0 6 16 3.4152 -0.3462
0 6 17 2.1091 -0.0437
0 6 18 4.9892 0.2625
0 6 19 -2.8347 -0.2172
0 6 20 7.8640 0.2921
0 6 21 -1.6308 0.1917
0 6 22 -4.7915 0.0016
0 6 23 -1.2362 -0.0482
0 6 24 2.2898 -0.2493
0 6 25 -0.9687 -0.1711
0 8 0 11.5607 -0.0552
0 8 1 13.0441 -0.2013
0 8 2 1.9422 -0.0832
0 8 3 7.6344 -0.1932
0 8 4 4.2503 0.0251
0 8 5 -3.4677 0.0401
0 8 6 -7.0693 0.0987
0 8 7 -5.7660 -0.1008
0 8 8 -16.4572 -0.0325
0 8 9 -3.4972 0.1346
0 8 10 -9.9611 -0.0653
0 8 11 2.3715 -0.0156
0 8 12 -7.7674 0.0996
0 8 13 10.4282 0.0439
0 8 14 -0.2539 -0.1325
0 8 15 5.8458 0.2883
0 8 16 -7.9085 -0.1629
0 8 17 -7.0959 -0.0513
0 8 18 -3.0485 -0.2042
0 8 19 -4.1926 -0.0764
0 8 20 -0.4446 0.2917
0 8 21 3.2660 0.1357
0 8 22 0.1802 -0.1262
0 8 23 3.0647 0.4091
0 10 0 9.2564 -0.1234
0 10 1 -0.8243 -0.0681
0 10 2 10.2648 0.0149
0 10 3 1.5802 -0.2120
0 10 4 6.2603 0.0626
0 10 5 5.5166 0.2554
0 10 6 8.3701 0.0449
0 10 7 13.6189 -0.1473
0 10 8 2.9573 -0.0548
0 10 9 11.2042 -0.2173
0 10 10 -0.0466 -0.1943
0 10 11 8.5575 0.3992
0 10 12 -8.1305 -0.0797
0 10 13 7.1804 -0.0523
0 10 14 -6.8212 -0.2183
0 10 15 1.4134 -0.2863
0 10 16 -1.8827 -0.1740
0 10 17 0.6714 0.0155
0 10 18 5.3949 0.2134
0 10 19 -3.5786 0.2961
0 10 20 -5.9461 -0.0373
0 10 21 -1.1654 -0.1517
0 10 22 -0.2649 0.3100
0 12 0 2.2432 -0.1497
0 12 1 -2.1452 -0.0868
0 12 2 0.4001 -0.1448
0 12 3 -2.5996 0.2040
0 12 4 2.6108 0.2710
0 12 5 0.7038 -0.2511
0 12 6 5.7917 -0.2373
0 12 7 4.7916 -0.0130
0 12 8 2.3757 0.0237
0 12 9 1.5702 0.0699
0 12 10 -2.0749 0.2495
0 12 11 5.7165 0.0380
0 12 12 -4.8931 -0.3221
0 12 13 5.3116 0.0493
0 12 14 0.6149 0.1429
0 12 15 1.5787 0.1731
0 12 16 -0.2831 0.3283
0 12 17 5.9623 0.5181
0 12 18 1.2131 0.9007
0 12 19 6.7834 0.1524
0 12 20 -7.3030 1.2172
0 14 0 3.0322 0.0116
0 14 1 3.5630 0.1224
0 14 2 5.7110 0.1174
0 14 3 -1.1528 0.1395
0 14 4 10.4236 -0.1383
0 14 5 -1.1459 0.0554
0 14 6 9.6352 0.0613
0 14 7 -4.6685 0.1571
0 14 8 10.5597 -0.0414
0 14 9 -4.7735 0.0537
0 14 10 2.9233 0.1082
0 14 11 -1.3240 -0.1795
0 14 12 -4.3422 0.3935
0 14 13 -4.7222 0.5419
0 14 14 4.6935 0.3557
0 16 0 -0.1491 0.4791
0 16 1 -4.6646 -0.1100
0 16 2 6.3478 -0.3389
0 16 3 -10.5844 0.1562
0 16 4 5.0419 -0.1440
0 16 5 -6.9355 -0.0021
0 16 6 -3.8074 -0.2779
1 1 3 -182.8286 -1.3235
1 1 4 -53.4873 -1.5021
1 1 5 -91.2656 -0.7115
1 1 6 11.1614 -0.1350
1 1 7 -19.6107 -0.1217
1 1 8 18.7099 2.0621
1 1 9 -20.4977 0.5997
1 1 10 2.7272 -1.5749
1 1 11 -12.7607 -0.4236
1 1 12 -9.1472 0.7582
1 1 13 -7.8484 0.0149
1 1 14 -17.4225 0.9109
1 1 15 -3.6141 0.4253
1 1 16 -11.8069 -2.1156
1 1 17 0.6547 -0.4365
1 1 18 -6.0966 0.9387
1 1 19 5.9818 -0.0932
1 1 20 -6.1765 0.4360
1 1 21 2.3516 0.3297
1 1 22 -2.7938 -0.2074
1 1 23 -0.3782 0.4107
1 1 24 -6.5245 -1.2722
1 1 25 -0.5791 -0.5401
1 1 26 -2.0436 1.4028
1 1 27 2.1587 0.0796
1 1 28 -2.8753 -0.3747
1 3 0 -34.6606 -0.3943
1 3 1 -93.1839 -0.7718
1 3 2 -2.4066 0.0260
1 3 3 -127.6526 -0.7220
1 3 4 23.5997 0.2811
1 3 5 -103.6155 -0.0399
1 3 6 -18.9596 0.4110
1 3 7 -87.2702 0.3167
1 3 8 -20.1063 -0.5623
1 3 9 -42.6486 -0.3151
1 3 10 -7.8831 0.2302
1 3 11 -18.6354 0.5643
1 3 12 3.3265 -0.0133
1 3 13 -4.7864 -0.1805
1 3 14 -5.9277 -0.1866
1 3 15 -2.0890 -0.5028
1 3 16 -3.8786 0.2225
1 3 17 -0.0978 0.7519
1 3 18 -5.8483 -0.1376
1 3 19 4.7055 -0.1444
1 3 20 1.1672 0.1840
1 3 21 -0.1555 0.1467
1 3 22 3.8468 -0.1666
1 3 23 -5.8537 -0.0554
1 3 24 -1.4530 0.1637
1 3 25 -4.0808 0.3951
1 3 26 -1.8880 -0.0736
1 3 27 -3.2243 -0.6225
1 3 28 12.6148 0.0979
1 3 29 -0.2887 0.1432
1 5 0 -26.3956 -0.3933
1 5 1 -23.2497 0.3101
1 5 2 -12.2733 0.3559
1 5 3 -34.7903 0.1950
1 5 4 -28.5973 0.3446
1 5 5 -5.5134 0.1804
1 5 6 -4.4372 0.1878
1 5 7 -8.5275 -0.2510
1 5 8 0.1943 -0.1942
1 5 9 -7.8981 -0.1346
1 5 10 -0.7711 -0.4261
1 5 11 -17.5182 0.1809
1 5 12 3.6799 -0.0795
1 5 13 -15.9594 0.2557
1 5 14 5.8334 0.4009
1 5 15 -6.1844 0.0165
1 5 16 4.2941 0.0406
1 5 17 -3.7070 -0.0997
1 5 18 2.4345 -0.4481
1 5 19 -1.7163 0.3283
1 5 20 -6.5238 -0.0746
1 5 21 0.3469 -0.3086
1 5 22 -0.7962 -0.1275
1 5 23 -0.4684 0.1644
1 5 24 -5.9392 0.0865
1 5 25 6.2356 -0.0880
1 7 0 -36.3336 0.1530
1 7 1 28.1196 0.1783
1 7 2 10.3098 -0.1127
1 7 3 31.3244 -0.0529
1 7 4 5.2396 0.6111
1 7 5 31.5653 -0.1030
1 7 6 8.9723 -0.2192
1 7 7 10.7990 -0.1378
1 7 8 3.5982 -0.2216
1 7 9 3.3001 0.0417
1 7 10 4.3394 0.1977
1 7 11 0.1138 0.2870
1 7 12 11.6206 -0.2375
1 7 13 -9.1479 -0.0148
1 7 14 6.6984 -0.0881
1 7 15 -4.3051 -0.1038
1 7 16 12.8114 0.3089
1 7 17 -8.5095 -0.1944
1 7 18 -0.5888 0.1130
1 7 19 -7.2187 -0.0805
1 7 20 -2.9700 -0.6603
1 7 21 -7.1299 0.0726
1 7 22 8.8234 0.0491
1 7 23 0.2618 0.0665
1 7 24 3.8291 0.1508
1 9 0 6.7319 0.0482
1 9 1 2.9258 -0.0983
1 9 2 2.3226 0.3098
1 9 3 4.1041 0.2592
1 9 4 2.6783 -0.0992
1 9 5 9.7585 -0.3594
1 9 6 4.2185 0.0458
1 9 7 11.7629 0.1051
1 9 8 8.2685 0.0833
1 9 9 17.3173 0.1829
1 9 10 0.6516 -0.1809
1 9 11 13.3114 -0.1252
1 9 12 1.1741 -0.1757
1 9 13 2.4592 0.1878
1 9 14 -1.8137 0.0734
1 9 15 0.0360 -0.0075
1 9 16 1.9441 0.0717
1 9 17 5.1407 -0.0333
1 9 18 5.0871 0.1018
1 9 19 4.2921 -0.0820
1 9 20 6.4857 -0.0385
1 9 21 -10.1681 0.1967
1 9 22 -3.6865 -0.5681
1 11 0 5.4396 0.0434
1 11 1 -5.5277 0.0830
1 11 2 4.1110 -0.1310
1 11 3 -2.5983 -0.0819
1 11 4 3.6853 -0.1392
1 11 5 -0.6896 0.1011
1 11 6 -2.2100 0.0376
1 11 7 -0.7901 -0.0664
1 11 8 -3.1731 -0.0138
1 11 9 4.0656 0.0081
1 11 10 -6.8869 -0.0985
1 11 11 4.3711 0.1035
1 11 12 -1.8908 -0.0097
1 11 13 3.5715 0.0303
1 11 14 -1.8818 -0.1340
1 11 15 5.8522 0.1539
1 11 16 1.2626 0.3666
1 11 17 -0.4998 -0.3451
1 11 18 -0.6715 -0.0299
1 11 19 -8.1796 -0.5031
1 11 20 12.5434 -0.2364
1 11 21 -10.3294 0.0344
1 13 0 -0.5790 -0.0361
1 13 1 3.5741 -0.0780
1 13 2 1.5586 0.1524
1 13 3 5.7586 0.0369
1 13 4 -0.8745 -0.1470
1 13 5 0.3788 0.0779
1 13 6 -2.9289 0.0768
1 13 7 -0.4165 0.1135
1 13 8 -8.9130 0.0235
1 13 9 5.4147 -0.0582
1 13 10 -8.6062 0.0008
1 13 11 6.8285 -0.2025
1 13 12 -3.4653 0.0195
1 13 13 2.9997 -0.0522
1 13 14 -7.2755 0.2286
1 13 15 5.3138 -0.0255
1 13 16 -3.6788 -0.6530
1 13 17 -3.1828 -0.7761
1 13 18 -3.2670 -0.3414
1 13 19 -2.7980 -0.3286
1 15 0 24.7291 -0.2167
1 15 1 3.8647 0.1995
1 15 2 13.4967 0.0147
1 15 3 3.9781 -0.0451
1 15 4 3.8261 0.0871
1 15 5 -4.8526 0.2866
1 15 6 2.5320 -0.1768
1 15 7 -11.4322 -0.1186
1 15 8 2.3134 -0.2887
1 15 9 -10.9263 0.1203
1 15 10 5.1185 0.1910
1 15 11 -8.0633 0.1589
2 0 4 -51.8730 2.4101
2 0 6 -71.1183 1.2896
2 0 8 -37.2689 -6.6987
2 0 10 -32.3869 2.5930
2 0 12 -24.8722 -0.5571
2 0 14 -9.6313 0.4331
2 0 16 -7.5130 2.7120
2 0 18 0.9564 -1.9681
2 0 20 2.4058 -1.6980
2 0 22 -3.2847 -0.2198
2 0 24 3.7885 3.5887
2 0 26 -3.1029 -2.0031
2 0 28 6.0824 0.5918
2 2 0 50.4788 -0.3520
2 2 2 98.7488 0.7831
2 2 3 -3.5126 -0.0255
2 2 4 15.6176 1.4150
2 2 5 -12.5022 -0.1739
2 2 6 -29.9091 -0.5656
2 2 7 -43.8592 -0.7973
2 2 8 -42.8646 -0.9623
2 2 9 -31.9694 -0.3887
2 2 10 -19.5191 -0.0651
2 2 11 -4.0467 0.4457
2 2 12 -10.7358 0.2020
2 2 13 10.0250 0.5441
2 2 14 2.2369 -0.0577
2 2 15 10.4464 -0.4678
2 2 16 -4.0111 0.5111
2 2 17 9.6054 -0.3607
2 2 18 -3.1896 -0.0710
2 2 19 1.8564 0.2985
2 2 20 -3.6913 -0.8657
2 2 21 4.2518 -0.0003
2 2 22 -5.1425 0.1887
2 2 23 4.7845 0.1836
2 2 24 -0.8321 0.4764
2 2 25 1.5025 0.0530
2 2 26 -1.8708 -0.0545
2 2 27 2.6832 -0.0906
2 2 28 -6.5119 -0.2790
2 4 0 27.0879 -0.0242
2 4 1 -32.3113 0.0537
2 4 2 -6.3418 -0.0259
2 4 3 -42.9328 0.1567
2 4 4 3.3920 0.2244
2 4 5 -56.3535 -1.0892
2 4 6 13.6838 -0.1128
2 4 7 -4.4571 -0.6203
2 4 8 19.2870 -0.1121
2 4 9 4.5083 1.0180
2 4 10 10.1315 -0.3457
2 4 11 1.5400 -0.1608
2 4 12 -2.2510 -0.0709
2 4 13 -1.8275 -0.0324
2 4 14 2.7066 0.1335
2 4 15 3.9921 0.5544
2 4 16 3.8815 0.1650
2 4 17 3.6649 -0.4366
2 4 18 4.1408 0.0596
2 4 19 3.3904 -0.3334
2 4 20 -0.9080 -0.2540
2 4 21 0.4695 0.6599
2 4 22 -1.9046 -0.1240
2 4 23 5.6998 0.4285
2 4 24 5.3828 0.1634
2 4 25 2.6646 -0.0537
2 4 26 6.8317 0.5048
2 4 27 6.7569 0.6515
2 4 28 -6.5302 0.4442
2 6 0 26.8375 0.3277
2 6 1 -14.6830 0.1060
2 6 2 0.5282 0.1087
2 6 3 13.2999 -0.2787
2 6 4 23.9487 -0.6293
2 6 5 8.4919 -0.2380
2 6 6 9.9550 0.0790
2 6 7 13.8016 0.2460
2 6 8 8.1035 0.4338
2 6 9 1.7570 0.0141
2 6 10 9.9862 -0.3544
2 6 11 -0.7563 0.3551
2 6 12 13.6137 0.0219
2 6 13 2.2253 -0.0177
2 6 14 18.1473 -0.0612
2 6 15 -6.1878 -0.2677
2 6 16 9.6420 -0.0481
2 6 17 -0.3713 0.1353
2 6 18 6.5622 0.2130
2 6 19 -5.0255 0.1319
2 6 20 7.7745 0.2271
2 6 21 -0.7096 0.1307
2 6 22 -0.0456 -0.2685
2 6 23 1.8324 0.0252
2 6 24 8.1089 -0.1428
2 6 25 0.0257 0.0029
2 8 0 -5.0182 -0.1567
2 8 1 18.4464 -0.1153
2 8 2 -12.5541 -0.2108
2 8 3 8.1947 0.0645
2 8 4 -4.8298 0.0027
2 8 5 1.8606 0.2344
2 8 6 -4.6753 0.2769
2 8 7 9.6819 0.0603
2 8 8 3.4658 0.0078
2 8 9 6.0678 0.0389
2 8 10 15.0431 -0.0008
2 8 11 -0.8653 0.0344
2 8 12 14.7645 -0.2293
2 8 13 -3.3747 -0.0861
2 8 14 18.6134 0.2368
2 8 15 -9.5986 -0.1208
2 8 16 6.7627 0.1384
2 8 17 -13.5666 -0.0766
2 8 18 9.4542 -0.0548
2 8 19 -6.2253 -0.0362
2 8 20 9.5533 0.1991
2 8 21 3.6883 -0.0532
2 8 22 -2.2287 -0.1281
2 8 23 -9.4248 0.0231
2 10 0 -0.7339 0.0137
2 10 1 0.4716 0.0818
2 10 2 -0.5558 0.0247
2 10 3 3.9347 -0.1717
2 10 4 -1.7702 0.1593
2 10 5 1.9281 0.3924
2 10 6 -0.3478 -0.0613
2 10 7 5.2924 0.1105
2 10 8 -6.3599 -0.1993
2 10 9 2.2762 -0.0636
2 10 10 -2.0401 -0.1275
2 10 11 -0.1376 -0.0150
2 10 12 -1.8991 0.1236
2 10 13 0.4508 0.0807
2 10 14 4.5825 -0.0583
2 10 15 -5.2594 -0.4391
2 10 16 4.7882 -0.0105
2 10 17 -5.4447 -0.2041
2 10 18 1.6097 -0.0011
2 10 19 -6.7979 0.2845
2 10 20 -14.0879 -0.2561
2 10 21 3.8526 0.1882
2 12 0 9.9338 0.0512
2 12 1 0.0657 -0.0871
2 12 2 6.5308 -0.0662
2 12 3 -4.0676 0.2716
2 12 4 1.0856 0.1723
2 12 5 -2.6233 -0.1625
2 12 6 -5.7328 -0.2236
2 12 7 -0.6439 -0.0524
2 12 8 -8.6981 -0.0749
2 12 9 -2.1330 0.0494
2 12 10 -5.3385 0.0923
2 12 11 -1.0617 0.1961
2 12 12 -2.7206 -0.1802
2 12 13 2.6114 -0.1805
2 12 14 -1.5599 -0.0603
2 12 15 -4.1728 0.0106
2 12 16 0.4948 0.1955
2 12 17 -3.1602 -0.1763
2 12 18 -0.3029 0.5089
2 12 19 -2.4506 -0.1440
2 12 20 -0.8633 0.9197
2 14 0 -2.8499 -0.0663
2 14 1 14.1969 0.0980
2 14 2 -3.6921 0.0810
2 14 3 9.3806 -0.1380
2 14 4 -2.9948 -0.1580
2 14 5 6.4875 -0.0470
2 14 6 -6.0848 0.0407
2 14 7 3.9569 -0.0409
2 14 8 -8.0162 0.0547
2 14 9 3.3653 0.0708
2 14 10 -11.3966 -0.1626
2 14 11 9.3726 -0.0521
2 14 12 -13.6274 0.1449
2 14 13 3.5538 0.1753
2 14 14 2.5323 0.1376
2 16 0 -13.0015 0.3522
2 16 1 -8.4169 -0.0727
2 16 2 -7.0750 -0.2936
2 16 3 -6.8528 -0.2228
2 16 4 -3.2451 0.0782
2 16 5 -0.1121 -0.3770
2 16 6 -4.5456 -0.3854
2 16 7 2.7441 0.5720
2 16 8 1.8033 0.5299
3 1 0 -187.8357 0.6807
3 1 1 -154.0240 -1.3641
3 1 2 -181.8361 0.2251
3 1 3 -52.9984 0.0647
3 1 4 -111.7327 -1.5388
3 1 5 -36.7246 -0.0243
3 1 6 -52.8698 -1.0562
3 1 7 -27.1997 -0.6834
3 1 8 -43.3222 3.1102
3 1 9 -25.3719 0.9742
3 1 10 -24.9146 -2.5318
3 1 11 -7.9459 -0.1854
3 1 12 0.8370 0.0723
3 1 13 2.3154 -0.3485
3 1 14 0.2854 0.7885
3 1 15 8.2520 0.0511
3 1 16 7.7041 -0.4301
3 1 17 3.8763 0.1474
3 1 18 4.5236 -0.1016
3 1 19 1.8202 -0.2745
3 1 20 5.4014 0.7622
3 1 21 3.2028 0.1215
3 1 22 9.3616 -0.0304
3 1 23 5.4099 0.4497
3 1 24 1.0265 -1.4366
3 1 25 3.7103 -0.2900
3 1 26 3.4607 1.3955
3 1 27 4.5609 0.1446
3 1 28 -3.6994 -0.4723
3 3 0 -7.7937 0.3813
3 3 1 -73.6960 -0.0791
3 3 2 -19.8333 0.1616
3 3 3 -100.6199 -0.6744
3 3 4 -30.2369 0.0003
3 3 5 -47.1695 0.1101
3 3 6 -26.0729 0.3577
3 3 7 -19.1521 1.4174
3 3 8 4.1880 -0.1643
3 3 9 -3.9425 -1.0276
3 3 10 8.0791 0.4266
3 3 11 -3.9068 0.2920
3 3 12 0.7548 -0.4305
3 3 13 1.1060 -0.1189
3 3 14 -12.1443 0.0726
3 3 15 5.6941 0.0049
3 3 16 -3.7777 0.3212
3 3 17 12.6710 0.1747
3 3 18 -4.3710 -0.0029
3 3 19 14.9174 0.2144
3 3 20 2.2152 0.1316
3 3 21 11.1091 -0.0143
3 3 22 3.5420 0.0083
3 3 23 5.3371 -0.1760
3 3 24 3.9068 0.1250
3 3 25 6.7417 0.7242
3 3 26 6.7000 -0.0557
3 3 27 -0.8296 0.4084
3 3 28 12.4439 0.5810
3 5 0 -41.3844 -0.2853
3 5 1 -25.8145 0.2067
3 5 2 17.9473 0.2686
3 5 3 -25.1405 -0.0635
3 5 4 27.2326 0.4622
3 5 5 -1.7174 0.3900
3 5 6 31.9438 0.1595
3 5 7 -17.5281 -0.0679
3 5 8 7.5734 -0.4711
3 5 9 -9.8993 0.0195
3 5 10 2.3862 -0.0591
3 5 11 1.4146 -0.2398
3 5 12 5.6100 -0.0490
3 5 13 13.9734 0.3333
3 5 14 1.2326 0.1529
3 5 15 18.2133 -0.3508
3 5 16 -2.7906 -0.1871
3 5 17 12.2386 -0.1333
3 5 18 -3.2224 -0.0572
3 5 19 9.9844 0.2541
3 5 20 -3.5794 -0.0137
3 5 21 10.9903 -0.1546
3 5 22 1.8183 -0.0181
3 5 23 7.5736 -0.2166
3 5 24 -4.3317 -0.0637
3 5 25 7.7464 -0.3674
3 7 0 -2.0909 0.1764
3 7 1 -10.0715 -0.0907
3 7 2 24.2106 -0.2362
3 7 3 -5.5510 -0.0030
3 7 4 -2.6143 0.3841
3 7 5 6.4942 -0.0227
3 7 6 5.6020 -0.1971
3 7 7 4.5075 -0.0858
3 7 8 7.2077 -0.6072
3 7 9 14.1627 0.1677
3 7 10 11.5503 -0.0068
3 7 11 12.2310 0.1351
3 7 12 12.4891 0.3597
3 7 13 0.9292 -0.1711
3 7 14 -1.1782 -0.2481
3 7 15 0.4177 -0.0208
3 7 16 3.7069 0.0778
3 7 17 -1.3862 -0.1176
3 7 18 -1.8073 0.1450
3 7 19 4.0042 -0.0584
3 7 20 -2.2314 -0.2795
3 7 21 -0.0348 0.1651
3 7 22 8.2207 0.2919
3 7 23 3.4221 -0.0263
3 7 24 -5.1218 0.2742
3 9 0 -2.8013 -0.1682
3 9 1 9.8136 -0.0343
3 9 2 -1.7550 0.2916
3 9 3 8.0557 0.1603
3 9 4 -0.3107 -0.1897
3 9 5 14.6085 -0.4063
3 9 6 -2.2602 0.0168
3 9 7 8.7112 -0.2189
3 9 8 1.0242 0.2393
3 9 9 4.3879 0.3135
3 9 10 0.8329 -0.0936
3 9 11 -2.2859 0.1185
3 9 12 5.3055 -0.0597
3 9 13 -9.9739 -0.1536
3 9 14 2.3031 0.1975
3 9 15 -7.0373 -0.0235
3 9 16 3.9806 0.1124
3 9 17 -0.3548 -0.0578
3 9 18 4.9447 0.0945
3 9 19 -0.8803 0.0061
3 9 20 3.8076 0.3197
3 9 21 -17.0195 0.1629
3 9 22 -0.6856 0.2645
3 11 0 2.0861 0.0386
3 11 1 3.8957 0.1078
3 11 2 0.7873 -0.1074
3 11 3 6.4909 -0.0729
3 11 4 -0.1116 -0.1124
3 11 5 7.2547 -0.0553
3 11 6 -2.3905 -0.0252
3 11 7 -0.0595 -0.0173
3 11 8 -1.5267 0.1448
3 11 9 -2.2542 -0.0346
3 11 10 -3.6487 -0.0830
3 11 11 -3.2962 0.1506
3 11 12 -0.1787 -0.0142
3 11 13 -6.6602 -0.1320
3 11 14 1.7208 -0.0139
3 11 15 -5.6745 -0.0220
3 11 16 -1.0684 0.2199
3 11 17 -7.6905 0.1737
3 11 18 -4.8808 0.0509
3 11 19 -6.3381 0.0825
3 11 20 2.6693 -0.3895
3 13 0 -9.0988 -0.0649
3 13 1 -2.0351 -0.0702
3 13 2 1.6232 0.0173
3 13 3 -0.0120 0.0990
3 13 4 3.8377 -0.2000
3 13 5 -0.0998 0.0321
3 13 6 2.3728 0.1664
3 13 7 4.3956 0.1236
3 13 8 -2.6931 0.1246
3 13 9 6.4051 -0.0956
3 13 10 -3.4492 0.2444
3 13 11 -0.9945 -0.1652
3 13 12 1.9050 -0.0989
3 13 13 -9.6562 0.3499
3 13 14 -2.4326 0.3492
3 13 15 3.6159 0.2570
3 13 16 -7.4742 -0.2247
3 13 17 -2.3182 0.2266
3 13 18 -0.8305 -0.2298
3 15 0 0.8451 -0.0705
3 15 1 -5.4656 0.1456
3 15 2 -5.1156 -0.1558
3 15 3 -3.1715 -0.0110
3 15 4 -7.1315 -0.0459
3 15 5 -3.7361 0.2333
3 15 6 0.7901 -0.0010
3 15 7 -6.3458 -0.4078
3 15 8 -0.1114 -0.0651
3 15 9 4.6136 -0.1154
3 15 10 0.9082 0.4178
3 15 12 -2.0376 -0.0290
4 0 0 12.8710 0.5893
4 0 2 -62.9971 0.9052
4 0 4 -51.8255 2.7837
4 0 6 -101.2672 1.6033
4 0 8 -93.3461 -8.3178
4 0 10 -69.6903 4.6595
4 0 12 -43.6245 1.1521
4 0 14 -6.8447 0.3742
4 0 16 2.8486 -1.3222
4 0 18 7.9985 0.4132
4 0 20 4.9896 -1.6866
4 0 22 5.3862 0.4535
4 0 24 15.5701 3.2329
4 0 26 4.3901 -2.1826
4 2 0 75.7585 0.8565
4 2 1 79.4078 0.5131
4 2 2 32.4448 1.1143
4 2 3 76.5544 0.1446
4 2 4 -35.1318 0.6400
4 2 5 31.0226 0.1636
4 2 6 -33.9964 -0.3576
4 2 7 2.2498 -0.1133
4 2 8 -11.4306 -0.4711
4 2 9 11.0954 0.5214
4 2 10 -5.2346 0.0312
4 2 11 8.9586 0.0521
4 2 12 -12.2950 0.6765
4 2 13 -1.2952 0.0376
4 2 14 -1.7585 -0.0867
4 2 15 -5.5805 -0.6840
4 2 16 -5.6414 -0.0768
4 2 17 -2.9788 -0.0759
4 2 18 4.9167 -0.1043
4 2 19 -3.5100 0.3585
4 2 20 7.2448 -0.1993
4 2 21 -5.7618 0.2837
4 2 22 4.7418 0.2271
4 2 23 -5.9317 -0.1760
4 2 24 4.4659 0.4401
4 2 25 -1.9771 -0.4402
4 2 26 0.7820 0.1543
4 2 27 6.0651 -0.3144
4 2 28 -3.1848 0.1346
4 4 0 13.8709 -0.0993
4 4 1 -25.7967 -0.2275
4 4 2 14.4820 0.3692
4 4 3 10.8048 0.3211
4 4 4 36.0279 0.0601
4 4 5 17.4739 -0.3598
4 4 6 26.7098 -0.2396
4 4 7 26.5979 -0.8141
4 4 8 23.5751 -0.1932
4 4 9 5.4014 0.8903
4 4 10 14.2674 -0.0136
4 4 11 2.3720 0.1143
4 4 12 11.1618 0.2477
4 4 13 4.6648 -0.5538
4 4 14 16.0906 -0.0865
4 4 15 9.8524 -0.1253
4 4 16 11.6545 -0.1467
4 4 17 4.9932 -0.0054
4 4 18 5.4958 -0.1260
4 4 19 3.6319 -0.0783
4 4 20 -1.7112 -0.0358
4 4 21 0.8210 0.3309
4 4 22 -1.7881 0.0667
4 4 23 4.6562 0.1640
4 4 24 2.1202 0.0661
4 4 25 -0.1268 -0.5170
4 6 0 35.6185 0.1221
4 6 1 6.9102 0.3336
4 6 2 2.7954 0.1912
4 6 3 4.6153 -0.3822
4 6 4 22.7292 -0.1551
4 6 5 -19.8432 -0.4203
4 6 6 11.1355 -0.1222
4 6 7 -4.5558 0.3673
4 6 8 24.4376 0.6592
4 6 9 -2.5749 -0.0710
4 6 10 22.4937 -0.2636
4 6 11 3.3263 0.2947
4 6 12 12.1208 -0.1094
4 6 13 8.4362 -0.1045
4 6 14 5.1789 0.0087
4 6 15 4.0250 -0.0612
4 6 16 -5.3971 0.1041
4 6 17 8.4978 -0.0091
4 6 18 -5.0182 -0.0705
4 6 19 6.5542 0.1545
4 6 20 -0.4734 0.1797
4 6 21 6.4193 0.0259
4 6 22 -9.0307 -0.0235
4 6 23 4.9024 -0.0487
4 6 24 -1.4205 0.1979
4 8 0 21.1268 -0.1389
4 8 1 2.4053 -0.1274
4 8 2 2.0557 -0.1331
4 8 3 -0.9515 0.0028
4 8 4 4.8664 0.0296
4 8 5 -3.8237 0.0990
4 8 6 -2.8132 0.1525
4 8 7 -3.3143 0.2596
4 8 8 -5.7069 -0.0388
4 8 9 -10.8929 -0.0390
4 8 10 -6.9678 0.2309
4 8 11 -10.4493 -0.1137
4 8 12 -6.6271 -0.4043
4 8 13 -3.6491 -0.1102
4 8 14 1.3976 0.2885
4 8 15 2.2261 0.0333
4 8 16 -2.3683 -0.0606
4 8 17 -1.2469 0.1895
4 8 18 -4.3291 -0.1724
4 8 19 -2.5494 -0.1000
4 8 20 -5.1460 -0.0573
4 8 21 6.5907 -0.2915
4 8 22 -13.5703 -0.0311
4 8 23 -8.3535 -0.2172
4 10 0 -6.2892 0.1425
4 10 1 9.2218 0.1204
4 10 2 -6.6659 -0.0327
4 10 3 8.2058 -0.1904
4 10 4 -7.9937 0.1736
4 10 5 -1.1047 0.0823
4 10 6 -8.7145 0.0815
4 10 7 2.6910 -0.0637
4 10 8 -14.2218 -0.1576
4 10 9 -0.8582 -0.1335
4 10 10 -10.0412 -0.1430
4 10 11 -5.7662 -0.2168
4 10 12 -4.5758 0.1843
4 10 13 -3.9856 0.4415
4 10 14 0.9313 0.0171
4 10 15 -4.1565 -0.2552
4 10 16 -1.2633 0.0089
4 10 17 -5.0169 -0.1106
4 10 18 -7.6845 -0.0993
4 10 19 -7.3282 0.1621
4 10 20 -14.3314 -0.1536
4 10 21 2.0158 -0.1145
4 12 0 5.9152 0.0807
4 12 1 -1.2952 -0.1484
4 12 2 1.6167 -0.0626
4 12 3 -1.5675 0.0649
4 12 4 -3.9272 0.0573
4 12 5 -0.7274 -0.1594
4 12 6 -7.9948 -0.0769
4 12 7 -0.3968 -0.0851
4 12 8 -1.8639 -0.0730
4 12 9 -2.7207 0.0758
4 12 10 3.4298 0.2424
4 12 11 -3.6336 0.2535
4 12 12 1.2085 0.2340
4 12 13 0.8671 -0.1285
4 12 14 -5.2667 -0.0372
4 12 15 -8.7088 0.4186
4 12 16 5.6909 0.0936
4 12 17 -5.0709 -0.0222
4 12 18 2.1475 -0.1376
4 12 19 0.4198 0.1845
4 14 0 -2.6455 -0.0181
4 14 1 5.9646 0.0822
4 14 2 -7.0410 0.0207
4 14 3 -2.1931 -0.1487
4 14 4 -5.7406 -0.2702
4 14 5 -2.4578 -0.0547
4 14 6 -8.1980 0.0115
4 14 7 7.5736 -0.1457
4 14 8 -7.7283 0.1865
4 14 9 3.7364 0.1750
4 14 10 -3.7957 -0.2078
4 14 11 8.6093 -0.2213
4 14 12 -1.6497 0.3159
4 14 13 0.8827 -0.4286
4 14 14 6.1508 0.1787
4 16 0 -6.2108 -0.0781
4 16 1 -3.0822 -0.0902
4 16 2 -7.5191 -0.0728
4 16 3 -5.9094 -0.4977
4 16 4 -5.5488 0.2670
4 16 5 -4.8852 -0.5874
4 16 6 -8.1001 -0.2447
4 16 7 0.1585 0.2131
4 16 8 -1.2082 0.9682
4 16 9 -2.0054 -0.7375
5 1 0 -94.7424 -0.0253
5 1 1 -20.3892 0.2584
5 1 2 -5.4478 1.4702
5 1 3 1.7727 0.4292
5 1 4 6.3973 -0.6283
5 1 5 -5.4333 -0.8218
5 1 6 15.9444 -1.2653
5 1 7 35.9958 -0.6272
5 1 8 -5.8563 3.3455
5 1 9 51.1184 1.3245
5 1 10 -2.7527 -2.0258
5 1 11 39.0834 -0.3679
5 1 12 6.2651 -0.5884
5 1 13 19.0720 -0.4289
5 1 14 -4.6761 0.3458
5 1 15 6.8698 0.0792
5 1 16 0.9479 1.1656
5 1 17 -2.7356 0.3788
5 1 18 -2.2700 -1.4723
5 1 19 -1.3819 -0.3147
5 1 20 -2.7320 0.6075
5 1 21 3.5430 0.2649
5 1 22 -4.3738 0.2337
5 1 23 2.6358 -0.1634
5 1 24 -10.3516 -1.1467
5 1 25 -1.4877 -0.8639
5 1 26 -2.5753 0.7527
5 1 27 0.2648 -0.4608
5 3 0 -8.6346 0.8844
5 3 1 -42.0344 -0.0410
5 3 2 -34.4734 -0.2894
5 3 3 1.8294 -0.5393
5 3 4 -21.6168 0.0645
5 3 5 54.9807 0.0351
5 3 6 13.6620 0.4083
5 3 7 50.0392 1.1315
5 3 8 11.1557 -0.4133
5 3 9 34.3873 -1.3875
5 3 10 3.8981 0.0981
5 3 11 22.4210 0.4689
5 3 12 4.9835 -0.1539
5 3 13 20.0408 0.1219
5 3 14 2.0762 0.2638
5 3 15 16.0133 0.2235
5 3 16 6.7997 -0.1401
5 3 17 15.3783 -0.4957
5 3 18 1.7228 0.0593
5 3 19 6.9204 0.4066
5 3 20 0.6508 -0.0999
5 3 21 2.0944 -0.2456
5 3 22 1.1817 -0.0723
5 3 23 -5.9338 -0.1736
5 3 24 3.5497 0.3543
5 3 25 -4.9536 0.1941
5 3 26 1.3219 0.1739
5 5 0 -28.1077 0.0971
5 5 1 4.8160 0.0604
5 5 2 18.3835 0.1839
5 5 3 -7.7642 -0.0532
5 5 4 -8.6717 0.0997
5 5 5 2.4259 0.4802
5 5 6 -9.1971 0.0172
5 5 7 -14.4414 0.0107
5 5 8 -13.9727 -0.0813
5 5 9 -3.7148 0.0130
5 5 10 1.0822 0.3403
5 5 11 3.0021 -0.5889
5 5 12 4.6244 -0.1325
5 5 13 4.2685 0.4837
5 5 14 1.0634 0.2320
5 5 15 -1.0296 -0.2073
5 5 16 -5.0927 -0.0932
5 5 17 -4.0101 0.0914
5 5 18 -3.9798 -0.1784
5 5 19 -2.8598 0.0482
5 5 20 -2.5282 -0.3364
5 5 21 2.6936 0.0368
5 5 22 -3.2141 0.1312
5 5 23 -2.8710 -0.3387
5 5 24 -8.4280 -0.0516
5 5 25 -7.2303 -0.2665
5 7 0 -14.5548 0.3011
5 7 1 -0.2565 -0.1598
5 7 2 9.6763 -0.1007
5 7 3 -2.4046 -0.0012
5 7 4 -3.2283 0.1736
5 7 5 1.3198 -0.0900
5 7 6 15.2473 0.0875
5 7 7 -11.0100 -0.1065
5 7 8 7.6822 -0.4782
5 7 9 -14.0450 0.1787
5 7 10 4.3023 -0.0075
5 7 11 -17.2113 0.0718
5 7 12 -1.7571 0.5797
5 7 13 -15.2477 -0.0806
5 7 14 -11.1985 -0.5326
5 7 15 -9.0728 0.0088
5 7 16 -3.4167 0.0097
5 7 17 -1.2183 -0.0549
5 7 18 -3.8066 0.2647
5 7 19 0.0707 -0.0236
5 7 20 -12.5825 -0.0647
5 7 21 -6.6385 0.1055
5 7 22 -4.6664 -0.0789
5 7 23 4.1329 -0.0779
5 9 0 2.9508 -0.2137
5 9 1 -5.6260 0.0795
5 9 2 8.9448 0.3447
5 9 3 -3.7394 0.0108
5 9 4 5.2227 -0.0911
5 9 5 3.9637 -0.1197
5 9 6 0.6382 -0.1107
5 9 7 -2.7418 -0.1391
5 9 8 6.2503 0.0661
5 9 9 -6.6050 0.4129
5 9 10 8.1192 -0.0452
5 9 11 -9.2127 0.0874
5 9 12 1.8561 0.2113
5 9 13 -6.8592 -0.3505
5 9 14 -2.9944 0.1594
5 9 15 -2.7725 0.1259
5 9 16 -3.3461 -0.1371
5 9 17 5.0989 -0.0144
5 9 18 3.0924 -0.0708
5 9 19 7.7016 0.0499
5 9 20 4.9382 0.3438
5 9 21 -3.9495 -0.0217
5 9 22 -0.7727 0.3727
5 11 0 -0.5583 -0.0105
5 11 1 2.8609 0.0750
5 11 2 -4.4340 -0.1125
5 11 3 5.7836 -0.0850
5 11 4 -4.6181 0.0010
5 11 5 9.4014 -0.0835
5 11 6 -1.9434 0.0403
5 11 7 3.1586 0.0756
5 11 8 -1.3374 0.3132
5 11 9 4.4304 0.0782
5 11 10 0.7148 -0.1715
5 11 11 4.2690 0.3779
5 11 12 3.4423 -0.1835
5 11 13 -2.2864 -0.2895
5 11 14 7.8885 0.0149
5 11 15 -2.8245 -0.3633
5 11 16 0.5574 0.1354
5 11 17 4.2830 0.0333
5 11 18 3.6959 0.2769
5 11 19 9.7045 -0.3061
5 11 20 11.1261 -0.0895
5 13 0 -5.4273 -0.1166
5 13 1 -5.7892 -0.0113
5 13 2 -1.2016 -0.0020
5 13 3 -3.6105 -0.0722
5 13 4 -6.2817 0.0587
5 13 5 0.5063 -0.0984
5 13 6 -5.5665 0.0922
5 13 7 0.6190 0.1988
5 13 8 -1.8768 -0.1255
5 13 9 0.8719 -0.1267
5 13 10 1.3283 0.0507
5 13 11 -4.9667 -0.2785
5 13 12 6.4005 -0.4230
5 13 13 -6.8870 0.2062
5 13 14 8.6768 0.2149
5 13 15 7.8222 -0.2098
5 13 16 1.9238 0.0752
5 13 17 -3.9783 0.1062
5 13 18 11.6909 -0.1428
5 15 0 -1.8267 0.2925
5 15 1 -4.1562 -0.1868
5 15 2 -2.9037 -0.1527
5 15 3 -1.6739 0.0663
5 15 4 -7.2566 -0.1384
5 15 5 -0.1461 0.2592
5 15 6 -5.0011 -0.0868
5 15 7 -6.9554 -0.3859
5 15 8 -13.8094 -0.4881
5 15 9 6.3287 -0.1872
5 15 10 -6.9310 -0.0648
5 15 11 -5.8936 0.2829
5 15 12 -3.8066 -0.0808
6 0 0 56.3519 0.7704
6 0 2 -19.0284 -1.8747
6 0 4 -3.3895 0.1544
6 0 6 -30.0361 0.1300
6 0 8 24.4419 -5.9244
6 0 10 44.4349 4.7742
6 0 12 27.2769 1.5076
6 0 14 20.6873 0.0054
6 0 16 8.4836 -4.2584
6 0 18 5.8264 2.5180
6 0 20 5.6892 -1.0405
6 0 22 5.4323 0.7308
6 0 24 6.7337 1.2974
6 0 26 -1.5971 -1.5179
6 2 0 10.4258 -0.2184
6 2 1 28.5113 -0.7854
6 2 2 -19.7798 -0.9972
6 2 3 -16.1489 -1.0484
6 2 4 14.4271 -0.4891
6 2 5 -17.6932 -0.0672
6 2 6 22.2242 0.0904
6 2 7 1.0766 0.4236
6 2 8 18.4080 -0.2593
6 2 9 14.1132 0.4542
6 2 10 -2.7438 0.0788
6 2 11 12.9102 -0.3540
6 2 12 -9.0277 1.0273
6 2 13 8.8345 0.2114
6 2 14 3.4725 -0.2074
6 2 15 3.2056 -0.5046
6 2 16 4.0423 -0.5333
6 2 17 0.6904 0.0562
6 2 18 9.2668 0.0879
6 2 19 0.8356 0.3057
6 2 20 7.9154 0.2239
6 2 21 -4.7599 0.2485
6 2 22 2.4628 -0.0309
6 2 23 -0.1415 -0.4738
6 2 24 -5.2572 0.5212
6 2 25 4.8574 -0.1147
6 2 26 -5.3900 0.4268
6 4 0 36.6031 -0.2701
6 4 1 -14.6169 -0.6698
6 4 2 6.1575 0.1889
6 4 3 18.9932 0.2742
6 4 4 -2.2083 -0.2746
6 4 5 -1.3028 -0.1670
6 4 6 -28.2347 -0.0548
6 4 7 -2.5282 -0.6813
6 4 8 -18.9840 -0.0565
6 4 9 -0.0495 1.1832
6 4 10 -18.5928 0.1252
6 4 11 7.9296 0.4888
6 4 12 -9.7499 0.1941
6 4 13 3.0050 -0.9613
6 4 14 -6.9560 -0.0600
6 4 15 1.3231 -0.1657
6 4 16 -7.7516 0.1633
6 4 17 -6.9603 0.6791
6 4 18 -11.3492 0.0445
6 4 19 -3.7653 -0.2866
6 4 20 -9.5641 0.0727
6 4 21 -4.7325 -0.2212
6 4 22 -0.9399 0.0351
6 4 23 -1.8324 0.1659
6 4 24 3.6862 -0.1018
6 4 25 -2.5004 -0.5563
6 6 0 22.3441 -0.2838
6 6 1 16.0978 0.3536
6 6 2 -7.9669 0.1641
6 6 3 12.7640 -0.2949
6 6 4 14.2575 0.0144
6 6 5 6.3824 -0.1220
6 6 6 3.3149 -0.3209
6 6 7 23.0376 0.3859
6 6 8 12.5028 0.7178
6 6 9 12.4131 -0.1593
6 6 10 -1.5364 -0.0752
6 6 11 2.0399 0.2868
6 6 12 -9.8578 -0.1225
6 6 13 -5.0268 -0.1174
6 6 14 -10.6484 0.1688
6 6 15 -4.8750 -0.0805
6 6 16 -9.3534 0.1500
6 6 17 -0.1001 -0.1995
6 6 18 -8.2006 -0.2729
6 6 19 1.0392 0.3687
6 6 20 -5.7181 0.0716
6 6 21 -6.8141 -0.0247
6 6 22 -9.5398 -0.0547
6 6 23 -8.4173 -0.1564
6 6 24 9.1290 0.0218
6 8 0 12.4683 -0.0337
6 8 1 15.3024 -0.0057
6 8 2 -5.4418 0.0246
6 8 3 13.3831 0.0808
6 8 4 3.6823 0.1848
6 8 5 3.1477 0.1389
6 8 6 3.1229 0.1550
6 8 7 -4.7831 0.2935
6 8 8 6.0955 0.0622
6 8 9 -7.6222 -0.2284
6 8 10 2.4849 0.2583
6 8 11 -2.4563 -0.0776
6 8 12 3.4538 -0.6288
6 8 13 -1.6005 0.0606
6 8 14 5.7026 0.2501
6 8 15 3.7298 -0.0513
6 8 16 4.0032 0.0522
6 8 17 -7.0761 -0.1520
6 8 18 -1.8729 0.0481
6 8 19 -9.0101 -0.2943
6 8 20 5.3332 -0.2147
6 8 21 6.0112 -0.0999
6 8 22 3.6204 0.0427
6 10 0 -7.6625 0.1908
6 10 1 -0.2784 0.2026
6 10 2 -2.5719 -0.0960
6 10 3 -1.0675 0.0008
6 10 4 -2.2551 0.1524
6 10 5 -9.3226 0.0053
6 10 6 -0.5478 0.0972
6 10 7 -2.5316 0.1715
6 10 8 1.9844 -0.2352
6 10 9 -2.8962 -0.0414
6 10 10 7.1801 -0.1009
6 10 11 0.5725 -0.5300
6 10 12 13.7753 0.2033
6 10 13 5.7709 0.3059
6 10 14 6.3823 -0.1175
6 10 15 7.1617 -0.1367
6 10 16 2.9951 0.0320
6 10 17 -3.0774 0.0571
6 10 18 -1.3358 0.0689
6 10 19 -7.9351 0.0853
6 10 20 -2.9307 0.0869
6 10 21 -2.5505 0.2197
6 12 0 1.5931 0.0295
6 12 1 -2.3729 -0.1270
6 12 2 -3.6352 -0.0998
6 12 3 -2.6209 0.1007
6 12 4 -5.8744 -0.1357
6 12 5 -7.4841 -0.0140
6 12 6 -5.5988 0.0759
6 12 7 -6.5056 -0.2037
6 12 8 3.2810 -0.1201
6 12 9 -5.4051 -0.0696
6 12 10 5.5693 0.0335
6 12 11 -1.3801 0.1047
6 12 12 5.1818 0.1160
6 12 13 3.6624 -0.0531
6 12 14 -1.3187 -0.1109
6 12 15 -0.7417 0.6650
6 12 16 10.1120 0.1571
6 12 17 3.9465 0.0778
6 12 18 -3.2908 0.0467
6 12 19 2.7154 0.0440
6 14 0 3.4375 -0.2333
6 14 1 4.0128 0.0112
6 14 2 -0.5489 0.0034
6 14 3 1.2894 0.0419
6 14 4 2.2204 -0.0280
6 14 5 1.0795 0.0868
6 14 6 -0.8606 0.1101
6 14 7 8.0868 0.1056
6 14 8 3.1142 0.1167
6 14 9 -9.5946 0.5293
6 14 10 7.8735 -0.2443
6 14 11 -2.6069 -0.0783
6 14 12 7.8342 0.3561
6 14 13 -3.0262 -0.3322
6 14 14 3.6993 0.0995
6 16 0 1.6597 -0.8087
6 16 1 3.5642 0.0405
6 16 2 -1.8005 -0.0178
6 16 3 2.7472 -0.1027
6 16 4 5.1455 0.1953
6 16 5 2.3039 0.2344
7 1 0 -113.4511 -1.5544
7 1 1 -49.6985 1.1852
7 1 2 -19.5966 1.4970
7 1 3 -22.2471 0.4423
7 1 4 -50.1265 -0.7067
7 1 5 6.0807 -0.2481
7 1 6 -20.5416 -1.2722
7 1 7 24.9662 -0.1371
7 1 8 -15.3147 2.1547
7 1 9 2.5675 0.8810
7 1 10 3.6061 -0.8106
7 1 11 -15.8618 -0.2322
7 1 12 14.1130 -0.6622
7 1 13 -15.4828 -0.3561
7 1 14 6.1244 0.1505
7 1 15 -5.0606 -0.1036
7 1 16 3.2766 2.0394
7 1 17 -3.4751 0.5731
7 1 18 0.3720 -2.1771
7 1 19 -3.4200 -0.3059
7 1 20 -0.5168 0.4643
7 1 21 1.5792 0.0099
7 1 22 -1.4666 0.4995
7 1 23 1.7761 -0.1753
7 1 24 1.4217 -0.2665
7 1 25 -1.8370 0.1760
7 1 26 4.5254 0.1287
7 3 0 -18.1181 0.4260
7 3 1 9.0351 1.2677
7 3 2 3.3622 -0.0855
7 3 3 13.5248 -0.0864
7 3 4 13.4808 0.6092
7 3 5 2.6008 -0.3173
7 3 6 18.3774 -0.0564
7 3 7 -14.0929 0.4777
7 3 8 -10.5870 -0.4317
7 3 9 -10.0386 -0.8995
7 3 10 -4.7185 0.3239
7 3 11 -4.4863 0.2524
7 3 12 -1.8938 0.0822
7 3 13 1.7353 0.1101
7 3 14 -2.7898 0.0675
7 3 15 -1.2610 0.4384
7 3 16 -1.8095 -0.1326
7 3 17 -2.9717 -0.8323
7 3 18 -0.9316 0.3698
7 3 19 -10.7634 0.4591
7 3 20 -1.5905 -0.4292
7 3 21 -6.1144 -0.2851
7 3 22 1.2630 -0.1011
7 3 23 -4.4574 -0.0522
7 3 24 5.3089 0.3652
7 3 25 5.7896 -0.0368
7 5 0 41.5606 0.5789
7 5 1 -1.4377 -0.3177
7 5 2 42.0756 -0.0017
7 5 3 -0.8587 -0.0913
7 5 4 1.2348 -0.1629
7 5 5 17.6930 -0.0667
7 5 6 11.8490 -0.0347
7 5 7 10.7642 -0.0821
7 5 8 3.7540 -0.0572
7 5 9 15.7756 0.1760
7 5 10 3.9192 0.0491
7 5 11 10.3922 -0.4537
7 5 12 -8.3690 -0.0479
7 5 13 3.4950 0.4000
7 5 14 -9.6647 0.4175
7 5 15 -5.2349 -0.2828
7 5 16 -9.8844 -0.1474
7 5 17 -3.2577 -0.0703
7 5 18 -0.3426 -0.0727
7 5 19 -5.0776 -0.2018
7 5 20 2.6494 -0.0115
7 5 21 0.5815 0.3597
7 5 22 -2.0878 0.1995
7 5 23 -3.6726 -0.2207
7 5 24 -4.1705 -0.2227
7 7 0 -8.6057 0.3480
7 7 1 3.3964 -0.4275
7 7 2 18.1503 -0.0755
7 7 3 2.8577 -0.0037
7 7 4 4.8227 -0.2192
7 7 5 2.9083 0.0230
7 7 6 8.9551 0.2413
7 7 7 -2.5872 0.0237
7 7 8 -5.7724 -0.3048
7 7 9 0.0598 0.0389
7 7 10 -2.1839 -0.1262
7 7 11 1.6652 -0.0881
7 7 12 0.0755 0.5604
7 7 13 4.0715 -0.0937
7 7 14 -0.0083 -0.3548
7 7 15 -2.5915 0.0386
7 7 16 -2.0815 0.0866
7 7 17 0.8941 0.3382
7 7 18 -5.6449 0.1531
7 7 19 1.9616 0.2193
7 7 20 -13.3982 0.0318
7 7 21 6.4935 0.0730
7 7 22 1.8797 -0.4027
7 7 23 18.1993 0.0855
7 9 0 -6.8526 -0.0999
7 9 1 -7.7250 -0.1292
7 9 2 -5.4288 0.2749
7 9 3 -7.1954 -0.1836
7 9 4 -7.5703 0.0210
7 9 5 -5.0109 0.2629
7 9 6 -6.1542 -0.0829
7 9 7 -10.4131 -0.1116
7 9 8 3.1196 0.1623
7 9 9 -10.0648 0.2251
7 9 10 11.1135 0.0881
7 9 11 -7.6111 0.0842
7 9 12 5.4659 0.0883
7 9 13 0.8306 -0.2030
7 9 14 7.4534 0.0823
7 9 15 -4.5099 0.2158
7 9 16 0.4363 0.0433
7 9 17 4.0713 0.0839
7 9 18 3.6774 -0.0264
7 9 19 7.7493 0.2377
7 9 20 3.2172 0.0129
7 9 21 -2.4799 -0.1025
7 11 0 0.9919 -0.1193
7 11 1 -0.5050 -0.0472
7 11 2 -2.4933 -0.0115
7 11 3 -5.3597 -0.0599
7 11 4 -2.2205 0.1148
7 11 5 -1.7873 0.0658
7 11 6 2.6100 -0.0570
7 11 7 -6.2836 0.2336
7 11 8 1.3567 0.2221
7 11 9 -5.1376 0.0307
7 11 10 4.3051 -0.1166
7 11 11 -9.6408 0.1841
7 11 12 -0.3639 -0.0631
7 11 13 -10.4810 -0.3219
7 11 14 2.9019 0.0685
7 11 15 -7.9293 -0.2032
7 11 16 -5.1525 -0.1651
7 11 17 1.0533 0.0231
7 11 18 3.6826 -0.0852
7 11 19 -0.1215 -0.1054
7 13 0 -0.4914 -0.2787
7 13 1 -0.5616 0.2093
7 13 2 2.1906 -0.0712
7 13 3 0.4429 0.0434
7 13 4 1.7839 0.2930
7 13 5 1.7996 0.0905
7 13 6 7.7316 0.1927
7 13 7 -6.8769 0.1872
7 13 8 7.3052 0.1141
7 13 9 -3.8801 -0.2740
7 13 10 1.0654 0.2286
7 13 11 -7.5596 -0.1827
7 13 12 -1.6115 -0.4914
7 13 13 -6.2109 0.2607
7 13 14 4.5796 -0.3186
7 13 15 -0.4418 -0.3396
7 13 16 -3.3916 -0.5311
7 15 0 -3.4758 0.4533
7 15 1 -5.1864 -0.1177
7 15 2 5.8262 -0.2729
7 15 3 -4.0782 0.0759
7 15 4 2.3668 -0.0581
7 15 5 -0.0478 -0.0144
7 15 9 -0.3644 -0.3943
7 15 10 9.7679 0.3078
7 15 11 -14.4944 -0.0702
8 0 0 49.6153 10.3144
8 0 2 -96.1319 -1.2527
8 0 4 -42.1586 -0.1109
8 0 6 -17.1581 0.6241
8 0 8 21.9959 -1.4583
8 0 10 5.0875 2.1627
8 0 12 -12.1223 1.3039
8 0 14 -7.6121 -0.2142
8 0 16 -1.6290 -4.9362
8 0 18 -3.9159 4.0607
8 0 20 -5.4292 -0.1781
8 0 22 -1.7446 0.1243
8 0 24 1.4182 -0.7346
8 2 0 12.6829 1.1702
8 2 1 71.7898 -1.2741
8 2 2 5.2598 0.4933
8 2 3 36.1628 -0.3595
8 2 4 25.7738 -0.1419
8 2 5 41.7048 0.5120
8 2 6 -6.4722 0.0039
8 2 7 30.3187 0.5550
8 2 8 -1.2652 -0.0990
8 2 9 9.8596 -0.0913
8 2 10 1.0517 -0.0772
8 2 11 1.4472 -0.5914
8 2 12 7.8937 0.3736
8 2 13 -1.2383 -0.0046
8 2 14 10.1773 -0.2754
8 2 15 -4.1908 -0.3097
8 2 16 4.4311 -0.4518
8 2 17 -2.3459 0.4685
8 2 18 -1.2415 -0.0193
8 2 19 -0.2328 0.2162
8 2 20 -0.3053 0.3118
8 2 21 -8.1504 -0.0786
8 2 22 -2.4348 -0.2837
8 2 23 -1.4034 -0.7067
8 2 24 -8.0011 -0.1938
8 2 25 0.3534 -0.1697
8 4 0 0.6216 0.1107
8 4 1 47.9360 -0.6554
8 4 2 -8.6644 0.3767
8 4 3 27.9698 -0.0053
8 4 4 15.0340 0.1741
8 4 5 -4.3068 0.1490
8 4 6 12.1397 0.2520
8 4 7 4.1899 -0.1703
8 4 8 24.1644 -0.3901
8 4 9 9.5386 0.3284
8 4 10 11.5333 -0.0825
8 4 11 6.8809 -0.0686
8 4 12 10.9160 0.0935
8 4 13 -4.2832 -0.7746
8 4 14 0.2331 -0.1332
8 4 15 -4.4238 0.0275
8 4 16 -0.2219 0.1428
8 4 17 -7.2026 0.8184
8 4 18 -1.7530 -0.0212
8 4 19 -1.1897 -0.1324
8 4 20 0.9813 0.0631
8 4 21 -5.1219 -0.1702
8 4 22 6.3512 0.0045
8 4 23 -1.7712 0.0217
8 4 24 2.1075 -0.2456
8 6 0 22.0246 -0.3371
8 6 1 -20.9236 0.0676
8 6 2 3.6843 0.2527
8 6 3 -5.8655 -0.2489
8 6 4 18.8981 0.3046
8 6 5 0.1751 0.1014
8 6 6 1.3898 -0.1672
8 6 7 6.2955 0.1705
8 6 8 2.1982 0.1875
8 6 9 -1.7972 -0.0758
8 6 10 -7.6365 -0.3973
8 6 11 -2.2150 0.0128
8 6 12 -3.6264 -0.2626
8 6 13 2.8524 -0.2835
8 6 14 -0.6498 0.3532
8 6 15 12.7469 0.0290
8 6 16 2.6943 0.4115
8 6 17 6.3752 -0.0984
8 6 18 -1.5588 -0.1326
8 6 19 0.9226 0.4212
8 6 20 2.1971 -0.1845
8 6 21 -10.0620 -0.1483
8 6 22 5.8106 -0.2959
8 6 23 -5.9287 -0.2917
8 8 0 12.3684 0.0857
8 8 1 -1.5823 0.0727
8 8 2 -3.3782 -0.0092
8 8 3 -8.0273 0.0980
8 8 4 0.7580 0.0704
8 8 5 -13.8204 0.1318
8 8 6 -1.5476 -0.1054
8 8 7 -15.9871 0.1604
8 8 8 -3.6567 -0.0908
8 8 9 -8.0576 -0.1365
8 8 10 -12.5339 0.0835
8 8 11 1.6881 0.0640
8 8 12 -7.2157 -0.3615
8 8 13 -1.8322 -0.0239
8 8 14 -2.1200 0.2755
8 8 15 5.9911 -0.0938
8 8 16 7.1403 0.0276
8 8 17 -2.3548 -0.0253
8 8 18 5.9990 0.0407
8 8 19 -1.7172 0.0168
8 8 20 8.1634 -0.3043
8 8 21 8.5083 0.2250
8 8 22 -1.3830 0.2744
8 10 0 -2.3797 -0.0006
8 10 1 5.7816 0.1567
8 10 2 0.7044 -0.0653
8 10 3 4.6584 0.1656
8 10 4 0.3669 0.0278
8 10 5 -3.1783 -0.2204
8 10 6 2.8931 0.0167
8 10 7 0.2312 0.1426
8 10 8 6.5536 -0.1418
8 10 9 -1.8558 0.0247
8 10 10 0.9631 -0.0713
8 10 11 1.7450 -0.2795
8 10 12 1.4527 0.0324
8 10 13 -4.0867 0.4034
8 10 14 -9.6615 -0.1686
8 10 15 -2.2494 -0.0656
8 10 16 -2.4046 0.2932
8 10 17 -11.6745 0.0820
8 10 18 -6.3086 0.3512
8 10 19 -8.3773 0.1226
8 10 20 -10.9815 0.6016
8 12 0 -4.9819 0.1054
8 12 1 -1.5905 -0.1908
8 12 2 -1.6125 0.0814
8 12 3 -1.9410 0.0419
8 12 4 4.0061 -0.1519
8 12 5 -3.5309 0.1753
8 12 6 3.1326 0.1139
8 12 7 -0.0040 -0.0707
8 12 8 5.4355 -0.1870
8 12 9 -4.3467 0.0179
8 12 10 2.7833 0.0555
8 12 11 -2.5599 0.0377
8 12 12 3.1072 0.2930
8 12 13 -3.9881 -0.0211
8 12 14 -7.7379 0.0111
8 12 15 -0.1872 0.5384
8 12 16 -4.5986 0.2363
8 12 17 4.9215 0.1925
8 12 18 -16.0208 0.4298
8 14 0 -0.6748 -0.2966
8 14 1 -4.8401 -0.0906
8 14 2 -6.9376 0.0166
8 14 3 -0.9587 0.0812
8 14 4 -1.0616 0.0048
8 14 5 -1.4674 -0.0308
8 14 6 1.2542 -0.0223
8 14 7 6.1062 -0.1017
8 14 8 9.4093 0.2032
8 14 9 -6.0525 0.3497
8 14 10 5.7561 0.0428
8 14 11 7.0229 0.1264
8 14 12 0.1249 0.2537
8 14 13 3.5808 0.3834
8 14 14 -8.9341 -0.0393
8 16 0 0.9801 -1.1175
9 1 0 -23.5485 -2.6760
9 1 1 -25.0195 -2.1390
9 1 2 51.1559 2.0537
9 1 3 44.0296 0.5150
9 1 4 12.3559 0.5151
9 1 5 37.4516 0.1620
9 1 6 26.7687 -0.3771
9 1 7 7.1802 -0.5786
9 1 8 10.3582 -0.2223
9 1 9 -8.6784 0.4099
9 1 10 8.0094 0.3318
9 1 11 -2.5617 0.1549
9 1 12 5.0423 -0.6766
9 1 13 1.4765 -0.6526
9 1 14 1.3014 -0.3550
9 1 15 4.4579 0.0304
9 1 16 -1.0036 1.9723
9 1 17 -0.7640 0.9447
9 1 18 2.5323 -1.6978
9 1 19 -1.3431 -0.4389
9 1 20 -0.9722 0.1535
9 1 21 5.8519 -0.2084
9 1 22 -4.4945 0.3598
9 1 23 1.7575 -0.0201
9 1 24 2.0748 0.2589
9 1 25 -2.9231 0.0470
9 1 26 -1.4638 -1.0718
9 1 27 2.8254 -0.3087
9 3 0 -4.1329 0.1437
9 3 1 -10.4544 0.9808
9 3 2 9.4010 0.1052
9 3 3 -0.9203 -0.3690
9 3 4 -10.2511 0.2099
9 3 5 9.1382 0.3166
9 3 6 -12.1181 -0.3986
9 3 7 12.9132 0.4396
9 3 8 -16.4082 0.1001
9 3 9 11.7008 -0.1593
9 3 10 5.0832 0.0474
9 3 11 0.6158 -0.1747
9 3 12 1.8546 -0.0091
9 3 13 -2.9352 0.2354
9 3 14 0.1969 0.1971
9 3 15 -6.7723 0.5050
9 3 16 -3.1412 -0.1568
9 3 17 -4.6629 -0.7267
9 3 18 1.0852 0.2348
9 3 19 -3.8661 0.6660
9 3 20 0.1672 -0.2324
9 3 21 4.2216 -0.1057
9 3 22 2.0652 0.2567
9 3 23 1.3347 -0.0729
9 3 24 5.9413 0.1887
9 5 0 -21.5073 0.3630
9 5 1 10.7383 0.0034
9 5 2 -23.6533 -0.3964
9 5 3 4.4620 0.1689
9 5 4 -22.6682 -0.1702
9 5 5 3.2614 -0.3684
9 5 6 3.6237 -0.2250
9 5 7 -8.4448 0.2812
9 5 8 -1.8112 0.1140
9 5 9 -8.2387 0.2884
9 5 10 -1.4874 0.2734
9 5 11 -6.9004 -0.3573
9 5 12 -7.7836 0.0968
9 5 13 -1.0369 -0.0026
9 5 14 1.8937 0.0294
9 5 15 -1.3711 -0.0618
9 5 16 5.6264 -0.2609
9 5 17 1.7439 0.1348
9 5 18 6.4343 0.0626
9 5 19 -5.6631 -0.2780
9 5 20 6.0671 -0.0093
9 5 21 1.2430 0.1861
9 5 22 -0.4673 0.1107
9 5 23 -1.7891 -0.4051
9 7 0 -4.4626 0.1963
9 7 1 -3.5107 -0.0650
9 7 2 14.3838 -0.1101
9 7 3 -8.1262 0.1727
9 7 4 -1.8577 -0.4359
9 7 5 -9.7125 -0.0277
9 7 6 -5.1060 0.3866
9 7 7 -2.6679 0.1101
9 7 8 -12.1554 -0.1103
9 7 9 1.9650 0.0273
9 7 10 -3.6794 -0.1749
9 7 11 1.3178 0.0140
9 7 12 -1.9436 0.3277
9 7 13 2.6494 -0.0688
9 7 14 -6.9632 -0.2099
9 7 15 -3.7935 -0.2067
9 7 16 -16.5884 -0.1314
9 7 17 3.8283 0.1246
9 7 18 -10.4468 -0.0224
9 7 19 9.9726 0.0540
9 7 20 -5.9638 0.2871
9 7 21 9.2030 0.1164
9 7 22 6.5636 -0.2138
9 9 0 0.8319 -0.0600
9 9 1 -10.2413 -0.1303
9 9 2 0.0196 0.0673
9 9 3 -8.8616 0.0003
9 9 4 1.0666 0.0894
9 9 5 -4.9944 0.5247
9 9 6 3.3294 -0.1520
9 9 7 0.5312 -0.1558
9 9 8 5.2363 -0.0062
9 9 9 6.3092 0.0238
9 9 10 8.0156 0.0184
9 9 11 3.0753 -0.0353
9 9 12 -2.7558 -0.0261
9 9 13 6.7276 -0.2566
9 9 14 -1.5605 0.2091
9 9 15 -6.6775 0.0474
9 9 16 -12.2314 -0.0581
9 9 17 1.1987 0.0873
9 9 18 -9.6158 -0.4402
9 9 19 0.3062 0.1426
9 9 20 -4.6144 -0.4176
9 11 0 2.4073 -0.1981
9 11 1 -6.1437 -0.0074
9 11 2 -6.9544 -0.0153
9 11 3 -4.2371 -0.0228
9 11 4 -5.9601 0.1401
9 11 5 4.4771 0.0002
9 11 6 1.3735 -0.0283
9 11 7 3.4220 -0.0334
9 11 8 -2.4103 0.0713
9 11 9 5.2323 -0.2190
9 11 10 -3.3548 -0.2414
9 11 11 -1.9786 0.2120
9 11 12 -11.2366 -0.1471
9 11 13 2.7303 0.0827
9 11 14 -1.9581 0.1490
9 11 15 -4.8847 -0.2200
9 11 16 -1.7599 -0.1542
9 11 17 -5.4745 -0.7288
9 11 18 11.5913 -0.3994
9 11 19 -6.8389 -0.5701
9 13 0 -1.8180 -0.2821
9 13 1 3.3228 0.2446
9 13 2 0.7228 -0.0072
9 13 3 2.1821 -0.1383
9 13 4 0.0033 0.2582
9 13 5 1.9387 -0.0972
9 13 6 0.5629 -0.0684
9 13 7 -1.7994 0.0708
9 13 8 -3.4333 -0.1106
9 13 9 8.4719 -0.1833
9 13 10 -2.4505 0.2287
9 13 11 0.2368 -0.0416
9 13 12 -0.2240 -0.0183
9 13 13 -0.2544 0.0742
9 13 14 8.1097 0.1351
9 13 15 -4.9547 -0.4988
9 15 0 4.8532 0.6181
9 15 1 -0.2524 0.1057
9 15 9 -0.5633 -0.5950
9 15 10 -1.9799 0.2346
10 0 0 -1.5728 4.4295
10 0 2 -51.4746 -6.9857
10 0 4 34.9022 -1.2811
10 0 6 30.0038 0.4630
10 0 8 12.7735 2.7802
10 0 10 -7.4222 -0.6319
10 0 12 -4.3807 0.8624
10 0 14 -1.6657 -0.5710
10 0 16 1.3804 -3.2929
10 0 18 -4.8542 3.8664
10 0 20 -1.5331 0.1336
10 0 22 4.7285 -0.4338
10 0 24 1.0990 -1.8119
10 0 26 4.0977 1.1600
10 2 0 29.1821 1.0083
10 2 1 37.1799 -1.0060
10 2 2 -6.7315 -0.4241
10 2 3 5.1668 -0.1306
10 2 4 -7.9090 -1.4034
10 2 5 4.4475 -0.1511
10 2 6 -8.7381 0.2423
10 2 7 -0.7409 0.7446
10 2 8 15.4244 0.9562
10 2 9 0.1812 0.0718
10 2 10 11.9592 0.0500
10 2 11 6.5708 -0.5203
10 2 12 5.9809 -0.0292
10 2 13 6.3158 -0.0697
10 2 14 -0.3535 0.1220
10 2 15 0.3417 0.1665
10 2 16 -2.3333 -0.3516
10 2 17 -1.1879 0.2671
10 2 18 -6.6179 -0.2583
10 2 19 -1.8934 -0.2417
10 2 20 -2.5075 0.5814
10 2 21 -5.5656 0.0877
10 2 22 -3.0259 -0.1487
10 2 23 6.2858 -0.1594
10 2 24 -6.3815 -0.3817
10 2 25 2.6706 0.2824
10 2 26 7.7747 0.0690
10 4 0 -10.6931 0.0292
10 4 1 12.4399 -0.7960
10 4 2 5.7975 -0.0877
10 4 3 -2.4220 -0.0609
10 4 4 13.2966 -0.2408
10 4 5 2.3348 0.8918
10 4 6 -2.8845 -0.0877
10 4 7 15.6822 0.2061
10 4 8 -2.3577 -0.2411
10 4 9 8.5640 -0.4565
10 4 10 -9.0036 0.4292
10 4 11 -1.4594 0.1820
10 4 12 2.1992 0.2741
10 4 13 -7.6296 -0.1138
10 4 14 1.7124 -0.2869
10 4 15 -0.5490 -0.1927
10 4 16 3.9362 -0.0533
10 4 17 3.0746 0.6857
10 4 18 0.7734 -0.1293
10 4 19 3.5247 0.0887
10 4 20 -5.9924 0.0681
10 4 21 -1.1317 -0.4590
10 4 22 -4.2889 0.3010
10 4 23 5.6184 -0.0890
10 6 0 1.2616 -0.5947
10 6 1 10.2702 0.0750
10 6 2 -13.0096 0.1484
10 6 3 18.8096 -0.0560
10 6 4 -3.8966 0.3417
10 6 5 9.6311 0.3207
10 6 6 -7.7855 -0.0643
10 6 7 -1.9663 0.0477
10 6 8 -0.7953 -0.1334
10 6 9 -7.6777 0.0014
10 6 10 -0.1916 0.0869
10 6 11 -4.7674 -0.3773
10 6 12 0.5202 0.1557
10 6 13 -1.4272 -0.0221
10 6 14 -3.8183 0.2420
10 6 15 0.1239 0.3824
10 6 16 -3.7298 -0.0109
10 6 17 -7.6890 -0.0526
10 6 18 -2.8818 -0.4157
10 6 19 -2.5229 0.2716
10 6 20 1.8134 -0.1345
10 6 21 -5.7188 -0.0800
10 6 22 1.8273 0.4143
10 8 0 1.7641 0.2000
10 8 1 -1.5038 0.0320
10 8 2 -3.2612 0.1256
10 8 3 -8.7475 0.0538
10 8 4 -0.2074 0.3116
10 8 5 -5.1981 -0.0092
10 8 6 -0.9778 -0.0658
10 8 7 -3.4822 -0.1683
10 8 8 -2.1143 -0.0924
10 8 9 3.4799 -0.0656
10 8 10 -7.1248 0.0048
10 8 11 8.0637 0.1086
10 8 12 -5.0815 0.1017
10 8 13 1.9129 0.0062
10 8 14 -5.3441 0.0130
10 8 15 11.4951 0.0748
10 8 16 2.0130 -0.1220
10 8 17 9.9733 -0.0366
10 8 18 0.8441 0.0412
10 8 19 2.1596 -0.0749
10 8 20 -6.1025 -0.3684
10 8 21 1.4086 0.1405
10 10 0 -1.0797 0.1072
10 10 1 0.8156 -0.0611
10 10 2 3.7435 0.0062
10 10 3 0.1803 0.1334
10 10 4 5.0391 -0.2210
10 10 5 -2.1602 -0.3816
10 10 6 4.9271 -0.0328
10 10 7 0.2949 0.1777
10 10 8 5.3876 0.0128
10 10 9 -0.2008 0.1224
10 10 10 -3.1735 -0.0099
10 10 11 8.3878 -0.1686
10 10 12 0.9480 0.1775
10 10 13 0.2281 -0.0679
10 10 14 -7.0529 -0.0235
10 10 15 10.4662 -0.2301
10 10 16 -0.1968 0.0025
10 10 17 6.9294 0.2042
10 10 18 -8.3282 -0.2010
10 10 19 13.3148 0.1536
10 12 0 -1.2404 0.2312
10 12 1 3.0532 -0.0886
10 12 2 6.1693 0.0435
10 12 3 6.8724 0.0022
10 12 4 6.5824 -0.2032
10 12 5 4.1530 0.1996
10 12 6 -0.0639 0.2498
10 12 7 0.0367 -0.1591
10 12 8 1.7550 0.1439
10 12 9 -6.5463 0.0598
10 12 10 1.0770 0.0631
10 12 11 7.1626 0.0945
10 12 12 1.6309 -0.1892
10 12 13 6.1665 -0.1699
10 12 14 -8.4047 -0.3334
10 12 15 15.3970 -0.1447
10 12 16 -8.0684 0.3064
10 12 17 15.2229 0.0992
10 14 0 -3.1019 -0.1937
10 14 1 5.2667 -0.1350
10 14 2 -8.0315 0.2409
10 14 3 5.7347 0.1292
10 14 4 0.3133 0.2095
10 14 5 -1.8213 0.0102
10 14 6 1.9404 -0.0984
10 14 7 -0.9020 -0.1712
10 14 8 5.5400 0.0852
10 14 9 -9.1695 0.3051
10 14 10 -4.8469 -0.2448
10 14 11 -0.7785 0.0410
11 1 0 -1.5554 -3.4485
11 1 1 7.3520 -0.3792
11 1 2 41.7608 1.4308
11 1 3 15.6659 1.3986
11 1 4 16.5183 0.4566
11 1 5 -16.8473 -0.0609
11 1 6 16.4081 0.0194
11 1 7 -16.8679 -0.8263
11 1 8 6.4881 -1.6381
11 1 9 0.1255 -0.1122
11 1 10 8.5236 2.1208
11 1 11 9.1223 0.3758
11 1 12 6.9722 -0.3008
11 1 13 1.9352 -0.4144
11 1 14 5.2675 -0.7004
11 1 15 0.8594 0.2887
11 1 16 0.8398 1.0177
11 1 17 -2.0624 0.5581
11 1 18 2.4184 -0.8730
11 1 19 0.6795 -0.5637
11 1 20 -1.9298 -0.2206
11 1 21 3.9461 -0.1183
11 1 22 -1.3731 0.4526
11 1 23 -3.3400 0.2847
11 1 24 6.7045 1.0707
11 1 25 -3.0713 0.2025
11 1 26 -3.5891 -0.8125
11 3 0 15.5455 0.3472
11 3 1 -32.0956 0.6739
11 3 2 -6.2698 -0.0083
11 3 3 -0.0472 -0.2199
11 3 4 -14.9493 0.1579
11 3 5 7.9843 0.2254
11 3 6 -4.5176 0.0414
11 3 7 -0.0436 -0.8189
11 3 8 -2.8872 0.2394
11 3 9 -6.1012 0.3180
11 3 10 -0.0422 -0.4060
11 3 11 -9.4574 -0.2336
11 3 12 -11.8827 0.2502
11 3 13 -3.4457 0.3105
11 3 14 -8.4635 0.0527
11 3 15 0.6768 0.2961
11 3 16 -2.3044 -0.5906
11 3 17 3.4772 -0.3943
11 3 18 6.6282 0.1375
11 3 19 8.6401 0.3950
11 3 20 7.3964 -0.0562
11 3 21 11.6668 -0.0524
11 3 22 7.2287 -0.1217
11 3 23 -1.4344 0.2170
11 3 24 6.5864 -0.1915
11 3 25 1.2112 0.0032
11 5 0 -16.3102 0.4281
11 5 1 -3.4180 -0.2621
11 5 2 -8.8560 0.0014
11 5 3 -14.1340 0.1288
11 5 4 -8.8346 -0.0749
11 5 5 -12.4942 -0.5704
11 5 6 -12.1392 -0.5308
11 5 7 -7.9079 0.2339
11 5 8 -19.2823 0.3261
11 5 9 -2.2021 -0.0815
11 5 10 -14.0783 0.1646
11 5 11 2.0689 -0.0263
11 5 12 -8.3727 -0.1941
11 5 13 2.5255 -0.1415
11 5 14 -0.6838 -0.1650
11 5 15 -4.4374 0.2343
11 5 16 1.1433 -0.0470
11 5 17 -4.2827 0.1065
11 5 18 -3.9237 -0.0147
11 5 19 -3.2760 -0.4732
11 5 20 7.7275 0.0267
11 5 21 7.9925 -0.0388
11 5 22 3.1463 0.3382
11 5 23 0.1299 -0.2472
11 7 0 -5.0839 -0.0748
11 7 1 -2.4894 0.0581
11 7 2 -7.8323 -0.0073
11 7 3 1.2083 0.0563
11 7 4 -16.6269 -0.3532
11 7 5 -0.3017 -0.0119
11 7 6 -12.1036 0.3862
11 7 7 4.6579 0.2369
11 7 8 -3.8376 0.0161
11 7 9 2.0464 -0.1929
11 7 10 5.0504 -0.0302
11 7 11 -1.1135 -0.0930
11 7 12 8.4702 0.0602
11 7 13 -1.4991 0.0482
11 7 14 5.4260 -0.0256
11 7 15 -2.0424 -0.0521
11 7 16 2.8968 -0.2139
11 7 17 -0.9643 0.2295
11 7 18 6.2442 0.0668
11 7 19 5.3330 0.1150
11 7 20 3.4257 0.7340
11 7 21 0.9434 -0.1438
11 9 0 -7.4259 0.0064
11 9 1 -5.5788 -0.1225
11 9 2 -1.9580 -0.1712
11 9 3 -4.3181 -0.1961
11 9 4 3.5524 0.1678
11 9 5 -3.0934 0.3185
11 9 6 5.6474 -0.0474
11 9 7 1.6609 0.0116
11 9 8 3.4319 0.0143
11 9 9 0.9403 0.1002
11 9 10 8.1492 0.0855
11 9 11 -8.9242 -0.0927
11 9 12 6.6743 -0.1951
11 9 13 0.0793 -0.0617
11 9 14 9.4216 0.0974
11 9 15 -6.7859 0.1949
11 9 16 -2.0974 0.1092
11 9 17 -2.7580 0.2630
11 9 18 -6.7451 0.1680
11 11 0 3.2099 -0.1838
11 11 1 -2.6770 -0.0679
11 11 2 -0.3404 0.0471
11 11 3 0.6362 0.1062
11 11 4 5.0107 0.0468
11 11 5 0.6185 0.1301
11 11 6 8.9489 -0.2025
11 11 7 -2.6397 0.0923
11 11 8 0.3199 -0.2536
11 11 9 -0.0545 -0.1045
11 11 10 -1.1626 -0.2110
11 11 11 -12.4947 -0.0010
11 11 12 -3.3306 0.1226
11 11 13 -5.4226 -0.0831
11 11 14 7.2964 0.2980
11 11 15 -15.3353 -0.0339
11 11 16 6.4899 -0.0569
11 13 0 0.7241 -0.0788
11 13 1 2.4631 0.2101
11 13 2 1.3141 -0.0342
11 13 3 -1.6028 0.2652
11 13 4 -1.7786 0.0042
11 13 5 -1.7432 -0.0161
11 13 6 -2.2142 -0.1360
11 13 7 -1.6441 0.0207
11 13 8 -3.8013 -0.1491
11 13 9 1.9430 -0.0817
11 13 10 0.0599 0.2008
11 13 11 -12.7764 0.3237
11 13 12 -4.8627 0.1323
11 13 13 -4.5031 0.5664
11 13 14 -3.7241 0.2086
11 13 15 -7.0608 0.2529
11 15 9 0.2670 0.2328
12 0 0 20.0140 2.5100
12 0 2 -6.2394 -4.5735
12 0 4 4.1173 -0.2246
12 0 6 -16.8108 -0.0105
12 0 8 -13.4968 4.8545
12 0 10 -1.3694 -3.8651
12 0 12 7.0610 -0.0269
12 0 14 1.7033 -0.1469
12 0 16 1.2265 -0.5299
12 0 18 -0.0788 1.7461
12 0 20 6.9152 0.4241
12 0 22 7.0570 -0.3792
12 0 24 -0.3621 -1.6341
12 0 26 4.9865 2.1490
12 2 0 -15.8781 -0.5312
12 2 1 17.2187 0.2409
12 2 2 -17.6128 -0.9380
12 2 3 -20.1035 0.0832
12 2 4 -1.5612 -0.6343
12 2 5 -20.7989 -0.5897
12 2 6 11.3835 0.5436
12 2 7 -16.4267 0.4746
12 2 8 9.9860 0.5783
12 2 9 -10.8464 -0.7128
12 2 10 -2.7910 -0.2984
12 2 11 -9.9304 -0.6041
12 2 12 -5.6968 -0.5377
12 2 13 -8.4531 0.3799
12 2 14 -2.5977 0.1133
12 2 15 -5.3513 0.7473
12 2 16 2.1025 0.0748
12 2 17 0.8676 0.0021
12 2 18 2.7614 0.0718
12 2 19 0.2490 -0.3490
12 2 20 6.9368 0.5752
12 2 21 -0.2151 -0.1180
12 2 22 5.6085 -0.1654
12 2 23 11.0344 -0.4593
12 2 24 0.0711 -0.4807
12 2 25 1.4296 -0.1293
12 4 0 5.9377 0.2132
12 4 1 -5.9609 -0.4561
12 4 2 18.8260 -0.3068
12 4 3 -3.1401 0.1563
12 4 4 3.0115 -0.1616
12 4 5 -2.9845 0.6029
12 4 6 -6.8326 0.2137
12 4 7 -11.5130 -0.2098
12 4 8 -6.0522 -0.0868
12 4 9 -16.3091 -0.8860
12 4 10 -6.1481 0.0045
12 4 11 -11.5015 0.3052
12 4 12 4.5414 -0.0617
12 4 13 -4.8583 0.3503
12 4 14 5.6809 -0.2077
12 4 15 0.1798 0.0088
12 4 16 -1.8727 0.0663
12 4 17 -0.0044 0.4799
12 4 18 -0.8884 0.0974
12 4 19 -6.9858 -0.0593
12 4 20 -10.4914 0.1192
12 4 21 -5.6766 -0.4873
12 4 22 -7.4355 0.0474
12 4 23 7.0747 0.1271
12 6 0 -5.7543 -0.4552
12 6 1 7.9352 -0.0729
12 6 2 -0.6450 0.1590
12 6 3 1.2364 0.1198
12 6 4 3.5592 0.1646
12 6 5 0.3811 0.5114
12 6 6 3.0703 -0.0233
12 6 7 1.4942 -0.0778
12 6 8 0.8575 -0.3202
12 6 9 6.1140 0.0616
12 6 10 1.7860 0.1560
12 6 11 7.2242 -0.3846
12 6 12 -2.9466 -0.0216
12 6 13 5.1935 0.2529
12 6 14 -1.2642 0.0546
12 6 15 2.9248 0.2295
12 6 16 0.4580 0.0897
12 6 17 5.1273 -0.2334
12 6 18 5.2200 -0.0179
12 6 19 4.6753 -0.0473
12 6 20 -1.0927 0.1341
12 6 21 -5.5002 -0.1773
12 8 0 3.6643 0.2960
12 8 1 -2.0138 0.3497
12 8 2 -4.5179 0.1169
12 8 3 1.3840 0.1517
12 8 4 -7.3224 0.1010
12 8 5 8.2047 0.0003
12 8 6 -7.4699 -0.3530
12 8 7 5.0541 -0.2223
12 8 8 -5.6578 -0.0217
12 8 9 4.3335 0.0038
12 8 10 -7.1792 0.1086
12 8 11 6.8537 0.0142
12 8 12 -10.6925 0.4519
12 8 13 4.7419 -0.0643
12 8 14 -4.8158 -0.2237
12 8 15 3.6649 0.0363
12 8 16 3.3141 -0.0748
12 8 17 4.1130 -0.0596
12 8 18 10.0775 0.2166
12 8 19 -11.0276 -0.1694
12 10 0 -4.1164 -0.0166
12 10 1 -0.7034 0.1422
12 10 2 1.6070 0.0573
12 10 3 -5.9669 0.2197
12 10 4 2.6202 -0.1748
12 10 5 -2.9896 -0.5361
12 10 6 -0.7665 -0.0477
12 10 7 -0.1110 -0.0744
12 10 8 2.2624 -0.1018
12 10 9 -0.8904 0.0461
12 10 10 1.5963 -0.0883
12 10 11 9.5390 0.1157
12 10 12 5.3920 0.1257
12 10 13 -3.8220 -0.0772
12 10 14 -4.5833 -0.0891
12 10 15 4.6130 -0.0765
12 10 16 -1.4249 -0.2290
12 12 0 2.2748 0.0195
12 12 1 -2.0736 0.1565
12 12 2 2.7154 -0.0267
12 12 3 -6.5177 -0.2331
12 12 4 0.2292 -0.1172
12 12 5 -10.4887 0.1588
12 12 6 0.2052 0.0398
12 12 7 -10.1739 -0.0758
12 12 8 5.4544 -0.0199
12 12 9 -7.3528 0.1948
12 12 10 2.5009 0.0895
12 12 11 12.4900 0.0004
12 12 12 2.1009 0.1873
12 12 13 0.5408 -0.3477
12 12 14 0.3450 0.3600
12 12 15 5.3516 -0.3911
12 12 16 -0.1086 0.2960
12 14 0 2.9884 -0.0599
12 14 1 -8.1157 -0.1239
12 14 2 0.7781 -0.1711
12 14 3 -13.2970 -0.0568
12 14 4 7.1298 -0.2986
12 14 5 -13.9116 -0.0115
12 14 6 6.6637 -0.2143
12 14 7 -9.8716 -0.5087
12 14 8 9.7614 0.4101
12 14 9 -5.1360 -0.1451
12 14 10 0.9179 -0.1394
13 1 0 0.6984 -1.2946
13 1 1 -11.7160 -1.2415
13 1 2 4.3969 0.8129
13 1 3 -1.8448 0.4477
13 1 4 -7.8712 -0.0254
13 1 5 0.6758 0.7184
13 1 6 -12.9882 0.2201
13 1 7 12.1277 -0.4768
13 1 8 -10.6833 -2.5215
13 1 9 5.7432 -0.7698
13 1 10 -6.9609 2.0906
13 1 11 -2.7635 0.8819
13 1 12 -5.4737 -0.3099
13 1 13 -10.8909 -0.0782
13 1 14 -4.9995 -0.3744
13 1 15 -6.4912 -0.0962
13 1 16 -4.5508 0.2093
13 1 17 -4.2996 0.3075
13 1 18 -4.4566 0.4519
13 1 19 0.3089 -0.1115
13 1 20 -7.0713 -0.3699
13 1 21 -1.1629 -0.4724
13 1 22 -1.9236 0.0264
13 1 23 -7.7782 -0.3339
13 1 24 4.4468 0.8676
13 1 25 -4.6520 -0.6408
13 3 0 2.5766 -0.0479
13 3 1 11.6054 1.0264
13 3 2 -17.6456 -0.1335
13 3 3 21.1489 0.0619
13 3 4 -0.1315 0.0347
13 3 5 6.1329 -0.0384
13 3 6 4.9307 -0.1136
13 3 7 -4.8596 -0.9262
13 3 8 1.0523 0.2046
13 3 9 -8.8948 1.0101
13 3 10 1.0821 -0.2188
13 3 11 -6.8993 -0.6094
13 3 12 -1.7389 0.3654
13 3 13 0.5273 0.1092
13 3 14 -0.2050 -0.1070
13 3 15 0.4739 0.1187
13 3 16 0.8289 -0.1699
13 3 17 -5.8404 -0.0594
13 3 18 -2.5727 0.3732
13 3 19 -0.7262 -0.0811
13 3 20 -1.3944 0.1700
13 3 21 -4.5227 0.1073
13 3 22 0.4460 0.0119
13 3 23 -22.3778 0.1103
13 3 24 0.0722 -0.0231
13 5 0 1.0556 0.2156
13 5 1 -3.5350 -0.3133
13 5 2 -4.3086 -0.1807
13 5 3 -3.2304 0.2724
13 5 4 -3.9349 -0.0854
13 5 5 -1.6860 -0.5773
13 5 6 -2.2398 -0.2613
13 5 7 1.3510 0.0590
13 5 8 7.0312 0.4502
13 5 9 1.9903 -0.2111
13 5 10 7.7881 -0.0628
13 5 11 2.9058 0.2962
13 5 12 7.1239 -0.1066
13 5 13 -1.8039 -0.4573
13 5 14 -0.8654 -0.0922
13 5 15 -5.8895 0.2628
13 5 16 7.2537 0.1708
13 5 17 -5.2009 0.1589
13 5 18 1.0212 0.1205
13 5 19 -2.4920 -0.2742
13 5 20 14.8021 0.0724
13 5 21 -0.7095 0.0188
13 5 22 2.8098 -0.1629
13 7 0 -10.2807 -0.2466
13 7 1 0.4072 0.1375
13 7 2 -9.2765 0.1374
13 7 3 -2.5145 0.0051
13 7 4 -3.1862 -0.4248
13 7 5 -5.2659 0.0538
13 7 6 -2.6796 0.2332
13 7 7 -2.7872 0.1149
13 7 8 -1.9919 0.2010
13 7 9 -4.1010 -0.2530
13 7 10 -4.6297 0.1036
13 7 11 -4.9746 0.1088
13 7 12 2.5587 -0.1977
13 7 13 -6.8871 0.2320
13 7 14 1.8305 0.2883
13 7 15 3.3187 -0.1071
13 7 16 0.7169 -0.0565
13 7 17 -4.9818 -0.0810
13 7 18 -8.9482 0.0368
13 7 19 7.6502 0.0052
13 7 20 -8.8416 0.3822
13 9 0 -0.8541 0.0059
13 9 1 -7.1450 -0.0907
13 9 2 -3.7315 -0.2109
13 9 3 1.1418 -0.1502
13 9 4 -7.5241 0.2531
13 9 5 2.0261 0.3580
13 9 6 -5.1188 -0.0364
13 9 7 2.8778 0.0304
13 9 8 -5.3765 0.0344
13 9 9 3.2444 -0.2441
13 9 10 -2.2767 0.3020
13 9 11 -1.0872 -0.3622
13 9 12 -0.9351 -0.0461
13 9 13 11.6204 0.0812
13 9 14 -4.3354 -0.0397
13 9 15 5.7594 0.1027
13 9 16 -8.0598 0.0708
13 9 17 -4.8591 0.1074
13 11 0 5.5099 -0.0624
13 11 1 0.8464 -0.0263
13 11 2 7.3204 0.1192
13 11 3 1.9442 0.2108
13 11 4 7.8905 0.1694
13 11 5 0.5865 0.0098
13 11 6 1.6153 0.0960
13 11 7 3.9391 0.0171
13 11 8 -8.5827 -0.0703
13 11 9 7.6263 -0.1042
13 11 10 -9.3218 -0.2541
13 11 11 -12.8124 -0.0472
13 11 12 -9.8539 -0.2009
13 11 13 -3.1621 0.2924
13 11 14 -3.5559 -0.2492
13 13 0 6.7025 0.1238
13 13 1 2.2510 0.3328
13 13 2 3.6863 0.0489
13 13 3 4.1041 0.1939
13 13 4 -0.2684 0.0474
13 13 5 3.8570 -0.5450
13 13 6 -2.1952 -0.1080
13 13 7 4.0763 0.1442
13 13 8 -8.0059 -0.6764
13 13 9 1.9382 0.2367
13 13 10 -6.5956 -0.5032
13 13 11 -9.9112 0.0578
14 0 0 18.8380 2.3320
14 0 2 -3.4928 -1.4945
14 0 4 -9.2895 0.7097
14 0 6 0.9146 0.6032
14 0 8 11.2864 4.4096
14 0 10 7.4378 -5.3618
14 0 12 -4.6047 0.3170
14 0 14 -11.2544 0.4809
14 0 16 -8.4078 1.4583
14 0 18 -2.9044 -0.7071
14 0 20 2.1699 0.5342
14 0 22 -6.5185 -0.8715
14 0 24 -12.1369 -1.7428
14 2 0 -2.9758 -0.8059
14 2 1 4.0739 0.6480
14 2 2 17.5173 0.9711
14 2 3 -6.1019 0.4514
14 2 4 11.0975 0.4728
14 2 5 4.8833 -0.3959
14 2 6 6.6366 -0.0670
14 2 7 6.8300 0.2451
14 2 8 -1.6857 0.2230
14 2 9 7.8154 -0.4322
14 2 10 -2.3753 -0.0098
14 2 11 3.4663 0.0793
14 2 12 1.1375 -0.7592
14 2 13 3.0173 0.1238
14 2 14 6.7869 0.2759
14 2 15 5.2149 0.2638
14 2 16 3.2279 0.5310
14 2 17 6.7494 -0.4964
14 2 18 0.0401 -0.1662
14 2 19 -0.3219 -0.3646
14 2 20 -1.6855 -0.0483
14 2 21 -0.2786 -0.0562
14 2 22 -6.4513 0.0882
14 2 23 9.1481 0.1825
14 2 24 -10.5941 -0.2058
14 4 0 -10.1726 0.3534
14 4 1 -0.2525 0.3587
14 4 2 -1.7251 -0.4000
14 4 3 -2.8136 -0.0142
14 4 4 -8.1961 0.1082
14 4 5 -6.7522 0.3454
14 4 6 -2.5576 0.3606
14 4 7 -9.5671 0.0568
14 4 8 2.0183 -0.0240
14 4 9 -3.6513 -0.9016
14 4 10 6.3482 0.0180
14 4 11 -4.2629 0.0302
14 4 12 8.0290 0.1830
14 4 13 -5.6227 0.4819
14 4 14 2.9253 -0.0358
14 4 15 -4.7384 -0.1594
14 4 16 -12.7009 -0.0768
14 4 17 2.0589 -0.2736
14 4 18 -4.2102 0.1900
14 4 19 -3.3755 0.0139
14 4 20 -17.2748 -0.0002
14 4 21 -1.0351 -0.1922
14 4 22 -13.7836 -0.1993
14 6 0 -6.7222 -0.1119
14 6 1 -4.9717 -0.0476
14 6 2 -2.9580 -0.0460
14 6 3 -6.5198 0.2447
14 6 4 -7.6016 -0.0305
14 6 5 -2.0120 0.0053
14 6 6 -0.0220 0.0989
14 6 7 -2.9095 -0.3857
14 6 8 0.8699 -0.2406
14 6 9 -4.1847 0.2665
14 6 10 4.6442 0.2943
14 6 11 -5.1294 -0.1961
14 6 12 -3.9400 0.0663
14 6 13 -2.7055 0.1423
14 6 14 -0.1565 -0.0636
14 6 15 -4.7408 0.0450
14 6 16 -6.8529 -0.2046
14 6 17 -1.3260 -0.1401
14 6 18 -1.0466 -0.0924
14 6 19 -13.7534 -0.1237
14 6 20 -7.6332 0.1271
14 8 0 -6.1438 0.3518
14 8 1 3.8273 0.0914
14 8 2 -2.1349 -0.0893
14 8 3 0.8533 0.0569
14 8 4 1.7661 -0.1186
14 8 5 -0.1901 0.0453
14 8 6 2.3802 -0.3362
14 8 7 1.6315 -0.2244
14 8 8 2.6801 0.0323
14 8 9 3.7428 -0.0503
14 8 10 2.4800 -0.2170
14 8 11 3.0487 0.1045
14 8 12 -4.5851 0.1247
14 8 13 -3.8129 0.0300
14 8 14 1.7449 -0.4013
14 8 15 -21.0823 -0.0303
14 8 16 -5.4564 -0.0432
14 8 17 -4.3692 0.1219
14 8 18 0.7065 0.4065
14 10 0 5.9591 -0.0873
14 10 1 -1.7991 -0.0840
14 10 2 4.3635 0.1514
14 10 3 1.8142 0.0750
14 10 4 1.1398 -0.2061
14 10 5 9.3217 -0.2359
14 10 6 -0.2145 -0.1413
14 10 7 5.0507 0.1766
14 10 8 6.4689 0.0096
14 10 9 -5.8846 0.0726
14 10 10 4.4340 0.1298
14 10 11 1.4095 0.1067
14 10 12 -6.0999 -0.0040
14 10 13 -14.5163 -0.1687
14 10 14 -19.3365 0.0389
14 10 15 -7.7916 0.2964
14 12 0 -2.7051 -0.0700
14 12 1 -2.7072 0.1255
14 12 2 -3.3817 -0.0468
14 12 3 -8.9628 -0.4160
14 12 4 -1.4953 -0.1448
14 12 5 -9.0412 0.3184
14 12 6 -0.3264 -0.0025
14 12 7 -7.2108 0.1078
14 12 8 -1.5466 0.2340
14 12 9 -8.6888 0.2720
14 12 10 -6.0906 0.2805
14 12 11 5.5440 0.2899
14 12 12 -1.6043 -0.2945
14 14 4 4.5662 0.1971
14 14 5 -4.2466 0.4766
14 14 6 1.3622 0.3742
14 14 7 -4.7926 0.2983
14 14 8 3.1295 0.2405
15 1 0 5.9895 0.6571
15 1 1 -10.3721 -2.1601
15 1 2 3.2113 -0.4202
15 1 3 5.5108 0.3737
15 1 4 9.7830 0.1166
15 1 5 7.4260 0.8477
15 1 6 5.0062 0.8204
15 1 7 3.7593 -0.6499
15 1 8 0.6025 -1.9100
15 1 9 -9.2113 -0.8018
15 1 10 -5.4909 1.6057
15 1 11 -4.4858 1.1365
15 1 12 -4.7700 -0.1599
15 1 13 0.9716 -0.2503
15 1 14 -5.8595 -0.2752
15 1 15 4.5404 -0.5739
15 1 16 -2.0559 -0.8475
15 1 17 -0.5413 0.0167
15 1 18 -2.5859 1.1764
15 1 19 0.3888 0.0827
15 1 20 -3.5265 -0.5195
15 1 21 -2.1252 -0.2555
15 1 22 2.6431 -0.2821
15 1 23 -3.8886 0.3141
15 1 24 4.6240 0.7234
15 3 0 9.5752 0.2926
15 3 1 -12.0030 0.1178
15 3 2 -6.9431 0.0653
15 3 3 -12.0668 -0.3215
15 3 4 -1.1050 -0.3401
15 3 5 -12.0418 0.0733
15 3 6 -6.4305 -0.0202
15 3 7 -4.8028 -0.2463
15 3 8 -9.4834 0.5065
15 3 9 -2.6108 1.1727
15 3 10 -6.2941 -0.3438
15 3 11 4.7765 -0.5435
15 3 12 -9.2142 -0.0615
15 3 13 6.0271 0.1281
15 3 14 -10.6371 -0.1302
15 3 15 -5.4887 -0.3794
15 3 16 -5.3043 -0.0154
15 3 17 -12.5908 0.0616
15 3 18 -6.4436 -0.1717
15 3 19 -1.6303 -0.2752
15 3 20 1.1304 0.1418
15 3 21 -3.3383 0.2874
15 3 22 4.8993 -0.0809
15 5 0 -1.8536 -0.2634
15 5 1 -4.7351 -0.1058
15 5 2 -3.4094 -0.2152
15 5 3 -1.1296 0.1916
15 5 4 7.2094 0.1628
15 5 5 -4.7503 -0.2980
15 5 6 6.0996 -0.2425
15 5 7 -1.4150 0.1373
15 5 8 5.4693 0.1529
15 5 9 -1.9404 -0.1796
15 5 10 -1.4512 0.1035
15 5 11 -2.5699 0.3906
15 5 12 1.7676 0.1489
15 5 13 -2.9761 -0.3771
15 5 14 -4.2294 -0.2795
15 5 15 1.3083 0.2464
15 5 16 11.7576 0.2318
15 5 17 1.1529 0.0008
15 5 18 -2.2323 0.0522
15 5 19 6.1813 -0.1235
15 5 20 8.8412 -0.0429
15 7 0 1.1132 -0.3548
15 7 1 -5.0283 0.3090
15 7 2 3.2666 0.0869
15 7 3 -0.4534 -0.0410
15 7 4 7.8938 -0.2869
15 7 5 2.0612 0.0074
15 7 6 3.3052 0.3365
15 7 7 -2.9171 -0.0741
15 7 8 2.8760 0.0965
15 7 9 -6.2001 -0.1489
15 7 10 -0.1519 -0.1484
15 7 11 -4.3945 0.0522
15 7 12 5.1417 -0.2965
15 7 13 -4.4430 0.1976
15 7 14 -2.4962 0.4776
15 7 15 14.4043 0.1261
15 7 16 -0.7176 -0.0302
15 7 17 -3.9689 0.0079
15 7 18 -4.5822 -0.0380
15 9 0 -6.1425 0.0583
15 9 1 -1.5821 0.1381
15 9 2 -3.4254 -0.2871
15 9 3 0.5166 0.0114
15 9 4 -0.7142 -0.0073
15 9 5 -2.4371 0.0911
15 9 6 4.4311 -0.1142
15 9 7 -2.3406 -0.1997
15 9 8 -1.8805 0.0616
15 9 9 4.6607 -0.1092
15 9 10 -8.0270 0.1704
15 9 11 0.2957 -0.0994
15 9 12 -0.5187 -0.0891
15 9 13 3.6341 0.1614
15 9 14 2.4038 -0.2361
15 9 15 0.8580 -0.2073
15 9 16 13.7742 0.3565
15 11 0 10.8969 0.0399
15 11 1 -10.8185 -0.0045
15 11 2 12.7153 0.0389
15 11 3 -3.7644 0.0909
15 11 4 4.9495 -0.0785
15 11 5 -0.2749 -0.1188
15 11 6 -4.3939 -0.0970
15 11 7 -0.6940 0.0016
15 11 8 -5.9560 0.1054
15 11 9 -1.8772 -0.2546
15 11 10 -2.7277 0.0807
15 11 11 -19.2192 -0.5740
15 11 12 -0.3214 0.2765
15 13 0 -2.6110 0.5034
15 13 1 8.1039 0.2060
15 13 2 -2.0357 0.1629
15 13 3 8.5982 0.4110
15 13 4 3.2977 0.0968
15 13 5 0.6092 -0.2484
15 13 6 6.9549 0.1483
15 13 7 -1.7219 0.1843
15 13 8 4.8365 -0.0478
15 13 9 -5.2855 -0.5755
16 0 0 -6.9696 -4.8859
16 0 2 -5.8761 0.0291
16 0 4 -3.1851 0.6688
16 0 6 7.9866 -0.0639
16 0 8 6.8967 1.8306
16 0 10 -1.8686 -3.8774
16 0 12 -7.2379 0.8252
16 0 14 -1.0447 0.3916
16 0 16 0.2333 2.3228
16 0 18 -1.5694 -2.4823
16 0 20 1.3073 0.6089
16 0 22 -5.6343 -0.3004
16 0 24 -4.9724 -0.5141
16 2 0 -8.0978 -1.2794
16 2 1 -4.8577 0.9101
16 2 2 4.3575 0.3770
16 2 3 -6.0663 0.3195
16 2 4 -4.1330 0.1023
16 2 5 -6.2412 -0.7307
16 2 6 -3.0928 -0.0490
16 2 7 -8.5241 -0.2004
16 2 8 1.6680 0.1180
16 2 9 0.9130 0.1049
16 2 10 5.8098 0.1153
16 2 11 0.8438 0.2971
16 2 12 5.3764 -0.5660
16 2 13 -0.4988 -0.1540
16 2 14 3.1410 0.2238
16 2 15 4.1167 0.3199
16 2 16 -3.9388 0.2107
16 2 17 5.0116 -0.5388
16 2 18 0.9856 -0.2926
16 2 19 -2.3942 -0.2861
16 2 20 2.8049 -0.3261
16 2 21 -1.7535 0.0045
16 2 22 -1.9711 0.0586
16 4 0 0.0755 0.1099
16 4 1 -6.1473 0.2529
16 4 2 9.5888 -0.3187
16 4 3 -3.4871 -0.2676
16 4 4 5.2843 0.0005
16 4 5 4.5631 0.2415
16 4 6 3.0730 0.1529
16 4 7 2.8890 -0.0016
16 4 8 3.6899 0.0251
16 4 9 4.9763 -0.5312
16 4 10 -0.6988 -0.1459
16 4 11 -1.9827 0.4457
16 4 12 -4.4673 0.0775
16 4 13 -1.5132 0.6919
16 4 14 0.2889 0.2351
16 4 15 2.9858 -0.2442
16 4 16 -1.5103 0.0080
16 4 17 8.6394 -0.5431
16 4 18 12.0281 0.1573
16 4 19 -1.4469 0.1035
16 4 20 -1.9074 -0.2366
16 4 21 -2.4465 -0.2423
16 6 0 6.3708 -0.0011
16 6 1 3.8240 0.0618
16 6 2 -2.6110 -0.1608
16 6 3 -1.8244 0.2048
16 6 4 -9.4084 0.0430
16 6 5 -2.1277 -0.3300
16 6 6 0.3798 0.0958
16 6 7 1.6291 -0.1433
16 6 8 2.4055 -0.0889
16 6 9 4.2554 0.2617
16 6 10 7.8714 0.3886
16 6 11 5.7026 -0.1959
16 6 12 6.3944 0.0801
16 6 13 5.3166 0.0507
16 6 14 12.7534 -0.0850
16 6 15 -3.8715 0.0941
16 6 16 0.6251 0.0353
16 6 17 -0.7071 -0.1477
16 6 18 5.7928 0.2683
16 8 0 -9.1060 0.0922
16 8 1 6.0185 0.0171
16 8 2 -1.9240 -0.1102
16 8 3 3.4340 -0.0309
16 8 4 -1.0935 0.0201
16 8 5 3.2347 -0.1528
16 8 6 1.6460 -0.0420
16 8 7 9.2582 -0.1718
16 8 8 8.6027 0.2169
16 8 9 7.0014 -0.0082
16 8 10 16.9890 -0.0229
16 8 11 1.7945 0.0736
16 8 12 9.3320 0.2091
16 8 13 2.5630 -0.1652
16 8 14 7.0726 -0.0430
16 8 15 -11.5714 -0.2231
16 8 16 -13.0800 0.0504
16 10 0 -2.1148 -0.1044
16 10 1 22.2400 -0.1764
16 10 2 -8.7934 -0.1046
16 10 3 17.7187 0.0622
16 10 4 -4.0175 -0.2551
16 10 5 11.6795 -0.1261
16 10 6 2.2170 0.1033
16 10 7 4.0920 -0.0929
16 10 8 3.9779 0.1395
16 10 9 -3.6101 -0.1787
16 10 10 -1.2649 -0.0148
16 10 11 8.1088 0.1896
16 10 12 -8.8547 -0.3441
16 10 13 -7.1556 -0.0507
16 12 0 9.8679 -0.2467
16 12 1 -0.5317 0.1603
16 12 2 6.2132 -0.0376
16 12 3 -4.9259 -0.2646
16 12 4 1.5354 -0.0080
16 12 5 1.7140 0.4297
16 12 6 -3.4910 0.0044
16 12 7 6.7181 -0.0242
16 12 8 -6.8212 -0.1663
16 12 9 3.0754 -0.2353
16 12 10 -6.1993 0.0805
16 14 4 -1.1742 0.3366
16 14 5 -0.1095 0.6756
16 14 6 -2.7038 -0.3572
17 1 0 -2.9035 1.7228
17 1 1 -0.0988 0.2153
17 1 2 -2.3980 -1.5735
17 1 3 2.4848 -0.4506
17 1 4 2.7469 -0.0837
17 1 5 0.0452 0.3735
17 1 6 -2.6775 0.4866
17 1 7 -3.0911 0.0553
17 1 8 -7.5158 -0.6078
17 1 9 -8.0268 -0.7276
17 1 10 -7.6704 0.6527
17 1 11 2.5810 0.6796
17 1 12 -0.4338 -0.0898
17 1 13 4.2069 0.2061
17 1 14 -0.0325 0.1120
17 1 15 -1.0351 -0.4076
17 1 16 3.7483 -0.9768
17 1 17 -3.9875 -0.2019
17 1 18 1.5141 1.3596
17 1 19 5.1669 0.3530
17 1 20 -3.7550 -0.3406
17 1 21 3.8461 -0.4086
17 1 22 -1.0029 -0.2062
17 1 23 1.3911 -0.6138
17 3 0 11.6767 0.0890
17 3 1 0.8626 -0.3229
17 3 2 -2.2053 -0.0999
17 3 3 -1.4463 0.1249
17 3 4 -2.4646 -0.1020
17 3 5 -3.1360 -0.2664
17 3 6 2.8502 0.4102
17 3 7 -0.5219 -0.3659
17 3 8 -0.8256 0.4544
17 3 9 -6.7965 0.5532
17 3 10 2.0348 -0.2335
17 3 11 -2.8219 -0.2942
17 3 12 -3.8402 0.0899
17 3 13 -1.0052 0.2278
17 3 14 -1.5233 -0.0134
17 3 15 -4.1467 -0.1411
17 3 16 1.2513 0.0579
17 3 17 0.3436 0.5107
17 3 18 -3.0358 -0.3736
17 3 19 5.4268 -0.7288
17 3 20 0.2178 0.0864
17 3 21 1.7866 -0.2007
17 5 0 -10.5295 -0.4704
17 5 1 -1.5540 -0.2806
17 5 2 -1.2211 0.1364
17 5 3 -3.0063 -0.0701
17 5 4 4.0684 0.3205
17 5 5 -9.6542 0.1727
17 5 6 -1.1164 -0.0824
17 5 7 -6.9433 0.0264
17 5 8 -0.0423 0.0439
17 5 9 -5.3136 -0.2414
17 5 10 2.1683 -0.0464
17 5 11 3.6165 0.3598
17 5 12 6.7508 -0.0927
17 5 13 12.3139 -0.2542
17 5 14 -0.3844 -0.2024
17 5 15 11.4731 -0.2054
17 5 16 9.3471 0.5859
17 5 17 2.1760 -0.1762
17 5 18 -6.6102 0.1344
17 5 19 3.9523 0.1462
17 7 0 -0.6537 -0.3118
17 7 1 -7.6316 0.1772
17 7 2 -4.0116 0.2301
17 7 3 3.8947 -0.0458
17 7 4 5.7933 0.0519
17 7 5 5.5126 0.1136
17 7 6 3.4606 0.2812
17 7 7 -2.5315 0.0605
17 7 8 0.2439 0.0415
17 7 9 -4.7401 0.1985
17 7 10 -4.1413 -0.0416
17 7 11 -2.1544 0.0182
17 7 12 -5.1833 -0.2778
17 7 13 -6.0634 0.0615
17 7 14 -8.5053 0.2265
17 7 15 8.0324 -0.0055
17 7 16 3.2898 0.0424
17 9 0 0.2495 -0.0033
17 9 1 3.2478 0.2996
17 9 2 4.3493 -0.1120
17 9 3 0.6205 -0.0781
17 9 4 1.2971 0.1512
17 9 5 -1.1774 -0.1039
17 9 6 -4.3432 0.0357
17 9 7 -6.4952 -0.0483
17 9 8 -11.6430 -0.1399
17 9 9 -5.6631 0.1898
17 9 10 -16.6704 -0.1836
17 9 11 -15.0957 -0.0636
17 9 12 -6.3692 0.1460
17 9 13 -10.0351 0.1109
17 9 14 -5.8295 -0.3457
17 11 0 -6.1997 0.2057
17 11 1 2.6220 -0.0420
17 11 2 -4.0457 -0.0796
17 11 3 7.4974 0.1571
17 11 4 -7.2598 -0.0784
17 11 5 2.4746 -0.0507
17 11 6 -6.9807 -0.0333
17 11 7 -6.2953 -0.1157
17 11 8 -1.1006 0.1535
17 11 9 -2.3327 -0.1197
17 11 10 -1.6859 -0.4541
17 13 0 -2.8660 0.6285
17 13 1 -1.7895 0.0557
17 13 2 -1.4834 -0.0195
17 13 3 -1.6728 0.6888
17 13 4 -0.0241 -0.0727
17 13 5 -6.1059 -0.2183
17 13 6 -2.4497 0.0315
17 13 7 -2.6293 -0.0854
18 0 0 -3.1962 -2.1334
18 0 2 -4.0624 5.1034
18 0 4 -5.9826 0.0897
18 0 6 -4.5211 -0.4350
18 0 8 -6.3390 -0.5478
18 0 10 -2.3648 -1.5330
18 0 12 1.1255 0.6717
18 0 14 2.5317 0.5149
18 0 16 -4.2636 2.0102
18 0 18 -7.4344 -3.1261
18 0 20 3.8922 0.7724
18 0 22 0.6935 -0.0075
18 2 0 4.4218 -1.0052
18 2 1 3.8281 0.7565
18 2 2 2.8467 0.5723
18 2 3 2.4461 0.2009
18 2 4 -0.6966 0.9626
18 2 5 -2.0383 -0.2650
18 2 6 -4.4117 -0.1528
18 2 7 -0.7490 -0.3547
18 2 8 0.8602 -0.8316
18 2 9 11.0854 0.3095
18 2 10 -0.0733 0.2031
18 2 11 7.3403 0.3000
18 2 12 -0.7851 -0.0228
18 2 13 1.6476 -0.2373
18 2 14 -1.1423 0.0831
18 2 15 6.2936 0.0593
18 2 16 0.3841 0.1544
18 2 17 3.2629 -0.4416
18 2 18 3.0729 -0.0040
18 2 19 -1.7649 0.0891
18 2 20 -2.2814 -0.7561
18 2 21 -0.0003 -0.0890
18 4 0 10.1838 0.2747
18 4 1 -9.8012 0.4041
18 4 2 7.9620 -0.0568
18 4 3 -1.0256 -0.2151
18 4 4 1.4810 -0.0360
18 4 5 7.7429 -0.2965
18 4 6 -7.0145 0.3399
18 4 7 1.8152 -0.2136
18 4 8 -5.4794 0.1325
18 4 9 7.1907 -0.0150
18 4 10 -9.3777 -0.4062
18 4 11 1.3400 0.0963
18 4 12 -0.1359 -0.0800
18 4 13 1.5067 0.1437
18 4 14 5.8865 0.1642
18 4 15 3.9430 0.0717
18 4 16 0.8412 -0.3039
18 4 17 3.5533 0.0680
18 4 18 1.2751 0.3277
18 4 19 -1.5917 0.7496
18 6 0 10.0721 0.2552
18 6 1 4.0662 0.0026
18 6 2 2.2776 -0.0417
18 6 3 -8.4653 0.1894
18 6 4 -5.4887 0.0040
18 6 5 -1.8479 -0.3471
18 6 6 0.4539 -0.1027
18 6 7 4.6585 0.0108
18 6 8 2.1221 0.0832
18 6 9 3.4771 0.1728
18 6 10 -0.4752 0.2418
18 6 11 3.4977 0.1368
18 6 12 -4.2004 -0.0923
18 6 13 -0.2654 -0.1441
18 6 14 -5.4406 -0.2060
18 6 15 -6.5864 -0.2086
18 6 16 -14.8049 -0.0407
18 6 17 0.4138 -0.1085
18 8 0 0.5015 0.0513
18 8 1 2.0224 -0.1001
18 8 2 5.3383 -0.0465
18 8 3 -0.2025 -0.0781
18 8 4 -0.6572 -0.1076
18 8 5 -5.1433 0.0885
18 8 6 1.4506 0.0257
18 8 7 -1.7008 0.2000
18 8 8 2.2683 0.1305
18 8 9 -2.5962 -0.1509
18 8 10 5.8445 -0.1013
18 8 11 -4.8059 -0.0999
18 8 12 -2.0713 -0.1498
18 8 13 2.5398 -0.0077
18 8 14 -3.8582 0.0636
18 10 0 -5.3893 -0.0280
18 10 1 3.0632 -0.2837
18 10 2 -10.3169 -0.0522
18 10 3 -2.7159 -0.1235
18 10 4 -3.0456 0.1805
18 10 5 -3.7232 0.0188
18 10 6 3.4735 0.2939
18 10 7 3.7988 0.0947
18 10 8 2.6067 -0.1078
18 10 9 2.3038 -0.0156
18 10 10 6.8355 -0.0985
18 10 11 10.9539 -0.0139
18 10 12 9.1731 -0.2965
18 12 0 -1.6018 -0.4396
18 12 1 -2.4048 -0.2588
18 12 2 -10.0517 0.2508
18 12 3 -3.9598 -0.1336
18 12 4 -10.1360 0.2898
18 12 5 -0.0604 0.1600
18 12 6 -6.9805 0.3511
18 12 7 1.9195 -0.0264
18 12 8 -5.9113 -0.0365
19 1 0 -8.5793 2.2168
19 1 1 12.2679 -0.5545
19 1 2 1.5800 -1.4391
19 1 3 7.9883 -1.5462
19 1 4 4.6612 0.3230
19 1 5 7.4386 0.8017
19 1 6 2.9241 0.0883
19 1 7 6.1403 0.6212
19 1 8 2.2503 0.3211
19 1 9 1.0585 -0.7151
19 1 10 0.3864 -0.7740
19 1 11 2.4139 0.4297
19 1 12 2.1148 0.1015
19 1 13 -1.5029 0.4174
19 1 14 1.1114 0.4741
19 1 15 -0.4081 -0.6601
19 1 16 4.0669 -0.8257
19 1 17 4.4744 -0.3076
19 1 18 5.7047 0.9542
19 1 19 8.3052 0.6651
19 1 20 0.9664 -0.0138
19 1 21 -1.3598 -0.2208
19 3 0 -9.4403 -0.2909
19 3 1 7.3939 -0.3523
19 3 2 -4.4829 0.3294
19 3 3 1.8574 0.2557
19 3 4 1.3184 0.0976
19 3 5 -2.5451 -0.4240
19 3 6 13.7507 -0.1015
19 3 7 -0.5003 0.3764
19 3 8 4.9537 0.0322
19 3 9 -9.0257 0.2023
19 3 10 6.1004 0.0101
19 3 11 -1.8758 -0.1494
19 3 12 -5.4299 -0.1029
19 3 13 4.9656 -0.0195
19 3 14 0.6429 0.0562
19 3 15 0.6121 -0.0760
19 3 16 -3.2504 0.5826
19 3 17 1.9621 0.6414
19 3 18 -3.6231 -0.1208
19 3 19 -2.6382 0.0462
19 5 0 -2.8397 -0.3557
19 5 1 -5.0083 0.0283
19 5 2 4.3567 0.1187
19 5 3 -3.5500 -0.1356
19 5 4 6.2787 0.3326
19 5 5 -8.5322 0.2784
19 5 6 5.8804 0.1222
19 5 7 1.1143 -0.2992
19 5 8 4.2816 -0.2767
19 5 9 6.9970 -0.1650
19 5 10 4.4221 -0.0952
19 5 11 10.0156 0.2075
19 5 12 2.3013 0.1787
19 5 13 6.7238 -0.0329
19 5 14 -2.2722 -0.0465
19 5 15 -2.3515 -0.0956
19 5 16 0.8977 0.0728
19 5 17 -4.4972 0.1238
19 7 0 1.6300 -0.0021
19 7 1 -10.0512 0.0234
19 7 2 3.9680 0.1795
19 7 3 4.5243 -0.1737
19 7 4 15.4579 0.1118
19 7 5 6.1132 -0.1176
19 7 6 5.1910 0.1069
19 7 7 2.5191 -0.0664
19 7 8 -0.6036 0.0328
19 7 9 1.2070 0.1089
19 7 10 -3.2516 -0.1381
19 7 11 3.7199 -0.2271
19 7 12 -12.0583 -0.2104
19 7 13 -1.3385 -0.0230
19 7 14 -10.4457 0.4761
19 9 0 15.5592 -0.1238
19 9 1 -3.1175 0.1907
19 9 2 13.4545 0.0162
19 9 3 -7.6630 -0.0629
19 9 4 8.8039 0.1014
19 9 5 -3.4792 -0.1156
19 9 6 0.8240 -0.0065
19 9 7 -4.5540 -0.2246
19 9 8 1.9264 -0.0989
19 9 9 0.8937 -0.1387
19 9 10 -4.3405 -0.0686
19 9 11 -0.2520 -0.1987
19 11 0 3.7269 -0.0718
19 11 1 1.9297 0.1253
19 11 2 11.1986 -0.0034
19 11 3 4.7945 -0.0045
19 11 4 9.5000 0.3138
19 11 5 0.9816 -0.2003
19 11 6 4.9821 -0.0614
19 11 7 -7.2786 -0.0600
19 11 8 3.9631 0.2192
19 11 9 -3.9413 0.3251
19 11 10 -1.4712 -0.0546
19 11 11 -11.0979 0.4455
19 13 0 10.4135 0.8758
19 13 1 4.6539 0.1695
19 13 2 6.4881 -0.0775
19 13 3 9.3933 0.0737
19 13 4 1.7019 -0.1006
20 0 0 14.2621 -1.6770
20 0 2 12.8790 4.0320
20 0 4 10.3117 -1.6691
20 0 6 10.0432 -0.0269
20 0 8 4.6991 -2.1068
20 0 10 10.3795 1.1892
20 0 12 5.4962 0.5776
20 0 14 -0.7157 0.1387
20 0 16 0.3718 0.6462
20 0 18 -0.0243 -2.2771
20 0 20 6.0448 0.5191
20 2 0 4.5526 0.3223
20 2 1 -1.8686 -0.1513
20 2 2 -6.4320 0.6118
20 2 3 -0.3907 0.1033
20 2 4 -4.8226 0.4881
20 2 5 -1.6348 0.1123
20 2 6 -8.1516 -0.4689
20 2 7 1.8239 -0.4317
20 2 8 -4.0036 -0.5935
20 2 9 10.7513 0.8009
20 2 10 -2.7258 0.5313
20 2 11 7.0155 0.3634
20 2 12 6.0452 0.2555
20 2 13 2.9805 -0.4620
20 2 14 6.1037 0.0392
20 2 15 4.9301 -0.1114
20 2 16 4.0178 0.1678
20 2 17 -5.3110 0.1499
20 2 18 -2.9453 0.2989
20 2 19 -7.0397 0.2189
20 4 0 -1.5098 0.1539
20 4 1 3.1716 0.2935
20 4 2 -4.5865 0.0883
20 4 3 3.5585 -0.4248
20 4 4 -5.5116 -0.1467
20 4 5 5.7066 -0.3469
20 4 6 -7.3139 0.0964
20 4 7 -3.4353 0.1968
20 4 8 5.2145 0.0331
20 4 9 4.3873 0.3592
20 4 10 6.8093 -0.2374
20 4 11 1.6135 -0.2539
20 4 12 15.5965 0.1041
20 4 13 3.3415 -0.0282
20 4 14 4.6675 0.3023
20 4 15 2.1434 -0.0622
20 4 16 3.6195 -0.0623
20 4 17 -4.3355 -0.3200
20 6 0 5.4787 0.2149
20 6 1 3.8515 -0.0317
20 6 2 1.3631 -0.1835
20 6 3 -7.0267 0.1019
20 6 4 -0.9374 -0.0535
20 6 5 1.0893 -0.3542
20 6 6 5.6451 0.0752
20 6 7 1.0166 0.0680
20 6 8 4.8850 0.3452
20 6 9 2.1232 0.0663
20 6 10 -1.1664 0.0390
20 6 11 5.4777 0.1633
20 6 12 4.9497 0.0539
20 6 13 -3.5547 -0.1832
20 6 14 6.1223 0.0620
20 6 15 -6.0719 0.2789
20 8 0 1.2033 -0.2305
20 8 1 5.6054 -0.1262
20 8 2 6.7702 0.0176
20 8 3 2.1854 -0.1067
20 8 4 -7.7457 0.0326
20 8 5 -0.5283 0.0925
20 8 6 -0.6382 0.2726
20 8 7 2.4506 0.0387
20 8 8 -0.1439 -0.0756
20 8 9 3.1430 -0.2169
20 8 10 5.7561 -0.0779
20 8 11 -0.0078 0.0761
20 8 12 8.3704 0.0247
20 10 0 0.3388 0.1594
20 10 1 0.7516 -0.2308
20 10 2 -5.5579 0.1058
20 10 3 2.5569 0.0085
20 10 4 2.4012 0.0722
20 10 5 4.9118 0.0965
20 10 6 5.9430 0.0001
20 10 7 11.3900 -0.2910
20 10 8 -2.4967 0.0427
20 10 9 3.0274 -0.2326
20 10 10 0.0876 0.4858
20 10 11 4.8901 0.1443
20 12 0 -2.8990 -0.3427
20 12 1 8.8832 -0.0994
20 12 2 -7.1077 0.2799
20 12 3 1.8773 -0.0735
20 12 4 -4.2507 0.0424
20 12 5 -1.3617 -0.4099
21 1 0 6.1546 0.8771
21 1 1 0.8494 0.8231
21 1 2 8.6635 -1.1194
21 1 3 -6.5802 -0.8177
21 1 4 2.8101 0.5403
21 1 5 -3.6103 0.4418
21 1 6 -1.8621 -0.3681
21 1 7 -2.1004 0.5335
21 1 8 5.9082 1.1876
21 1 9 -5.9813 -0.3149
21 1 10 4.0845 -0.9224
21 1 11 -4.4804 -0.2067
21 1 12 6.2979 0.3295
21 1 13 -1.1521 0.2943
21 1 14 7.8328 -0.0321
21 1 15 6.2390 -0.0509
21 1 16 5.8323 -0.5609
21 1 17 5.6658 0.0797
21 1 18 2.8671 0.5606
21 1 19 2.4158 0.7520
21 1 20 -3.3003 0.3005
21 3 0 0.5607 -0.2498
21 3 1 -0.3051 -0.7240
21 3 2 8.2800 0.5257
21 3 3 -0.9826 0.3174
21 3 4 6.2983 -0.1002
21 3 5 -3.2780 -0.1473
21 3 6 9.3909 -0.1942
21 3 7 3.7491 0.4531
21 3 8 -0.7138 -0.0123
21 3 9 0.1936 -0.6326
21 3 10 4.2599 0.0964
21 3 11 4.8562 0.0657
21 3 12 -5.1035 -0.2419
21 3 13 3.4057 -0.1639
21 3 14 5.0169 0.1478
21 3 15 -2.6775 0.1146
21 3 16 -6.1324 0.2270
21 3 17 7.7042 0.5257
21 5 0 1.1201 -0.2298
21 5 1 -3.2848 0.3104
21 5 2 -4.2007 0.1047
21 5 3 1.6823 -0.3287
21 5 4 -3.3436 0.2832
21 5 5 -0.2416 0.3830
21 5 6 0.3899 0.0894
21 5 7 6.4494 -0.0778
21 5 8 2.4500 -0.3657
21 5 9 0.0248 -0.0087
21 5 10 7.3488 0.2167
21 5 11 -6.0975 -0.2180
21 5 12 2.0554 0.3548
21 5 13 -3.7022 -0.0064
21 5 14 -0.7791 0.2554
21 5 15 -0.6036 -0.1694
21 7 0 -6.1873 0.4221
21 7 1 -0.7089 -0.1138
21 7 2 -4.9548 0.1231
21 7 3 10.1268 0.0340
21 7 4 7.9925 0.1971
21 7 5 -1.2195 -0.1053
21 7 6 0.3351 -0.1565
21 7 7 -0.6082 -0.0567
21 7 8 -1.1133 0.0153
21 7 9 1.4334 0.0107
21 7 10 -4.7108 0.1777
21 7 11 2.8265 -0.1507
21 7 12 -15.9292 0.1696
21 9 0 3.8760 -0.1310
21 9 1 -0.7240 0.0957
21 9 2 0.4769 0.0870
21 9 3 -6.7144 -0.0147
21 9 4 2.9492 0.0954
21 9 5 4.1373 -0.2968
21 9 6 -3.1650 -0.0467
21 9 7 0.6905 -0.1124
21 9 8 3.8548 -0.2469
21 9 9 -0.0866 0.1590
21 9 10 -4.0182 -0.2489
21 9 11 -0.5430 0.0066
21 9 12 -6.6769 0.3781
21 9 13 1.8827 -0.2784
21 11 0 -1.2552 0.1273
21 11 1 -3.9798 -0.0147
21 11 2 9.3167 -0.0119
21 11 3 0.9989 -0.2333
21 11 4 4.2249 0.0254
21 11 5 -1.8533 0.1170
21 11 6 -3.4063 -0.2864
21 11 7 -5.3191 0.1294
21 11 8 -0.8704 0.5428
21 11 9 0.4126 -0.1311
22 0 0 13.9319 -1.2005
22 0 2 16.3437 2.9463
22 0 4 11.4661 -2.2254
22 0 6 12.4983 -0.0641
22 0 8 -2.1570 -2.2313
22 0 10 1.9233 3.0412
22 0 12 -1.2734 -0.4456
22 0 14 1.1178 -0.1969
22 0 16 8.6281 -0.0355
22 0 18 2.9385 -1.0330
22 2 0 5.2043 0.9863
22 2 1 -6.0906 -0.3678
22 2 2 0.4416 -0.9119
22 2 3 0.4488 -0.0031
22 2 4 2.2003 -0.1317
22 2 5 1.6559 0.1332
22 2 6 -1.8840 0.0672
22 2 7 -0.5963 -0.3281
22 2 8 -3.6196 -0.1444
22 2 9 -0.8234 0.6505
22 2 10 0.3133 0.2250
22 2 11 -3.7381 -0.1223
22 2 12 7.1114 0.4182
22 2 13 -5.7095 -0.1515
22 2 14 -1.0623 -0.1424
22 2 15 -9.4674 0.1654
22 2 16 -2.6737 -0.2912
22 2 17 -19.4975 0.1700
22 2 18 -4.0671 0.0682
22 4 0 -0.0142 0.0088
22 4 1 6.4216 -0.2287
22 4 2 -2.4425 0.3361
22 4 3 -2.6580 -0.3635
22 4 4 -2.7538 -0.3018
22 4 5 -2.9051 -0.2179
22 4 6 -2.2639 -0.0766
22 4 7 -10.1542 0.1821
22 4 8 1.9729 0.3624
22 4 9 -1.5037 0.4310
22 4 10 -6.1200 -0.0679
22 4 11 -4.2769 -0.1898
22 4 12 -0.2998 -0.1283
22 4 13 -5.8968 0.0220
22 4 14 -10.4110 -0.0127
22 6 0 5.8310 0.1232
22 6 1 0.4690 -0.1676
22 6 2 8.3695 -0.0921
22 6 3 -2.6853 -0.1285
22 6 4 4.9339 0.1338
22 6 5 7.6760 -0.1443
22 6 6 1.3861 0.1068
22 6 7 0.2400 0.0617
22 6 8 1.5567 0.1221
22 6 9 -7.6250 -0.1026
22 6 10 2.7519 -0.1383
22 6 11 -10.9346 0.2894
22 6 12 9.2548 0.3932
22 8 0 1.4369 -0.3485
22 8 1 -0.0595 -0.1093
22 8 2 4.6780 0.1286
22 8 3 2.1252 -0.1264
22 8 4 -4.3237 -0.1089
22 8 5 3.0453 0.2228
22 8 6 16.6940 0.1128
22 8 7 2.1827 0.0590
22 8 8 9.3925 -0.1368
22 8 9 3.4951 -0.1369
22 8 10 5.0500 0.1340
22 8 11 0.9954 -0.1841
22 8 12 6.8170 -0.1429
22 8 13 2.3905 0.1542
22 10 0 -5.9925 0.3701
22 10 1 -2.1739 0.1672
22 10 2 0.3897 -0.1623
22 10 3 5.9228 -0.0077
22 10 4 8.4582 -0.3701
22 10 5 5.3200 -0.0821
22 10 6 6.7173 -0.2862
22 10 7 6.3060 -0.1741
22 10 8 -1.3264 -0.2488
22 10 9 0.4180 0.5931
22 12 0 -3.8463 -0.1019
23 1 0 -1.3000 -0.3545
23 1 1 -8.6405 1.6355
23 1 2 -5.1408 -0.2802
23 1 3 -16.1597 -1.2215
23 1 4 -3.7662 0.5509
23 1 5 -12.9754 -0.0398
23 1 6 -5.2487 -0.7051
23 1 7 -8.8240 0.8516
23 1 8 6.7785 1.1566
23 1 9 -5.7083 0.0511
23 1 10 -2.4497 -1.0380
23 1 11 -0.3146 -0.6534
23 1 12 -4.5563 0.3940
23 1 13 -0.7880 0.3788
23 1 14 -6.4032 0.3889
23 1 15 0.8215 -0.1384
23 1 16 -10.8439 0.4663
23 1 17 -1.7528 -0.8568
23 1 18 -10.0219 -0.2581
23 3 0 7.4715 -0.1794
23 3 1 -12.4090 -0.4068
23 3 2 10.1457 0.3743
23 3 3 -15.1842 0.6483
23 3 4 3.1858 0.0194
23 3 5 -10.4775 -0.2453
23 3 6 0.0017 0.0859
23 3 7 4.8866 0.1431
23 3 8 -3.9757 -0.2347
23 3 9 3.2747 -0.6021
23 3 10 2.2947 0.3300
23 3 11 -1.0247 0.5202
23 3 12 -8.9135 -0.0523
23 3 13 -6.2833 -0.2621
23 3 14 -0.0167 -0.1474
23 5 0 -17.3464 0.0908
23 5 1 -14.5842 0.2622
23 5 2 -11.4475 -0.0299
23 5 3 -2.8594 -0.3706
23 5 4 -1.8925 -0.0620
23 5 5 -0.2268 0.4102
23 5 6 7.2144 0.1495
23 5 7 5.8225 -0.0896
23 5 8 6.2798 -0.2548
23 5 9 6.0034 -0.0089
23 5 10 1.1500 0.2517
23 5 11 4.1594 -0.0719
23 5 12 -7.3654 0.2399
23 7 0 -12.6665 0.4055
23 7 1 2.1375 -0.3672
23 7 2 -11.5763 -0.0736
23 7 3 4.0202 0.1402
23 7 4 0.0175 0.1657
23 7 5 -0.8666 -0.2227
23 7 6 -6.8761 -0.3432
23 7 7 14.4763 0.1277
23 7 8 -3.5416 0.1374
23 7 9 11.4733 0.2617
23 7 10 1.4146 0.2713
23 7 11 0.4109 0.0693
23 7 12 -0.7421 -0.1924
23 7 13 0.4782 -0.4473
23 9 0 1.2420 -0.3267
23 9 1 5.1371 -0.1582
23 9 2 -5.5877 -0.0808
23 9 3 -0.6468 -0.1446
23 9 4 -1.9765 -0.2059
23 9 5 -0.1505 -0.3042
23 9 6 -10.0960 -0.1542
23 9 7 -13.9091 0.1405
23 9 8 -2.2504 0.0800
23 9 9 -11.9409 -0.2402
23 9 10 -5.6985 0.3962
23 11 0 -1.5491 -0.3257
23 11 1 1.4142 0.1075
23 11 2 1.7355 -0.3974
23 11 3 -7.1175 0.0447
23 11 4 -9.0309 0.3729
23 11 5 -11.4626 0.3472
24 0 0 -0.1996 2.5056
24 0 2 0.5296 1.6984
24 0 4 -6.1217 -2.2903
24 0 6 0.4854 0.6205
24 0 8 -9.2323 -0.9196
24 0 10 4.1604 2.8012
24 0 12 5.9595 -1.4634
24 0 14 5.1285 -0.1610
24 2 0 -1.8764 1.1741
24 2 1 4.5955 -0.5241
24 2 2 -3.4289 -0.6900
24 2 3 12.0790 -0.1709
24 2 4 -0.5910 0.3567
24 2 5 7.7532 0.3822
24 2 6 7.9923 0.1039
24 2 7 -1.2727 0.0158
24 2 8 10.0811 0.0265
24 2 9 -2.5699 0.2564
24 2 10 11.1218 -0.0203
24 2 11 2.7519 -0.2741
24 2 12 7.6532 0.4336
24 2 13 6.3721 -0.0772
24 2 14 -1.0877 -0.0001
24 2 17 -2.5646 -0.4804
24 4 0 -7.0977 0.0165
24 4 1 -5.4868 -0.1552
24 4 2 -4.4775 0.4688
24 4 3 -4.9935 -0.0907
24 4 4 3.6177 -0.0315
24 4 5 0.9979 -0.1974
24 4 6 3.8697 -0.0862
24 4 7 1.2101 0.1382
24 4 8 2.5935 0.2017
24 4 9 6.9642 0.3284
24 4 10 -1.1113 -0.3262
24 4 11 4.8354 -0.2154
24 6 0 31.0703 -0.1481
24 6 1 4.4916 -0.1106
24 6 2 18.5597 0.0615
24 6 3 -0.2523 -0.0447
24 6 4 5.9885 0.2354
24 6 5 2.1590 0.2335
24 6 6 -0.6931 0.0952
24 6 7 -9.4130 -0.0472
24 6 8 2.4572 0.2180
24 6 9 -12.3605 -0.1310
24 6 10 -0.1904 -0.0664
24 6 11 0.4483 0.3023
24 6 12 -0.7874 0.1782
24 8 0 3.5646 -0.3414
24 8 1 -6.9270 0.2054
24 8 2 7.5145 0.2145
24 8 3 -2.2231 -0.0708
24 8 4 -4.7704 0.0004
24 8 5 1.1103 0.0856
24 8 6 -2.7920 0.2425
24 8 7 1.6163 -0.2077
24 8 8 -22.8681 -0.2097
24 8 9 3.2618 -0.0272
24 8 10 -18.2906 -0.4790
24 8 11 0.8487 -0.0100
24 10 0 15.6951 0.4109
24 10 1 -13.2923 0.2125
24 10 2 6.6525 0.3569
24 10 3 1.5674 0.1043
24 10 4 -0.6333 0.1725
24 10 5 1.3567 0.4985
24 10 6 -1.5455 -0.1180
25 1 0 4.7226 -0.8651
25 1 1 -6.6035 0.2627
25 1 2 -0.1399 0.5168
25 1 3 -10.1955 -0.7226
25 1 4 -2.1978 0.4224
25 1 5 -4.7090 0.0008
25 1 6 -11.2044 -0.7288
25 1 7 4.1628 0.3348
25 1 8 -4.9819 0.5024
25 1 9 7.7137 0.0745
25 1 10 -11.3330 -0.8279
25 1 11 4.5884 -0.5534
25 1 12 -5.8875 0.2582
25 1 13 -4.6092 0.6591
25 1 15 -1.1990 0.7798
25 3 0 17.7892 0.0715
25 3 1 -7.1394 -0.1915
25 3 2 7.4140 0.3468
25 3 3 -6.8473 0.3164
25 3 4 -1.7031 0.0040
25 3 5 -0.4824 -0.1974
25 3 6 -4.7326 0.0706
25 3 7 3.0501 0.1482
25 3 8 -3.3493 -0.5217
25 3 9 -4.0591 -0.5411
25 3 10 1.8444 0.3585
25 3 11 -8.5511 0.4543
25 5 0 -3.5845 0.3770
25 5 1 9.9095 0.3134
25 5 2 9.2467 -0.3115
25 5 3 6.6935 0.0012
25 5 4 6.5825 -0.1878
25 5 5 0.9347 0.1665
25 5 6 5.9232 0.4512
25 5 7 2.0771 -0.0780
25 5 8 -3.3492 -0.1305
25 5 9 3.3512 0.3590
25 5 10 -7.5208 0.2340
25 5 11 -4.4186 -0.0068
25 7 0 -14.5599 0.2145
25 7 1 -5.9436 -0.2709
25 7 2 -8.7869 0.0602
25 7 3 3.5202 0.3360
25 7 4 1.8377 0.1658
25 7 5 1.6066 -0.1366
25 7 6 4.1522 -0.3732
25 7 7 2.1552 0.0871
25 7 8 11.7193 0.0269
25 7 9 -7.8435 -0.3406
25 7 10 12.8538 0.0622
25 9 0 -7.4507 -0.2865
25 9 1 31.4028 -0.1077
25 9 2 -4.1719 -0.2661
25 9 3 12.7958 0.0749
25 9 4 5.6024 -0.0118
25 9 5 6.3014 -0.3735
25 9 6 -0.6149 0.6499
26 0 0 -6.7638 0.4624
26 0 2 -9.3787 -1.8126
26 0 4 -11.4794 -1.6513
26 0 6 -1.7079 0.8861
26 0 8 -1.8228 -0.2564
26 2 0 -5.9193 0.5003
26 2 1 11.4779 -0.4402
26 2 2 -2.7337 -0.7041
26 2 3 11.7256 -0.0430
26 2 4 4.8728 -0.4271
26 2 5 6.1325 0.5837
26 2 6 12.2234 -0.2979
26 2 7 -1.2549 0.0385
26 2 8 5.9773 0.5372
26 2 9 -1.8206 -0.3004
26 2 10 -0.2023 -0.0317
26 4 0 -8.7386 -0.5468
26 4 1 -4.6121 -0.1667
26 4 2 -2.5049 0.3408
26 4 3 5.2516 -0.1062
26 4 4 5.3226 0.2115
26 4 5 4.9660 0.1607
26 4 6 4.2958 -0.6830
26 4 7 1.1538 0.3012
26 4 8 8.7830 -0.0717
26 4 9 -3.0428 -0.0211
26 6 0 16.3877 -0.0793
26 6 1 -2.8227 -0.0424
26 6 2 0.1255 -0.0108
26 6 3 -7.2943 0.1123
26 6 4 9.3338 0.0375
26 6 5 -4.9009 0.3455
26 6 6 7.3016 -0.0233
26 6 7 -4.7731 -0.2046
26 6 8 5.7702 0.0781
26 6 9 -3.0379 -0.3111
26 8 0 25.6437 0.3472
26 8 1 -5.9692 0.2436
26 8 2 28.7277 0.5380
26 8 3 1.1648 -0.4178
26 8 4 6.6037 0.0579
26 8 5 3.6042 0.1071
26 8 6 3.3539 -0.2280
26 8 7 0.8937 0.3073
26 10 0 7.3372 1.1893
27 1 0 6.9838 -0.8434
27 1 1 -5.6024 1.1970
27 1 2 3.6760 0.1124
27 1 3 2.1999 0.7971
27 1 4 0.7096 0.2489
27 1 5 11.5687 -0.4505
27 1 6 -3.7935 0.0544
27 1 7 16.9153 -0.1740
27 3 0 1.1740 0.2830
27 3 1 -11.5102 -0.2287
27 3 2 -1.3076 -0.0506
27 3 3 -6.5461 0.2204
27 3 4 -6.3974 -0.1404
27 3 5 -0.7319 0.0455
27 3 6 -5.4375 0.5112
27 3 7 2.2954 -0.2778
27 5 0 -3.5166 0.2817
27 5 1 6.8258 -0.0950
27 5 2 6.3887 -0.2379
27 5 3 -1.7400 -0.4300
27 5 4 -6.3395 -0.1811
27 5 5 3.0077 -0.5985
27 5 6 -3.5109 0.3860
27 5 7 2.0136 0.0370
27 7 0 -10.4603 0.5431
27 7 1 10.2445 -0.3848
27 7 2 1.4980 0.1833
27 7 3 13.3091 0.3121
27 7 4 9.6676 -0.1822
27 7 5 -2.0608 -0.2600
27 7 6 13.5399 -0.2464
28 0 0 -3.0012 0.6834
28 0 2 -6.0857 -0.7800
28 0 4 10.9629 0.4267
28 2 0 -6.7895 0.1216
28 2 1 0.5635 -0.3178
28 2 2 -0.1690 -0.5598
28 2 3 -5.7698 0.0270
28 2 4 4.3600 -0.3831
28 2 5 -11.9878 0.4326
28 4 0 11.3874 -0.5456
28 4 1 -0.7651 -0.3102
28 4 2 -0.0131 0.5441
28 4 3 4.8159 -0.2629
28 4 4 2.2748 0.2656
28 6 0 9.4617 -0.1979
28 6 1 4.9139 0.3728
28 6 2 -2.9731 0.1591
28 6 3 7.3929 -0.2341
29 1 0 -3.8936 -0.4466
29 3 0 1.6134 0.3379
0 0 0 0.0 0.0
;
_olex2_submission_special_instructions 'No special instructions were received'
loop_
_space_group_symop_operation_xyz
'x, y, z'
'-x, y, -z+1/2'
'x+1/2, y+1/2, z'
'-x+1/2, y+1/2, -z+1/2'
'-x, -y, -z'
'x, -y, z-1/2'
'-x+1/2, -y+1/2, -z'
'x+1/2, -y+1/2, z-1/2'
loop_
_atom_site_label
_atom_site_type_symbol
_atom_site_fract_x
_atom_site_fract_y
_atom_site_fract_z
_atom_site_U_iso_or_equiv
_atom_site_adp_type
_atom_site_occupancy
_atom_site_site_symmetry_order
_atom_site_calc_flag
_atom_site_refinement_flags_posn
_atom_site_refinement_flags_adp
_atom_site_refinement_flags_occupancy
C1 C 0.1765(3) 0.4525(6) 0.7118(4) 0.0417(18) Uani 1 1 d . . .
H1 H 0.1895 0.3859 0.7004 0.050 Uiso 1 1 calc R . .
C2 C 0.1616(4) 0.5309(7) 0.6685(4) 0.052(2) Uani 1 1 d . . .
H2 H 0.1644 0.5142 0.6281 0.063 Uiso 1 1 calc R . .
C3 C 0.1389(4) 0.6473(6) 0.7394(4) 0.049(2) Uani 1 1 d . . .
H3 H 0.1259 0.7146 0.7500 0.059 Uiso 1 1 calc R . .
C4 C 0.1525(3) 0.5712(5) 0.7851(4) 0.0354(16) Uani 1 1 d . . .
C5 C 0.1478(3) 0.5832(5) 0.8513(4) 0.0345(16) Uani 1 1 d . . .
C6 C 0.1239(4) 0.6964(6) 0.9366(4) 0.0431(19) Uani 1 1 d . . .
H6A H 0.1235 0.6291 0.9585 0.052 Uiso 1 1 calc R . .
H6B H 0.0870 0.7314 0.9387 0.052 Uiso 1 1 calc R . .
C7 C 0.1721(4) 0.7673(7) 0.9668(4) 0.056(2) Uani 1 1 d . . .
H7A H 0.1785 0.8255 0.9393 0.067 Uiso 1 1 calc R . .
H7B H 0.1593 0.7988 1.0031 0.067 Uiso 1 1 calc R . .
C8 C 0.2271(4) 0.7124(7) 0.9840(5) 0.060(2) Uani 1 1 d . . .
H8A H 0.2412 0.6834 0.9477 0.072 Uiso 1 1 calc R . .
H8B H 0.2210 0.6529 1.0107 0.072 Uiso 1 1 calc R . .
Cu1 Cu 0.19211(4) 0.38234(7) 0.84291(4) 0.0365(2) Uani 1 1 d . . .
N1 N 0.1718(2) 0.4739(4) 0.7699(3) 0.0309(13) Uani 1 1 d . . .
N2 N 0.1439(3) 0.6266(6) 0.6810(3) 0.0521(18) Uani 1 1 d . . .
N3 N 0.1310(3) 0.6744(5) 0.8726(3) 0.0399(15) Uani 1 1 d . . .
H3A H 0.1235 0.7259 0.8470 0.048 Uiso 1 1 calc R . .
O21 O 0.2316(2) 0.2681(4) 0.8036(3) 0.0433(13) Uani 1 1 d . . .
H21A H 0.2469 0.2927 0.7725 0.065 Uiso 1 1 d GR . .
H21B H 0.2071 0.2208 0.7877 0.065 Uiso 1 1 d GR . .
O22 O 0.2083(3) 0.3121(5) 0.9209(3) 0.0579(16) Uani 1 1 d . . .
H22 H 0.1878 0.2543 0.9219 0.087 Uiso 1 1 d GR . .
O23 O 0.1597(2) 0.5026(4) 0.8840(2) 0.0410(12) Uani 1 1 d . . .
Co1 Co 0.55223(3) 0.58333(6) 0.72593(4) 0.0219(2) Uani 1 1 d . . .
Mo1 Mo 0.55761(2) 0.71241(4) 0.84149(3) 0.02555(15) Uani 1 1 d . . .
Mo2 Mo 0.43549(3) 0.71453(5) 0.90056(3) 0.02916(16) Uani 1 1 d . . .
Mo3 Mo 0.32261(2) 0.58772(4) 0.83037(3) 0.02770(16) Uani 1 1 d . . .
Mo4 Mo 0.33807(2) 0.46278(4) 0.70109(3) 0.03004(16) Uani 1 1 d . . .
Mo5 Mo 0.46492(2) 0.44803(4) 0.65200(3) 0.02773(16) Uani 1 1 d . . .
O1 O 0.60274(18) 0.6896(3) 0.6965(2) 0.0251(9) Uani 1 1 d . . .
O2 O 0.60992(18) 0.4808(3) 0.7068(2) 0.0261(10) Uani 1 1 d . . .
O3 O 0.5000 0.6841(5) 0.7500 0.0251(13) Uani 1 2 d S T P
O4 O 0.58857(19) 0.5784(3) 0.8076(2) 0.0272(10) Uani 1 1 d . . .
O5 O 0.5982(2) 0.8036(4) 0.8062(2) 0.0338(11) Uani 1 1 d . . .
O6 O 0.5933(2) 0.6951(4) 0.9123(2) 0.0412(12) Uani 1 1 d . . .
O7 O 0.49341(19) 0.7908(3) 0.8612(2) 0.0301(10) Uani 1 1 d . . .
O8 O 0.4735(2) 0.6861(5) 0.9691(2) 0.0445(13) Uani 1 1 d . . .
O9 O 0.3941(2) 0.8211(4) 0.9135(3) 0.0458(14) Uani 1 1 d . . .
O10 O 0.3803(2) 0.5979(4) 0.8992(2) 0.0312(10) Uani 1 1 d . . .
O11 O 0.2807(2) 0.6959(4) 0.8392(2) 0.0391(12) Uani 1 1 d . . .
O12 O 0.2849(2) 0.4795(4) 0.8517(2) 0.0400(12) Uani 1 1 d . . .
O13 O 0.30601(19) 0.5814(3) 0.7420(2) 0.0310(10) Uani 1 1 d . . .
O14 O 0.2997(2) 0.3592(4) 0.7272(3) 0.0430(14) Uani 1 1 d . . .
O15 O 0.3064(2) 0.4883(5) 0.6292(3) 0.0490(14) Uani 1 1 d . . .
O16 O 0.4044(2) 0.3741(4) 0.6859(2) 0.0339(11) Uani 1 1 d . . .
O17 O 0.4337(2) 0.4588(4) 0.5789(3) 0.0469(14) Uani 1 1 d . . .
O18 O 0.5185(2) 0.3535(4) 0.6501(3) 0.0402(13) Uani 1 1 d . . .
O19 O 0.50937(18) 0.5843(3) 0.6482(2) 0.0263(10) Uani 1 1 d . . .
O20 O 0.5000 0.4807(5) 0.7500 0.0252(13) Uani 1 2 d S T P
loop_
_atom_site_aniso_label
_atom_site_aniso_U_11
_atom_site_aniso_U_22
_atom_site_aniso_U_33
_atom_site_aniso_U_23
_atom_site_aniso_U_13
_atom_site_aniso_U_12
C1 0.041(4) 0.039(4) 0.048(5) -0.008(4) 0.014(4) -0.015(3)
C2 0.062(6) 0.056(5) 0.040(5) 0.001(4) 0.010(4) -0.005(4)
C3 0.061(5) 0.031(4) 0.053(5) 0.000(4) -0.002(4) -0.003(3)
C4 0.021(3) 0.038(4) 0.047(5) 0.000(3) 0.001(3) -0.012(3)
C5 0.026(3) 0.033(4) 0.045(4) 0.005(3) 0.007(3) 0.000(3)
C6 0.051(5) 0.038(4) 0.044(5) -0.004(3) 0.019(4) 0.002(3)
C7 0.068(6) 0.057(5) 0.044(5) -0.004(4) 0.017(4) -0.001(5)
C8 0.067(7) 0.055(6) 0.060(6) 0.002(5) 0.018(5) -0.002(4)
Cu1 0.0394(5) 0.0268(4) 0.0448(6) 0.0019(4) 0.0116(4) 0.0022(3)
N1 0.021(3) 0.028(3) 0.045(4) -0.004(3) 0.009(2) -0.006(2)
N2 0.055(5) 0.048(4) 0.052(5) 0.008(4) 0.002(4) -0.003(3)
N3 0.044(4) 0.027(3) 0.048(4) 0.005(3) 0.005(3) 0.004(3)
O21 0.038(3) 0.033(3) 0.061(4) -0.009(3) 0.015(3) -0.008(2)
O22 0.075(5) 0.047(3) 0.052(4) 0.013(3) 0.006(3) 0.004(3)
O23 0.054(3) 0.031(3) 0.040(3) 0.003(2) 0.014(2) 0.006(2)
Co1 0.0174(4) 0.0200(4) 0.0296(5) 0.0007(3) 0.0088(3) 0.0010(3)
Mo1 0.0221(3) 0.0241(3) 0.0319(3) -0.0016(2) 0.0093(2) -0.0030(2)
Mo2 0.0277(3) 0.0301(3) 0.0317(3) -0.0033(2) 0.0126(2) -0.0029(2)
Mo3 0.0198(3) 0.0274(3) 0.0378(4) 0.0016(2) 0.0120(2) -0.0003(2)
Mo4 0.0209(3) 0.0282(3) 0.0425(4) -0.0063(3) 0.0097(2) -0.0038(2)
Mo5 0.0245(3) 0.0245(3) 0.0360(4) -0.0063(2) 0.0113(2) -0.0027(2)
O1 0.022(2) 0.022(2) 0.033(3) 0.0018(18) 0.0120(18) -0.0038(17)
O2 0.023(2) 0.018(2) 0.040(3) -0.0007(19) 0.0101(19) 0.0015(16)
O3 0.023(3) 0.023(3) 0.032(4) 0.000 0.013(3) 0.000
O4 0.027(2) 0.023(2) 0.032(3) 0.0037(19) 0.0072(19) 0.0021(17)
O5 0.029(2) 0.030(2) 0.045(3) -0.004(2) 0.014(2) -0.0059(19)
O6 0.043(3) 0.043(3) 0.039(3) -0.003(2) 0.008(2) -0.003(2)
O7 0.027(2) 0.023(2) 0.043(3) -0.005(2) 0.013(2) -0.0020(17)
O8 0.043(3) 0.059(3) 0.032(3) 0.005(3) 0.009(2) 0.000(3)
O9 0.053(3) 0.034(3) 0.055(4) -0.011(3) 0.026(3) -0.004(2)
O10 0.030(2) 0.030(2) 0.035(3) 0.002(2) 0.013(2) 0.0004(19)
O11 0.032(3) 0.043(3) 0.044(3) 0.003(2) 0.014(2) 0.014(2)
O12 0.034(3) 0.040(3) 0.048(3) 0.007(2) 0.014(2) -0.006(2)
O13 0.023(2) 0.029(2) 0.042(3) 0.004(2) 0.008(2) 0.0014(18)
O14 0.027(3) 0.031(3) 0.074(4) -0.002(3) 0.020(3) -0.0053(19)
O15 0.038(3) 0.062(4) 0.046(3) -0.012(3) 0.000(2) 0.000(3)
O16 0.030(3) 0.024(2) 0.050(3) -0.009(2) 0.015(2) -0.0011(18)
O17 0.056(4) 0.046(3) 0.041(3) -0.011(3) 0.013(3) -0.014(3)
O18 0.031(3) 0.030(2) 0.062(4) -0.013(2) 0.013(2) 0.002(2)
O19 0.022(2) 0.027(2) 0.031(3) 0.0027(19) 0.0069(18) -0.0012(17)
O20 0.015(3) 0.023(3) 0.039(4) 0.000 0.009(3) 0.000
loop_
_atom_type_symbol
_atom_type_description
_atom_type_scat_dispersion_real
_atom_type_scat_dispersion_imag
_atom_type_scat_source
C C 0.0033 0.0016 'International Tables Vol C Tables 4.2.6.8 and 6.1.1.4'
H H 0.0000 0.0000 'International Tables Vol C Tables 4.2.6.8 and 6.1.1.4'
Co Co 0.3494 0.9721 'International Tables Vol C Tables 4.2.6.8 and 6.1.1.4'
Cu Cu 0.3201 1.2651 'International Tables Vol C Tables 4.2.6.8 and 6.1.1.4'
Mo Mo -1.6832 0.6857 'International Tables Vol C Tables 4.2.6.8 and 6.1.1.4'
N N 0.0061 0.0033 'International Tables Vol C Tables 4.2.6.8 and 6.1.1.4'
O O 0.0106 0.0060 'International Tables Vol C Tables 4.2.6.8 and 6.1.1.4'
loop_
_geom_angle_atom_site_label_1
_geom_angle_atom_site_label_2
_geom_angle_atom_site_label_3
_geom_angle
_geom_angle_site_symmetry_1
_geom_angle_site_symmetry_3
N1 C1 C2 119.0(7) . .
N2 C2 C1 124.2(8) . .
N2 C3 C4 122.1(8) . .
C3 C4 C5 127.4(7) . .
N1 C4 C3 119.0(7) . .
N1 C4 C5 113.6(6) . .
N3 C5 C4 120.0(6) . .
O23 C5 C4 116.9(6) . .
O23 C5 N3 123.1(7) . .
N3 C6 C7 111.9(6) . .
C8 C7 C6 115.1(7) . .
C7 C8 C8 112.2(10) . 7_567
O21 Cu1 N1 97.9(2) . .
O22 Cu1 N1 171.2(2) . .
O22 Cu1 O21 90.8(3) . .
O22 Cu1 O23 88.8(2) . .
O23 Cu1 N1 82.5(2) . .
O23 Cu1 O21 174.7(2) . .
C1 N1 C4 119.2(7) . .
C1 N1 Cu1 129.2(5) . .
C4 N1 Cu1 111.6(5) . .
C2 N2 C3 116.5(7) . .
C5 N3 C6 125.4(6) . .
C5 O23 Cu1 114.8(5) . .
Co1 Co1 Mo1 68.08(3) 2_656 .
Co1 Co1 Mo5 68.63(3) 2_656 .
Mo5 Co1 Mo1 136.66(3) . .
O1 Co1 Co1 136.55(13) . 2_656
O1 Co1 Mo1 87.23(13) . .
O1 Co1 Mo5 127.31(14) . .
O1 Co1 O2 85.06(18) . .
O2 Co1 Co1 138.38(13) . 2_656
O2 Co1 Mo1 125.09(14) . .
O2 Co1 Mo5 87.42(13) . .
O3 Co1 Co1 42.23(14) . 2_656
O3 Co1 Mo1 50.55(3) . .
O3 Co1 Mo5 96.31(10) . .
O3 Co1 O1 94.43(19) . .
O3 Co1 O2 175.63(15) . .
O3 Co1 O4 89.18(13) . .
O3 Co1 O19 87.73(13) . .
O3 Co1 O20 85.0(2) . .
O4 Co1 Co1 87.20(13) . 2_656
O4 Co1 Mo1 40.71(12) . .
O4 Co1 Mo5 134.65(13) . .
O4 Co1 O1 96.83(19) . .
O4 Co1 O2 86.58(19) . .
O19 Co1 Co1 87.28(13) . 2_656
O19 Co1 Mo1 137.42(13) . .
O19 Co1 Mo5 41.15(13) . .
O19 Co1 O1 88.21(19) . .
O19 Co1 O2 96.58(19) . .
O19 Co1 O4 174.28(19) . .
O20 Co1 Co1 42.75(13) . 2_656
O20 Co1 Mo1 95.08(9) . .
O20 Co1 Mo5 49.37(4) . .
O20 Co1 O1 176.43(15) . .
O20 Co1 O2 95.80(19) . .
O20 Co1 O4 86.68(13) . .
O20 Co1 O19 88.26(13) . .
O3 Mo1 Co1 38.34(10) . .
O4 Mo1 Co1 38.45(14) . .
O4 Mo1 O3 75.15(19) . .
O4 Mo1 O19 74.39(17) . 2_656
O5 Mo1 Co1 86.52(17) . .
O5 Mo1 O3 89.9(2) . .
O5 Mo1 O4 98.1(2) . .
O5 Mo1 O7 104.8(2) . .
O5 Mo1 O19 158.8(2) . 2_656
O6 Mo1 Co1 133.05(18) . .
O6 Mo1 O3 162.8(2) . .
O6 Mo1 O4 94.6(2) . .
O6 Mo1 O5 105.4(3) . .
O6 Mo1 O7 99.8(2) . .
O6 Mo1 O19 95.1(2) . 2_656
O7 Mo1 Co1 121.14(15) . .
O7 Mo1 O3 83.37(17) . .
O7 Mo1 O4 148.46(19) . .
O7 Mo1 O19 76.51(17) . 2_656
O19 Mo1 Co1 75.26(12) 2_656 .
O19 Mo1 O3 69.10(16) 2_656 .
O1 Mo2 O19 69.62(16) 2_656 2_656
O7 Mo2 O1 81.93(18) . 2_656
O7 Mo2 O10 148.9(2) . .
O7 Mo2 O19 72.16(16) . 2_656
O8 Mo2 O1 158.4(2) . 2_656
O8 Mo2 O7 100.6(2) . .
O8 Mo2 O10 97.8(2) . .
O8 Mo2 O19 90.5(2) . 2_656
O9 Mo2 O1 95.7(2) . 2_656
O9 Mo2 O7 97.5(2) . .
O9 Mo2 O8 105.2(3) . .
O9 Mo2 O10 101.6(2) . .
O9 Mo2 O19 162.7(2) . 2_656
O10 Mo2 O1 72.04(18) . 2_656
O10 Mo2 O19 82.83(17) . 2_656
O2 Mo3 O1 69.79(15) 2_656 2_656
O10 Mo3 O1 71.61(18) . 2_656
O10 Mo3 O2 82.87(18) . 2_656
O10 Mo3 O13 147.13(19) . .
O11 Mo3 O1 93.1(2) . 2_656
O11 Mo3 O2 159.7(2) . 2_656
O11 Mo3 O10 102.6(2) . .
O11 Mo3 O12 106.0(2) . .
O11 Mo3 O13 95.5(2) . .
O12 Mo3 O1 160.5(2) . 2_656
O12 Mo3 O2 92.1(2) . 2_656
O12 Mo3 O10 99.8(2) . .
O12 Mo3 O13 101.2(2) . .
O13 Mo3 O1 80.31(18) . 2_656
O13 Mo3 O2 71.44(18) . 2_656
O2 Mo4 O4 71.29(16) 2_656 2_656
O13 Mo4 O2 72.39(18) . 2_656
O13 Mo4 O4 83.59(17) . 2_656
O13 Mo4 O16 150.2(2) . .
O14 Mo4 O2 91.0(2) . 2_656
O14 Mo4 O4 160.1(2) . 2_656
O14 Mo4 O13 100.1(2) . .
O14 Mo4 O16 94.9(2) . .
O15 Mo4 O2 162.4(2) . 2_656
O15 Mo4 O4 93.1(2) . 2_656
O15 Mo4 O13 98.3(2) . .
O15 Mo4 O14 105.6(3) . .
O15 Mo4 O16 102.3(2) . .
O16 Mo4 O2 81.79(19) . 2_656
O16 Mo4 O4 74.07(17) . 2_656
O4 Mo5 Co1 75.69(11) 2_656 .
O16 Mo5 Co1 123.07(15) . .
O16 Mo5 O4 74.30(17) . 2_656
O16 Mo5 O19 146.87(19) . .
O16 Mo5 O20 85.00(17) . .
O17 Mo5 Co1 131.91(18) . .
O17 Mo5 O4 97.0(2) . 2_656
O17 Mo5 O16 99.0(2) . .
O17 Mo5 O18 105.3(3) . .
O17 Mo5 O19 93.5(2) . .
O17 Mo5 O20 164.6(2) . .
O18 Mo5 Co1 87.07(17) . .
O18 Mo5 O4 157.5(2) . 2_656
O18 Mo5 O16 104.4(2) . .
O18 Mo5 O19 101.6(2) . .
O18 Mo5 O20 87.9(2) . .
O19 Mo5 Co1 38.47(14) . .
O19 Mo5 O4 73.80(17) . 2_656
O19 Mo5 O20 75.76(19) . .
O20 Mo5 Co1 39.12(10) . .
O20 Mo5 O4 69.63(16) . 2_656
Co1 O1 Mo2 103.03(19) . 2_656
Co1 O1 Mo3 102.59(18) . 2_656
Mo2 O1 Mo3 93.38(16) 2_656 2_656
Co1 O2 Mo3 102.56(18) . 2_656
Co1 O2 Mo4 100.59(19) . 2_656
Mo4 O2 Mo3 93.55(16) 2_656 2_656
Co1 O3 Co1 95.5(3) 2_656 .
Co1 O3 Mo1 100.64(9) . 2_656
Co1 O3 Mo1 91.11(8) 2_656 2_656
Co1 O3 Mo1 91.11(8) . .
Co1 O3 Mo1 100.64(9) 2_656 .
Mo1 O3 Mo1 162.5(3) . 2_656
Co1 O4 Mo1 100.84(19) . .
Co1 O4 Mo4 101.51(19) . 2_656
Co1 O4 Mo5 100.96(19) . 2_656
Mo1 O4 Mo4 150.8(2) . 2_656
Mo1 O4 Mo5 102.13(18) . 2_656
Mo4 O4 Mo5 91.82(15) 2_656 2_656
Mo1 O7 Mo2 117.6(2) . .
Mo3 O10 Mo2 117.8(2) . .
Mo4 O13 Mo3 117.3(2) . .
Mo5 O16 Mo4 115.3(2) . .
Co1 O19 Mo1 102.3(2) . 2_656
Co1 O19 Mo2 99.14(18) . 2_656
Co1 O19 Mo5 100.4(2) . .
Mo1 O19 Mo2 88.81(15) 2_656 2_656
Mo5 O19 Mo1 103.22(18) . 2_656
Mo5 O19 Mo2 154.2(2) . 2_656
Co1 O20 Co1 94.5(3) . 2_656
Co1 O20 Mo5 102.59(10) . 2_656
Co1 O20 Mo5 91.50(8) 2_656 2_656
Co1 O20 Mo5 91.50(8) . .
Co1 O20 Mo5 102.59(10) 2_656 .
Mo5 O20 Mo5 159.3(3) 2_656 .
loop_
_geom_bond_atom_site_label_1
_geom_bond_atom_site_label_2
_geom_bond_distance
_geom_bond_site_symmetry_2
C1 C2 1.385(12) .
C1 N1 1.330(10) .
C2 N2 1.302(11) .
C3 C4 1.398(11) .
C3 N2 1.338(11) .
C4 C5 1.490(11) .
C4 N1 1.350(9) .
C5 N3 1.308(9) .
C5 O23 1.252(8) .
C6 C7 1.525(12) .
C6 N3 1.471(10) .
C7 C8 1.467(13) .
C8 C8 1.532(19) 7_567
Cu1 N1 1.992(6) .
Cu1 O21 1.954(5) .
Cu1 O22 1.934(6) .
Cu1 O23 1.951(5) .
Co1 Co1 2.7684(16) 2_656
Co1 Mo1 3.0132(10) .
Co1 Mo5 2.9863(10) .
Co1 O1 1.934(4) .
Co1 O2 1.937(4) .
Co1 O3 1.869(4) .
Co1 O4 1.908(5) .
Co1 O19 1.889(5) .
Co1 O20 1.885(4) .
Mo1 O3 2.3272(11) .
Mo1 O4 2.001(4) .
Mo1 O5 1.724(5) .
Mo1 O6 1.704(5) .
Mo1 O7 1.881(4) .
Mo1 O19 2.264(4) 2_656
Mo2 O1 2.253(5) 2_656
Mo2 O7 1.938(4) .
Mo2 O8 1.706(5) .
Mo2 O9 1.686(5) .
Mo2 O10 1.941(5) .
Mo2 O19 2.403(4) 2_656
Mo3 O1 2.288(4) 2_656
Mo3 O2 2.287(4) 2_656
Mo3 O10 1.919(5) .
Mo3 O11 1.690(5) .
Mo3 O12 1.707(5) .
Mo3 O13 1.952(5) .
Mo4 O2 2.262(5) 2_656
Mo4 O4 2.262(4) 2_656
Mo4 O13 1.929(5) .
Mo4 O14 1.710(5) .
Mo4 O15 1.706(6) .
Mo4 O16 1.962(4) .
Mo5 O4 2.292(4) 2_656
Mo5 O16 1.910(5) .
Mo5 O17 1.703(6) .
Mo5 O18 1.721(5) .
Mo5 O19 1.998(4) .
Mo5 O20 2.2673(13) .
O1 Mo2 2.253(5) 2_656
O1 Mo3 2.288(4) 2_656
O2 Mo3 2.287(4) 2_656
O2 Mo4 2.262(5) 2_656
O3 Co1 1.869(4) 2_656
O3 Mo1 2.3272(11) 2_656
O4 Mo4 2.262(4) 2_656
O4 Mo5 2.292(4) 2_656
O19 Mo1 2.264(4) 2_656
O19 Mo2 2.403(4) 2_656
O20 Co1 1.885(4) 2_656
O20 Mo5 2.2673(12) 2_656
loop_
_smtbx_masks_void_nr
_smtbx_masks_void_average_x
_smtbx_masks_void_average_y
_smtbx_masks_void_average_z
_smtbx_masks_void_volume
_smtbx_masks_void_count_electrons
_smtbx_masks_void_content
1 -0.475 0.002 -0.673 1746.5 737.6 H2O
