#------------------------------------------------------------------------------
#$Date: 2019-11-07 23:24:18 +0200 (Thu, 07 Nov 2019) $
#$Revision: 224007 $
#$URL: file:///home/coder/svn-repositories/cod/cif/7/04/84/7048450.cif $
#------------------------------------------------------------------------------
#
# This file is available in the Crystallography Open Database (COD),
# http://www.crystallography.net/
#
# All data on this site have been placed in the public domain by the
# contributors.
#
data_7048450
loop_
_publ_author_name
'Wang, Dong'
'Hu, Zhiyong'
'Xu, Shasha'
'Li, Dandan'
'Zhang, Qiong'
'Ma, Wen'
'Zhou, Hongping'
'Wu, Jieying'
'Tian, Yupeng'
_publ_section_title
;
 Fluorescent metal-organic frameworks based on mixed organic ligands: new
 candidates for highly sensitive detection of TNP.
;
_journal_issue                   5
_journal_name_full
'Dalton transactions (Cambridge, England : 2003)'
_journal_page_first              1900
_journal_page_last               1905
_journal_paper_doi               10.1039/c8dt03811b
_journal_volume                  48
_journal_year                    2019
_chemical_formula_sum            'C31 H23 N6 O4.5 Zn'
_chemical_formula_weight         616.92
_space_group_crystal_system      monoclinic
_space_group_IT_number           15
_space_group_name_Hall           '-C 2yc'
_space_group_name_H-M_alt        'C 1 2/c 1'
_symmetry_space_group_name_Hall  '-C 2yc'
_symmetry_space_group_name_H-M   'C 1 2/c 1'
_atom_sites_solution_hydrogens   geom
_audit_creation_method           SHELXL-2018/3
_audit_update_record
;
2018-11-12 deposited with the CCDC.
2019-01-02 downloaded from the CCDC.
;
_cell_angle_alpha                90
_cell_angle_beta                 91.7250(10)
_cell_angle_gamma                90
_cell_formula_units_Z            8
_cell_length_a                   26.9949(19)
_cell_length_b                   10.8305(7)
_cell_length_c                   21.8868(13)
_cell_measurement_reflns_used    8797
_cell_measurement_temperature    296(2)
_cell_measurement_theta_max      26.77
_cell_measurement_theta_min      2.22
_cell_volume                     6396.1(7)
_computing_cell_refinement       'Bruker SMART'
_computing_data_collection       'Bruker SMART'
_computing_data_reduction        'Bruker SAINT'
_computing_molecular_graphics    'Bruker SHELXTL'
_computing_publication_material  'Bruker SHELXTL'
_computing_structure_refinement  'SHELXL-2018/3 (Sheldrick, 2018)'
_computing_structure_solution    'Bruker SHELXTL'
_diffrn_ambient_temperature      296(2)
_diffrn_measured_fraction_theta_full 0.999
_diffrn_measured_fraction_theta_max 0.999
_diffrn_measurement_device_type  'Bruker Apex2 CCD'
_diffrn_measurement_method       'phi and omega scans'
_diffrn_radiation_type           MoK\a
_diffrn_radiation_wavelength     0.71073
_diffrn_reflns_av_R_equivalents  0.0292
_diffrn_reflns_av_unetI/netI     0.0266
_diffrn_reflns_Laue_measured_fraction_full 0.999
_diffrn_reflns_Laue_measured_fraction_max 0.999
_diffrn_reflns_limit_h_max       32
_diffrn_reflns_limit_h_min       -32
_diffrn_reflns_limit_k_max       12
_diffrn_reflns_limit_k_min       -12
_diffrn_reflns_limit_l_max       25
_diffrn_reflns_limit_l_min       -26
_diffrn_reflns_number            22134
_diffrn_reflns_point_group_measured_fraction_full 0.999
_diffrn_reflns_point_group_measured_fraction_max 0.999
_diffrn_reflns_theta_full        24.994
_diffrn_reflns_theta_max         24.994
_diffrn_reflns_theta_min         1.509
_exptl_absorpt_coefficient_mu    0.812
_exptl_absorpt_correction_T_max  0.909
_exptl_absorpt_correction_T_min  0.881
_exptl_absorpt_correction_type   multi-scan
_exptl_absorpt_process_details   '(SADABS; Sheldrick, 2003)'
_exptl_crystal_colour            colorless
_exptl_crystal_density_diffrn    1.281
_exptl_crystal_description       block
_exptl_crystal_F_000             2536
_exptl_crystal_size_max          0.160
_exptl_crystal_size_mid          0.130
_exptl_crystal_size_min          0.120
_refine_diff_density_max         0.783
_refine_diff_density_min         -0.275
_refine_diff_density_rms         0.083
_refine_ls_extinction_method     none
_refine_ls_goodness_of_fit_ref   1.226
_refine_ls_hydrogen_treatment    constr
_refine_ls_matrix_type           full
_refine_ls_number_parameters     415
_refine_ls_number_reflns         5626
_refine_ls_number_restraints     72
_refine_ls_restrained_S_all      1.239
_refine_ls_R_factor_all          0.0485
_refine_ls_R_factor_gt           0.0414
_refine_ls_shift/su_max          0.001
_refine_ls_shift/su_mean         0.000
_refine_ls_structure_factor_coef Fsqd
_refine_ls_weighting_details
'w=1/[\s^2^(Fo^2^)+(0.0795P)^2^+2.5441P] where P=(Fo^2^+2Fc^2^)/3'
_refine_ls_weighting_scheme      calc
_refine_ls_wR_factor_gt          0.1339
_refine_ls_wR_factor_ref         0.1374
_reflns_Friedel_coverage         0.000
_reflns_number_gt                4772
_reflns_number_total             5626
_reflns_threshold_expression     'I > 2\s(I)'
_cod_data_source_file            c8dt03811b2.cif
_cod_data_source_block           AHU-TW1
_cod_depositor_comments
'Adding full bibliography for 7048445--7048450.cif.'
_cod_original_formula_sum        'C31 H23 N6 O4.50 Zn'
_cod_database_code               7048450
_shelx_shelxl_version_number     2018/3
_shelx_space_group_comment
;
The symmetry employed for this shelxl refinement is uniquely defined
by the following loop, which should always be used as a source of
symmetry information in preference to the above space-group names.
They are only intended as comments.
;
_shelx_estimated_absorpt_t_min   0.881
_shelx_estimated_absorpt_t_max   0.909
_exptl_absorpt_special_details
'The Rint before and after absorption are 0.0296 and 0.0292, respectively'
_shelx_res_file
;

TITL 1 in C2/c
    1_sq.res
    created by SHELXL-2018/3 at 22:22:25 on 29-Oct-2018
CELL 0.71073  26.9949  10.8305  21.8868  90.000  91.725  90.000
ZERR   8.00   0.0019   0.0007   0.0013   0.000   0.001   0.000
LATT 7
SYMM -X, Y, 0.5-Z
SFAC C  H  N  O  Zn
UNIT 248 184 48 36 8
OMIT   0.00  50.00
L.S. 24 0   19
ACTA
BOND $H
FMAP 2
PLAN 20
isor 0.01 c4 c3 o1w o2w o3w o4w
CONF
TEMP 23.000
size 0.12 0.13 0.16
simu 0.01 0.02 2.0 o1w o2w o3w o4w

abin

WGHT    0.079500    2.544100
FVAR       0.05361
ZN1   5    0.227635    0.880148    0.196317    11.00000    0.03593    0.03232 =
         0.02585    0.00318    0.00014   -0.00491
N3    3    0.186797    1.184815    0.091524    11.00000    0.03696    0.03276 =
         0.02386    0.00170    0.00237    0.00518
O3    4    0.178595    0.746560    0.184785    11.00000    0.04630    0.04584 =
         0.04039   -0.00233   -0.00627   -0.01375
N4    3    0.194173    1.176885   -0.013651    11.00000    0.03488    0.03185 =
         0.02675    0.00138    0.00236    0.00310
N2    3    0.201996    1.038316    0.158975    11.00000    0.03942    0.03783 =
         0.02603    0.00208   -0.00127   -0.00017
C24   1    0.182282    1.245308    0.033749    11.00000    0.03333    0.03564 =
         0.02500    0.00284    0.00317    0.00336
C23   1    0.200361    1.065681    0.100199    11.00000    0.04334    0.03220 =
         0.02549    0.00086    0.00154    0.00271
AFIX  43
H23   2    0.207538    1.010696    0.069050    11.00000   -1.20000
AFIX   0
C19   1    0.124028    0.634216    0.119723    11.00000    0.03206    0.03396 =
         0.03953   -0.00571    0.00015    0.00136
C22   1    0.179365    1.235303    0.148501    11.00000    0.05406    0.04153 =
         0.02987   -0.00392    0.00378    0.01064
AFIX  43
H22   2    0.169753    1.315757    0.157096    11.00000   -1.20000
AFIX   0
C11   1   -0.029770    0.363396    0.112389    11.00000    0.03018    0.04540 =
         0.05295   -0.00821   -0.00179   -0.00432
C14   1    0.097473    0.628665    0.064421    11.00000    0.04922    0.04014 =
         0.04240   -0.00040   -0.00676    0.00083
AFIX  43
H14   2    0.103796    0.685713    0.033869    11.00000   -1.20000
AFIX   0
C28   1    0.190622    1.230969   -0.067965    11.00000    0.03711    0.03459 =
         0.02642    0.00110    0.00503    0.00477
C18   1    0.114257    0.548210    0.164999    11.00000    0.03552    0.04029 =
         0.03756   -0.00481   -0.00034   -0.00272
AFIX  43
H18   2    0.131391    0.551704    0.202464    11.00000   -1.20000
AFIX   0
N1    3    0.016728    0.356364    0.086741    11.00000    0.03322    0.05011 =
         0.07763   -0.02878    0.00701   -0.00816
C25   1    0.167237    1.366944    0.030508    11.00000    0.06162    0.03900 =
         0.03220    0.00002    0.00926    0.01624
AFIX  43
H25   2    0.159542    1.411421    0.065309    11.00000   -1.20000
AFIX   0
C21   1    0.188860    1.144443    0.188920    11.00000    0.05350    0.04415 =
         0.02438   -0.00097    0.00021    0.00757
AFIX  43
H21   2    0.186842    1.152182    0.231090    11.00000   -1.20000
AFIX   0
O4    4    0.180323    0.786390    0.085705    11.00000    0.10414    0.07205 =
         0.05190    0.00441    0.00157   -0.04589
C16   1    0.052679    0.451759    0.098769    11.00000    0.02640    0.04754 =
         0.05545   -0.01692    0.00477   -0.00398
C20   1    0.163415    0.730218    0.130042    11.00000    0.04229    0.03746 =
         0.04340   -0.00269    0.00219   -0.00501
C27   1    0.175842    1.351782   -0.077523    11.00000    0.07154    0.04294 =
         0.03017    0.01059    0.01076    0.01574
AFIX  43
H27   2    0.173886    1.385841   -0.116527    11.00000   -1.20000
AFIX   0
C15   1    0.061632    0.538708    0.054478    11.00000    0.03928    0.05385 =
         0.04803   -0.01242   -0.01347    0.00378
AFIX  43
H15   2    0.043501    0.537001    0.017677    11.00000   -1.20000
AFIX   0
C17   1    0.078924    0.457257    0.154167    11.00000    0.04071    0.04532 =
         0.04902   -0.00196    0.00887   -0.00822
AFIX  43
H17   2    0.072758    0.399325    0.184367    11.00000   -1.20000
AFIX   0
C12   1   -0.064993    0.269354    0.103174    11.00000    0.03991    0.04757 =
         0.07508   -0.02278    0.00181   -0.00719
AFIX  43
H12   2   -0.056771    0.199110    0.081242    11.00000   -1.20000
AFIX   0
C26   1    0.164186    1.419198   -0.026865    11.00000    0.08800    0.03651 =
         0.04002    0.00636    0.01366    0.02499
AFIX  43
H26   2    0.154133    1.500921   -0.031301    11.00000   -1.20000
AFIX   0
C10   1   -0.043442    0.468164    0.145468    11.00000    0.03651    0.04156 =
         0.05685   -0.01058    0.00085   -0.01012
AFIX  43
H10   2   -0.020781    0.531821    0.152034    11.00000   -1.20000
AFIX   0
C6    1    0.035982    0.241046    0.064494    11.00000    0.03098    0.05573 =
         0.11067   -0.03740    0.00377   -0.00722
C2    1    0.064667    0.115992   -0.018983    11.00000    0.11131    0.14562 =
         0.14872   -0.09154    0.02689   -0.01434
AFIX  43
H2    2    0.069961    0.104577   -0.060392    11.00000   -1.20000
AFIX   0
C4    1    0.070111    0.037367    0.080543    11.00000    0.09734    0.07857 =
         0.19854   -0.01230   -0.01679    0.00867
AFIX  43
H4    2    0.079190   -0.027505    0.106370    11.00000   -1.20000
AFIX   0
C5    1    0.048833    0.148233    0.104757    11.00000    0.07911    0.06702 =
         0.16801   -0.02546   -0.00148    0.00082
AFIX  43
H5    2    0.043922    0.156823    0.146417    11.00000   -1.20000
AFIX   0
C1    1    0.043510    0.227622    0.003098    11.00000    0.09180    0.09796 =
         0.10916   -0.05755    0.01555   -0.00444
AFIX  43
H1    2    0.034882    0.290843   -0.023938    11.00000   -1.20000
AFIX   0
N5    3    0.204651    1.156587   -0.118328    11.00000    0.04335    0.03251 =
         0.02583    0.00133    0.00462    0.00504
C9    1   -0.090502    0.477301    0.168398    11.00000    0.03958    0.04131 =
         0.04557   -0.00610    0.00354   -0.00220
AFIX  43
H9    2   -0.098958    0.547509    0.190217    11.00000   -1.20000
AFIX   0
C31   1    0.225086    1.039400   -0.115139    11.00000    0.06526    0.03510 =
         0.02943    0.00222   -0.00362    0.01144
AFIX  43
H31   2    0.230548    0.991978   -0.080158    11.00000   -1.20000
AFIX   0
C29   1    0.203038    1.189419   -0.177602    11.00000    0.04035    0.03680 =
         0.02700    0.00131    0.00057    0.00812
AFIX  43
H29   2    0.190586    1.264145   -0.192295    11.00000   -1.20000
AFIX   0
C3    1    0.076507    0.029159    0.021580    11.00000    0.08811    0.10438 =
         0.17831   -0.05979    0.00382   -0.00125
AFIX  43
H3    2    0.090444   -0.043244    0.007043    11.00000   -1.20000
AFIX   0
N6    3    0.221336    1.102242   -0.212095    11.00000    0.04573    0.03761 =
         0.02581   -0.00182   -0.00195    0.00808
C8    1   -0.125570    0.384026    0.159648    11.00000    0.03245    0.04109 =
         0.03926    0.00344   -0.00133   -0.00292
C7    1   -0.176794    0.401474    0.182016    11.00000    0.03526    0.04180 =
         0.03278    0.01012   -0.00172   -0.00186
C30   1    0.235430    1.008019   -0.172744    11.00000    0.06211    0.03649 =
         0.03397   -0.00284   -0.00488    0.01608
AFIX  43
H30   2    0.249891    0.934053   -0.184374    11.00000   -1.20000
AFIX   0
C13   1   -0.111839    0.280442    0.126487    11.00000    0.03743    0.04641 =
         0.06849   -0.00959    0.00124   -0.01112
AFIX  43
H13   2   -0.134700    0.217249    0.119862    11.00000   -1.20000
AFIX   0
O2    4   -0.188007    0.498974    0.208096    11.00000    0.04114    0.05224 =
         0.04575    0.00014    0.00618   -0.00122
O1    4   -0.208157    0.315075    0.171909    11.00000    0.03571    0.04591 =
         0.06072   -0.00137    0.00467   -0.00607
part 1
O1W   4    0.085995    0.798082    0.263455    10.12500    0.09986    0.07684 =
         0.10846   -0.01195    0.01674   -0.00532
part 2
O2W   4    0.042883    0.799780    0.263416    10.12500    0.11150    0.08356 =
         0.12161   -0.00776    0.00237   -0.00450
part 3
O3W   4    0.080797    0.920283    0.277763    10.12500    0.10364    0.07287 =
         0.11432   -0.01118    0.00674   -0.00171
part 4
O4W   4    0.070387    0.836621    0.294166    10.12500    0.11078    0.08237 =
         0.11785   -0.01238    0.00459   -0.00698

HKLF 4




REM  1 in C2/c
REM wR2 = 0.1374, GooF = S = 1.226, Restrained GooF = 1.239 for all data
REM R1 = 0.0414 for 4772 Fo > 4sig(Fo) and 0.0485 for all 5626 data
REM 415 parameters refined using 72 restraints

END

WGHT      0.0911      2.1676

REM Highest difference peak  0.783,  deepest hole -0.275,  1-sigma level  0.083
Q1    1   0.0777  0.8459  0.2448  11.00000  0.05    0.78
Q2    1   0.0809  0.9330  0.2464  11.00000  0.05    0.73
Q3    1   0.0870  0.9427  0.2874  11.00000  0.05    0.62
Q4    1   0.0632  0.9157  0.2926  11.00000  0.05    0.56
Q5    1   0.0391  0.8273  0.2986  11.00000  0.05    0.55
Q6    1   0.0115  0.7957  0.2691  11.00000  0.05    0.54
Q7    1   0.1507  0.8295  0.1019  11.00000  0.05    0.46
Q8    1   0.1840  1.2171  0.0607  11.00000  0.05    0.27
Q9    1   0.0177  0.3372  0.1196  11.00000  0.05    0.24
Q10   1   0.0679  0.0354  0.1163  11.00000  0.05    0.24
Q11   1   0.0600  0.1790 -0.0525  11.00000  0.05    0.24
Q12   1   0.1829  1.1218  0.0902  11.00000  0.05    0.23
Q13   1   0.0795 -0.0063  0.0470  11.00000  0.05    0.23
Q14   1   0.0228  0.3114  0.0704  11.00000  0.05    0.23
Q15   1   0.1865  0.7524  0.0974  11.00000  0.05    0.22
Q16   1   0.0792  0.0462 -0.0207  11.00000  0.05    0.22
Q17   1   0.1581  1.2980  0.0272  11.00000  0.05    0.21
Q18   1   0.1682  1.2802 -0.0747  11.00000  0.05    0.21
Q19   1   0.2266  1.1073 -0.2488  11.00000  0.05    0.20
Q20   1   0.0386  0.0817 -0.0051  11.00000  0.05    0.20
;
_shelx_res_checksum              96774
_shelx_fab_file
;
    1    1    0     45.58      0.00
    2    2    0     23.03      0.00
    3    3    0      1.77      0.00
    4    4    0     -8.00      0.00
    5    5    0     -3.04      0.00
    6    6    0     -9.92      0.00
    7    7    0     -1.31      0.00
    8    8    0     -0.45      0.00
    9    9    0     -0.70      0.00
   10   10    0      1.17      0.00
   11   11    0      0.80      0.00
   10   12    0      0.27      0.00
    9   11    0      0.22      0.00
    8   10    0     -1.94      0.00
    7    9    0     -1.50      0.00
    6    8    0     -3.95      0.00
    5    7    0     -4.41      0.00
    4    6    0      1.76      0.00
    3    5    0     -2.95      0.00
    2    4    0     22.49      0.00
    1    3    0     14.05      0.00
    0    2    0    -15.85      0.00
    2    0    0     17.80      0.00
    3    1    0     20.43      0.00
    4    2    0    -36.45      0.00
    5    3    0    -12.94      0.00
    6    4    0      1.99      0.00
    7    5    0    -10.14      0.00
    8    6    0     -1.49      0.00
    9    7    0     -0.89      0.00
   10    8    0      0.10      0.00
   11    9    0      1.29      0.00
   12   10    0     -0.41      0.00
   13   11    0      1.04      0.00
    8   12    0     -0.07      0.00
    7   11    0     -1.40      0.00
    6   10    0     -0.87      0.00
    5    9    0     -3.36      0.00
    4    8    0     -1.46      0.00
    3    7    0      0.57      0.00
    2    6    0     -4.66      0.00
    1    5    0     10.49      0.00
    0    4    0     10.33      0.00
    4    0    0     71.26      0.00
    5    1    0     -6.68      0.00
    6    2    0    -20.23      0.00
    7    3    0    -11.59      0.00
    8    4    0     -5.03      0.00
    9    5    0      0.08      0.00
   10    6    0     -0.95      0.00
   11    7    0      3.25      0.00
   12    8    0      2.53      0.00
   13    9    0      0.60      0.00
   14   10    0      1.18      0.00
   15   11    0     -0.49      0.00
    6   12    0     -1.77      0.00
    5   11    0     -0.28      0.00
    4   10    0     -2.33      0.00
    3    9    0      0.07      0.00
    2    8    0      0.31      0.00
    1    7    0      4.36      0.00
    0    6    0     14.82      0.00
    6    0    0     -8.50      0.00
    7    1    0     -6.82      0.00
    8    2    0    -19.54      0.00
    9    3    0      2.47      0.00
   10    4    0      7.08      0.00
   11    5    0     -0.70      0.00
   12    6    0      0.83      0.00
   13    7    0      0.39      0.00
   14    8    0      0.10      0.00
   15    9    0      0.65      0.00
   16   10    0     -1.39      0.00
    4   12    0     -0.26      0.00
    3   11    0     -0.12      0.00
    2   10    0      2.53      0.00
    1    9    0      1.29      0.00
    0    8    0      4.05      0.00
    8    0    0     16.59      0.00
    9    1    0     -7.09      0.00
   10    2    0     -6.77      0.00
   11    3    0     -0.19      0.00
   12    4    0      2.74      0.00
   13    5    0     -0.12      0.00
   14    6    0     -0.78      0.00
   15    7    0      1.21      0.00
   16    8    0      0.91      0.00
   17    9    0     -0.26      0.00
    2   12    0      0.18      0.00
    1   11    0      2.32      0.00
    0   10    0      0.12      0.00
   10    0    0      8.17      0.00
   11    1    0      5.57      0.00
   12    2    0     -0.78      0.00
   13    3    0      7.35      0.00
   14    4    0      2.45      0.00
   15    5    0     -1.59      0.00
   16    6    0     -0.70      0.00
   17    7    0     -0.77      0.00
   18    8    0      0.07      0.00
   19    9    0     -0.09      0.00
    0   12    0      2.42      0.00
   12    0    0      6.63      0.00
   13    1    0     -3.73      0.00
   14    2    0     -1.54      0.00
   15    3    0     -1.22      0.00
   16    4    0     -0.85      0.00
   17    5    0     -0.66      0.00
   18    6    0      0.11      0.00
   19    7    0      1.09      0.00
   20    8    0      0.17      0.00
   21    9    0      0.61      0.00
   14    0    0     -0.03      0.00
   15    1    0     -0.48      0.00
   16    2    0     -0.86      0.00
   17    3    0      2.09      0.00
   18    4    0      0.45      0.00
   19    5    0      0.14      0.00
   20    6    0      0.76      0.00
   21    7    0      0.32      0.00
   22    8    0      0.91      0.00
   16    0    0     -1.46      0.00
   17    1    0     -2.51      0.00
   18    2    0      0.46      0.00
   19    3    0      0.61      0.00
   20    4    0     -0.01      0.00
   21    5    0      0.70      0.00
   22    6    0      1.16      0.00
   23    7    0      0.36      0.00
   24    8    0     -0.79      0.00
   18    0    0     -1.18      0.00
   19    1    0      0.46      0.00
   20    2    0      1.91      0.00
   21    3    0      0.89      0.00
   22    4    0     -0.72      0.00
   23    5    0      0.23      0.00
   24    6    0      0.43      0.00
   25    7    0     -0.15      0.00
   20    0    0      0.34      0.00
   21    1    0      0.79      0.00
   22    2    0      1.43      0.00
   23    3    0     -0.67      0.00
   24    4    0     -0.92      0.00
   25    5    0     -0.29      0.00
   26    6    0     -0.07      0.00
   22    0    0     -0.60      0.00
   23    1    0      0.35      0.00
   24    2    0     -0.07      0.00
   25    3    0     -0.72      0.00
   26    4    0     -1.04      0.00
   27    5    0     -0.50      0.00
   28    6    0     -0.13      0.00
   24    0    0      0.19      0.00
   25    1    0     -0.31      0.00
   26    2    0      0.82      0.00
   27    3    0     -0.26      0.00
   28    4    0     -0.67      0.00
   29    5    0     -0.12      0.00
   26    0    0     -1.99      0.00
   27    1    0      0.02      0.00
   28    2    0      0.21      0.00
   29    3    0     -0.29      0.00
   30    4    0     -0.57      0.00
   18   10    0     -0.89      0.00
   28    0    0      0.21      0.00
   29    1    0     -0.03      0.00
   30    2    0      0.57      0.00
   31    3    0     -0.11      0.00
   20   10    0     -0.33      0.00
   30    0    0     -1.48      0.00
   31    1    0     -0.51      0.00
   32    0    0     -0.51      0.00
  -31    3    1      0.16      0.00
  -30    4    1      0.25      0.00
  -29    5    1     -0.66      0.00
  -28    6    1     -0.67      0.00
  -31    1    1      0.29      0.00
  -30    2    1      0.09      0.00
  -29    3    1      0.76      0.00
  -28    4    1     -0.23      0.00
  -27    5    1     -0.80      0.00
  -26    6    1     -0.58      0.00
  -25    7    1     -0.80      0.00
  -29    1    1     -1.00      0.00
  -28    2    1      0.58      0.00
  -27    3    1      0.76      0.00
  -26    4    1      0.08      0.00
  -25    5    1     -0.87      0.00
  -24    6    1     -0.46      0.00
  -23    7    1     -0.27      0.00
  -21    9    1      0.28      0.00
  -20   10    1      1.11      0.00
  -27    1    1      0.78      0.00
  -26    2    1      0.77      0.00
  -25    3    1      1.28      0.00
  -24    4    1      0.13      0.00
  -23    5    1     -0.25      0.00
  -22    6    1     -0.27      0.00
  -21    7    1     -0.05      0.00
  -20    8    1     -0.66      0.00
  -19    9    1      0.31      0.00
  -18   10    1      1.38      0.00
  -25    1    1     -1.24      0.00
  -24    2    1      0.17      0.00
  -23    3    1      0.80      0.00
  -22    4    1     -0.08      0.00
  -21    5    1     -0.37      0.00
  -20    6    1      0.92      0.00
  -19    7    1      0.32      0.00
  -18    8    1      0.54      0.00
  -17    9    1     -0.13      0.00
  -16   10    1      0.09      0.00
  -15   11    1     -0.41      0.00
  -23    1    1     -0.13      0.00
  -22    2    1      0.37      0.00
  -21    3    1      0.90      0.00
  -20    4    1      0.88      0.00
  -19    5    1      0.08      0.00
  -18    6    1     -0.36      0.00
  -17    7    1      0.72      0.00
  -16    8    1     -0.13      0.00
  -15    9    1      0.97      0.00
  -14   10    1      0.69      0.00
  -13   11    1      0.89      0.00
  -21    1    1     -0.75      0.00
  -20    2    1     -0.40      0.00
  -19    3    1      1.57      0.00
  -18    4    1      0.05      0.00
  -17    5    1      0.08      0.00
  -16    6    1      0.08      0.00
  -15    7    1     -0.78      0.00
  -14    8    1      0.13      0.00
  -13    9    1     -1.26      0.00
  -12   10    1     -0.56      0.00
  -11   11    1     -0.98      0.00
  -10   12    1      0.18      0.00
  -19    1    1     -0.72      0.00
  -18    2    1      0.52      0.00
  -17    3    1     -0.60      0.00
  -16    4    1      0.74      0.00
  -15    5    1     -1.86      0.00
  -14    6    1     -2.91      0.00
  -13    7    1     -0.33      0.00
  -12    8    1     -0.24      0.00
  -11    9    1      0.83      0.00
  -10   10    1      0.16      0.00
   -9   11    1      0.08      0.00
   -8   12    1     -0.15      0.00
  -17    1    1     -0.69      0.00
  -16    2    1     -3.91      0.00
  -15    3    1     -1.39      0.00
  -14    4    1     -2.27      0.00
  -13    5    1      0.18      0.00
  -12    6    1     -0.17      0.00
  -11    7    1     -0.62      0.00
  -10    8    1      0.44      0.00
   -9    9    1     -1.47      0.00
   -8   10    1     -1.47      0.00
   -7   11    1     -1.73      0.00
   -6   12    1     -1.21      0.00
  -24    8    1     -0.99      0.00
  -15    1    1      0.65      0.00
  -14    2    1      1.76      0.00
  -13    3    1     -3.93      0.00
  -12    4    1      1.96      0.00
  -11    5    1     -0.63      0.00
  -10    6    1     -3.04      0.00
   -9    7    1     -0.32      0.00
   -8    8    1     -0.25      0.00
   -7    9    1     -0.05      0.00
   -6   10    1     -0.43      0.00
   -5   11    1     -0.23      0.00
   -4   12    1      0.73      0.00
  -22    8    1     -0.87      0.00
  -13    1    1      2.15      0.00
  -12    2    1     -6.43      0.00
  -11    3    1     -1.04      0.00
  -10    4    1      2.01      0.00
   -9    5    1      5.99      0.00
   -8    6    1      1.87      0.00
   -7    7    1     -0.23      0.00
   -6    8    1     -0.84      0.00
   -5    9    1     -2.16      0.00
   -4   10    1     -1.33      0.00
   -3   11    1     -0.68      0.00
   -2   12    1      0.93      0.00
  -11    1    1      7.98      0.00
  -10    2    1      7.14      0.00
   -9    3    1     -4.34      0.00
   -8    4    1      2.76      0.00
   -7    5    1     -2.07      0.00
   -6    6    1     -3.70      0.00
   -5    7    1     -2.17      0.00
   -4    8    1      0.61      0.00
   -3    9    1      2.05      0.00
   -2   10    1      1.05      0.00
   -1   11    1      2.48      0.00
    0   12    1      1.83      0.00
   -9    1    1      8.16      0.00
   -8    2    1      0.07      0.00
   -7    3    1     -1.28      0.00
   -6    4    1      5.84      0.00
   -5    5    1     11.58      0.00
   -4    6    1      1.67      0.00
   -3    7    1      2.44      0.00
   -2    8    1      1.12      0.00
   -1    9    1     -0.95      0.00
    0   10    1      0.72      0.00
    1   11    1     -0.24      0.00
    2   12    1      1.78      0.00
   -7    1    1     31.92      0.00
   -6    2    1      7.30      0.00
   -5    3    1     -6.23      0.00
   -4    4    1     -1.53      0.00
   -3    5    1     -7.80      0.00
   -2    6    1     -0.66      0.00
   -1    7    1     -1.60      0.00
    0    8    1      1.25      0.00
    1    9    1      2.35      0.00
    2   10    1     -1.00      0.00
    3   11    1      0.96      0.00
    4   12    1      0.12      0.00
   -5    1    1     -4.15      0.00
   -4    2    1      2.70      0.00
   -3    3    1    -13.12      0.00
   -2    4    1      0.69      0.00
   -1    5    1     14.84      0.00
    0    6    1     -0.88      0.00
    1    7    1      2.24      0.00
    2    8    1      0.47      0.00
    3    9    1     -2.51      0.00
    4   10    1     -0.64      0.00
    5   11    1     -1.41      0.00
    6   12    1      0.87      0.00
   -3    1    1     63.92      0.00
   -2    2    1      0.47      0.00
   -1    3    1    -10.06      0.00
    0    4    1     -0.62      0.00
    1    5    1    -10.54      0.00
    2    6    1     -0.19      0.00
    3    7    1     -3.73      0.00
    4    8    1     -1.29      0.00
    5    9    1      0.23      0.00
    6   10    1     -1.91      0.00
    7   11    1      0.28      0.00
    8   12    1      0.92      0.00
   -1    1    1    -23.67      0.00
    0    2    1     -2.10      0.00
    1    3    1    -17.05      0.00
    2    4    1     -4.43      0.00
    3    5    1     11.27      0.00
    4    6    1     -5.83      0.00
    5    7    1     -0.83      0.00
    6    8    1      0.02      0.00
    7    9    1     -1.53      0.00
    8   10    1     -0.47      0.00
    9   11    1     -0.78      0.00
   10   12    1      0.94      0.00
    1    1    1     68.43      0.00
    2    2    1      0.85      0.00
    3    3    1     -9.04      0.00
    4    4    1      5.86      0.00
    5    5    1     -4.81      0.00
    6    6    1      1.34      0.00
    7    7    1     -0.65      0.00
    8    8    1      1.01      0.00
    9    9    1      1.14      0.00
   10   10    1     -0.88      0.00
   11   11    1      1.10      0.00
    3    1    1    -10.67      0.00
    4    2    1      3.94      0.00
    5    3    1     -2.74      0.00
    6    4    1      2.74      0.00
    7    5    1      8.95      0.00
    8    6    1     -3.20      0.00
    9    7    1      0.01      0.00
   10    8    1      0.55      0.00
   11    9    1     -1.15      0.00
   12   10    1      0.10      0.00
   13   11    1     -0.56      0.00
    5    1    1     40.69      0.00
    6    2    1      1.86      0.00
    7    3    1     -4.22      0.00
    8    4    1      6.79      0.00
    9    5    1      1.19      0.00
   10    6    1      1.00      0.00
   11    7    1     -0.01      0.00
   12    8    1      0.56      0.00
   13    9    1      1.03      0.00
   14   10    1     -0.76      0.00
   15   11    1      1.15      0.00
    7    1    1      9.03      0.00
    8    2    1      8.59      0.00
    9    3    1      1.95      0.00
   10    4    1      5.24      0.00
   11    5    1      2.61      0.00
   12    6    1     -3.42      0.00
   13    7    1     -1.26      0.00
   14    8    1     -0.26      0.00
   15    9    1     -0.83      0.00
    9    1    1     11.83      0.00
   10    2    1     -6.35      0.00
   11    3    1     -4.47      0.00
   12    4    1     -0.95      0.00
   13    5    1     -1.51      0.00
   14    6    1     -0.55      0.00
   15    7    1      0.08      0.00
   16    8    1      0.66      0.00
   17    9    1      0.46      0.00
   11    1    1      5.06      0.00
   12    2    1      2.58      0.00
   13    3    1     -2.52      0.00
   14    4    1      1.15      0.00
   15    5    1      0.35      0.00
   16    6    1     -0.90      0.00
   17    7    1      0.40      0.00
   18    8    1     -0.22      0.00
   19    9    1      0.38      0.00
   13    1    1      1.01      0.00
   14    2    1     -7.06      0.00
   15    3    1     -2.60      0.00
   16    4    1     -0.55      0.00
   17    5    1      0.05      0.00
   18    6    1      1.38      0.00
   19    7    1      0.59      0.00
   20    8    1      0.41      0.00
   21    9    1     -0.74      0.00
   15    1    1     -0.73      0.00
   16    2    1     -0.14      0.00
   17    3    1      0.40      0.00
   18    4    1      0.83      0.00
   19    5    1      0.22      0.00
   20    6    1      0.03      0.00
   21    7    1      0.41      0.00
   22    8    1     -0.54      0.00
   17    1    1     -0.33      0.00
   18    2    1     -1.14      0.00
   19    3    1      0.26      0.00
   20    4    1     -0.40      0.00
   21    5    1     -0.41      0.00
   22    6    1     -0.15      0.00
   23    7    1     -0.37      0.00
   24    8    1     -0.34      0.00
   19    1    1     -0.52      0.00
   20    2    1      0.04      0.00
   21    3    1      0.43      0.00
   22    4    1     -0.51      0.00
   23    5    1     -1.21      0.00
   24    6    1     -0.51      0.00
   25    7    1      0.31      0.00
   21    1    1     -0.25      0.00
   22    2    1     -0.07      0.00
   23    3    1      0.70      0.00
   24    4    1     -0.57      0.00
   25    5    1     -0.85      0.00
   26    6    1     -0.54      0.00
   23    1    1     -1.30      0.00
   24    2    1      0.49      0.00
   25    3    1      0.73      0.00
   26    4    1     -0.28      0.00
   27    5    1     -0.63      0.00
   28    6    1     -0.19      0.00
   25    1    1      0.21      0.00
   26    2    1      0.36      0.00
   27    3    1      0.72      0.00
   28    4    1      0.26      0.00
   29    5    1     -0.27      0.00
   16   10    1      0.45      0.00
   27    1    1     -1.29      0.00
   28    2    1      0.07      0.00
   29    3    1      0.50      0.00
   30    4    1     -0.18      0.00
   18   10    1      0.44      0.00
   29    1    1     -0.33      0.00
   30    2    1     -0.16      0.00
   31    3    1      0.11      0.00
   31    1    1     -1.16      0.00
  -31    3    2      0.81      0.00
  -30    4    2      0.54      0.00
  -29    5    2      0.61      0.00
  -28    6    2      0.45      0.00
  -32    0    2      0.97      0.00
  -31    1    2      0.43      0.00
  -30    2    2      1.13      0.00
  -29    3    2      0.31      0.00
  -28    4    2      0.49      0.00
  -27    5    2      0.31      0.00
  -26    6    2      0.14      0.00
  -25    7    2      0.62      0.00
  -30    0    2     -0.83      0.00
  -29    1    2      0.39      0.00
  -28    2    2     -0.05      0.00
  -27    3    2      0.44      0.00
  -26    4    2      0.38      0.00
  -25    5    2      0.19      0.00
  -24    6    2     -0.43      0.00
  -23    7    2      0.01      0.00
  -22    8    2      0.15      0.00
  -21    9    2     -0.44      0.00
  -20   10    2      0.46      0.00
  -28    0    2      1.50      0.00
  -27    1    2      0.65      0.00
  -26    2    2      0.90      0.00
  -25    3    2      0.34      0.00
  -24    4    2      0.50      0.00
  -23    5    2     -0.28      0.00
  -22    6    2     -0.57      0.00
  -21    7    2     -0.81      0.00
  -20    8    2     -0.31      0.00
  -19    9    2     -0.14      0.00
  -18   10    2      0.93      0.00
  -26    0    2     -0.36      0.00
  -25    1    2      0.31      0.00
  -24    2    2     -0.77      0.00
  -23    3    2     -1.03      0.00
  -22    4    2     -0.15      0.00
  -21    5    2     -0.34      0.00
  -20    6    2     -0.89      0.00
  -19    7    2      0.42      0.00
  -18    8    2     -0.65      0.00
  -17    9    2     -0.57      0.00
  -16   10    2     -0.54      0.00
  -15   11    2     -0.29      0.00
  -24    0    2      1.02      0.00
  -23    1    2     -0.26      0.00
  -22    2    2     -1.79      0.00
  -21    3    2     -0.85      0.00
  -20    4    2     -0.32      0.00
  -19    5    2      0.04      0.00
  -18    6    2      0.11      0.00
  -17    7    2     -0.85      0.00
  -16    8    2      0.28      0.00
  -15    9    2     -0.31      0.00
  -14   10    2      0.42      0.00
  -13   11    2     -0.59      0.00
  -22    0    2     -0.46      0.00
  -21    1    2     -1.13      0.00
  -20    2    2     -1.30      0.00
  -19    3    2     -1.75      0.00
  -18    4    2      1.32      0.00
  -17    5    2      1.14      0.00
  -16    6    2      0.49      0.00
  -15    7    2      0.33      0.00
  -14    8    2     -1.83      0.00
  -13    9    2     -1.73      0.00
  -12   10    2     -2.11      0.00
  -11   11    2     -1.15      0.00
  -10   12    2     -1.59      0.00
  -20    0    2     -0.28      0.00
  -19    1    2      0.47      0.00
  -18    2    2     -0.44      0.00
  -17    3    2      2.00      0.00
  -16    4    2      0.16      0.00
  -15    5    2      0.76      0.00
  -14    6    2     -0.65      0.00
  -13    7    2     -2.59      0.00
  -12    8    2     -0.65      0.00
  -11    9    2     -0.95      0.00
  -10   10    2      0.31      0.00
   -9   11    2      0.82      0.00
   -8   12    2      0.90      0.00
  -18    0    2      0.68      0.00
  -17    1    2      0.22      0.00
  -16    2    2      1.57      0.00
  -15    3    2     -2.51      0.00
  -14    4    2      0.32      0.00
  -13    5    2      0.02      0.00
  -12    6    2     -0.54      0.00
  -11    7    2     -0.42      0.00
  -10    8    2     -1.15      0.00
   -9    9    2     -0.12      0.00
   -8   10    2      0.46      0.00
   -7   11    2      1.20      0.00
   -6   12    2      1.23      0.00
  -24    8    2     -0.30      0.00
  -16    0    2      0.98      0.00
  -15    1    2      2.98      0.00
  -14    2    2      1.51      0.00
  -13    3    2      2.45      0.00
  -12    4    2     -4.42      0.00
  -11    5    2     -1.72      0.00
  -10    6    2     -0.94      0.00
   -9    7    2     -0.65      0.00
   -8    8    2      2.89      0.00
   -7    9    2      3.24      0.00
   -6   10    2      3.39      0.00
   -5   11    2      2.72      0.00
   -4   12    2      1.17      0.00
  -14    0    2     -4.15      0.00
  -13    1    2     -4.91      0.00
  -12    2    2      2.22      0.00
  -11    3    2     -4.49      0.00
  -10    4    2      1.48      0.00
   -9    5    2      5.09      0.00
   -8    6    2      6.44      0.00
   -7    7    2      4.59      0.00
   -6    8    2      3.27      0.00
   -5    9    2      2.31      0.00
   -4   10    2      0.24      0.00
   -3   11    2     -0.51      0.00
   -2   12    2     -1.56      0.00
  -12    0    2     -6.19      0.00
  -11    1    2      2.95      0.00
  -10    2    2      9.23      0.00
   -9    3    2      7.46      0.00
   -8    4    2     -1.93      0.00
   -7    5    2      3.28      0.00
   -6    6    2      1.18      0.00
   -5    7    2      2.30      0.00
   -4    8    2      3.03      0.00
   -3    9    2      1.46      0.00
   -2   10    2      1.07      0.00
   -1   11    2     -1.55      0.00
    0   12    2     -0.68      0.00
  -10    0    2    -11.44      0.00
   -9    1    2      2.34      0.00
   -8    2    2     13.67      0.00
   -7    3    2      8.50      0.00
   -6    4    2      9.49      0.00
   -5    5    2      7.02      0.00
   -4    6    2      7.55      0.00
   -3    7    2     -1.42      0.00
   -2    8    2     -2.61      0.00
   -1    9    2     -1.57      0.00
    0   10    2     -3.82      0.00
    1   11    2     -1.61      0.00
    2   12    2     -1.12      0.00
   -8    0    2      9.34      0.00
   -7    1    2     11.89      0.00
   -6    2    2     29.47      0.00
   -5    3    2      1.88      0.00
   -4    4    2    -14.55      0.00
   -3    5    2     -5.40      0.00
   -2    6    2    -12.49      0.00
   -1    7    2     -5.60      0.00
    0    8    2     -2.46      0.00
    1    9    2     -2.06      0.00
    2   10    2      0.68      0.00
    3   11    2     -1.10      0.00
    4   12    2      1.71      0.00
   -6    0    2    -38.27      0.00
   -5    1    2     -4.56      0.00
   -4    2    2    -15.17      0.00
   -3    3    2    -12.24      0.00
   -2    4    2     -6.69      0.00
   -1    5    2     -8.68      0.00
    0    6    2      2.21      0.00
    1    7    2     -4.87      0.00
    2    8    2     -2.14      0.00
    3    9    2      1.55      0.00
    4   10    2     -0.43      0.00
    5   11    2      1.26      0.00
    6   12    2      1.47      0.00
   -4    0    2      5.57      0.00
   -3    1    2    -26.53      0.00
   -2    2    2     11.94      0.00
   -1    3    2    -18.73      0.00
    0    4    2    -24.81      0.00
    1    5    2      0.02      0.00
    2    6    2     -7.02      0.00
    3    7    2      0.66      0.00
    4    8    2      2.78      0.00
    5    9    2      1.94      0.00
    6   10    2      2.97      0.00
    7   11    2      0.92      0.00
    8   12    2      1.69      0.00
   -2    0    2   -114.29      0.00
   -1    1    2    -39.71      0.00
    0    2    2    -35.51      0.00
    1    3    2    -13.55      0.00
    2    4    2      5.06      0.00
    3    5    2      1.33      0.00
    4    6    2      9.81      0.00
    5    7    2      1.30      0.00
    6    8    2      1.71      0.00
    7    9    2      2.61      0.00
    8   10    2      0.19      0.00
    9   11    2      0.01      0.00
   10   12    2     -0.91      0.00
    0    0    2     -6.94      0.00
    1    1    2    -24.13      0.00
    2    2    2     25.84      0.00
    3    3    2      6.48      0.00
    4    4    2     -3.13      0.00
    5    5    2     13.63      0.00
    6    6    2      2.52      0.00
    7    7    2      2.68      0.00
    8    8    2      1.71      0.00
    9    9    2      0.02      0.00
   10   10    2      0.65      0.00
   11   11    2     -1.44      0.00
    2    0    2    -76.94      0.00
    3    1    2      1.53      0.00
    4    2    2     11.46      0.00
    5    3    2      9.01      0.00
    6    4    2     10.85      0.00
    7    5    2      2.96      0.00
    8    6    2      3.41      0.00
    9    7    2     -2.45      0.00
   10    8    2     -2.24      0.00
   11    9    2     -0.90      0.00
   12   10    2     -2.14      0.00
   13   11    2     -0.89      0.00
    4    0    2     18.60      0.00
    5    1    2     11.11      0.00
    6    2    2     22.68      0.00
    7    3    2      1.32      0.00
    8    4    2     -5.41      0.00
    9    5    2      3.05      0.00
   10    6    2     -0.82      0.00
   11    7    2     -0.60      0.00
   12    8    2     -0.57      0.00
   13    9    2     -1.33      0.00
   14   10    2      0.72      0.00
    6    0    2    -13.12      0.00
    7    1    2     12.62      0.00
    8    2    2     10.12      0.00
    9    3    2      0.82      0.00
   10    4    2     -2.15      0.00
   11    5    2     -0.76      0.00
   12    6    2      0.32      0.00
   13    7    2     -1.69      0.00
   14    8    2     -1.29      0.00
   15    9    2      0.30      0.00
    8    0    2     -2.17      0.00
    9    1    2     -3.64      0.00
   10    2    2     -0.20      0.00
   11    3    2    -10.04      0.00
   12    4    2     -4.80      0.00
   13    5    2      0.73      0.00
   14    6    2      0.59      0.00
   15    7    2      1.31      0.00
   16    8    2      0.68      0.00
   17    9    2      0.91      0.00
   10    0    2     -6.44      0.00
   11    1    2      3.46      0.00
   12    2    2      1.17      0.00
   13    3    2      0.92      0.00
   14    4    2     -0.04      0.00
   15    5    2      0.80      0.00
   16    6    2      0.99      0.00
   17    7    2     -0.42      0.00
   18    8    2      0.35      0.00
   19    9    2      0.05      0.00
   12    0    2     -3.47      0.00
   13    1    2     -1.90      0.00
   14    2    2      1.00      0.00
   15    3    2     -2.84      0.00
   16    4    2     -0.68      0.00
   17    5    2      0.21      0.00
   18    6    2     -0.34      0.00
   19    7    2      0.42      0.00
   20    8    2     -0.58      0.00
   21    9    2      0.33      0.00
   14    0    2      0.09      0.00
   15    1    2      3.65      0.00
   16    2    2      1.01      0.00
   17    3    2      0.57      0.00
   18    4    2      0.32      0.00
   19    5    2     -0.90      0.00
   20    6    2     -1.04      0.00
   21    7    2     -0.85      0.00
   22    8    2      0.83      0.00
   16    0    2      1.49      0.00
   17    1    2      0.52      0.00
   18    2    2     -0.32      0.00
   19    3    2     -0.34      0.00
   20    4    2      0.10      0.00
   21    5    2     -0.89      0.00
   22    6    2     -0.89      0.00
   23    7    2      0.12      0.00
   24    8    2      0.79      0.00
   18    0    2      0.00      0.00
   19    1    2      0.00      0.00
   20    2    2     -0.39      0.00
   21    3    2      0.68      0.00
   22    4    2      0.51      0.00
   23    5    2     -0.34      0.00
   24    6    2     -0.40      0.00
   25    7    2      0.82      0.00
   20    0    2      0.28      0.00
   21    1    2      0.05      0.00
   22    2    2      0.25      0.00
   23    3    2      0.76      0.00
   24    4    2      0.63      0.00
   25    5    2     -0.13      0.00
   26    6    2     -0.01      0.00
   22    0    2     -0.17      0.00
   23    1    2      0.43      0.00
   24    2    2     -0.25      0.00
   25    3    2      0.44      0.00
   26    4    2      0.18      0.00
   27    5    2     -0.54      0.00
   28    6    2     -0.65      0.00
   24    0    2      1.63      0.00
   25    1    2      0.06      0.00
   26    2    2     -0.36      0.00
   27    3    2     -0.21      0.00
   28    4    2     -0.75      0.00
   29    5    2     -0.41      0.00
   15   11    2     -0.02      0.00
   16   10    2      0.61      0.00
   26    0    2     -0.20      0.00
   27    1    2     -0.14      0.00
   28    2    2     -0.65      0.00
   29    3    2     -0.74      0.00
   30    4    2     -0.50      0.00
   18   10    2      1.25      0.00
   28    0    2      0.80      0.00
   29    1    2      0.00      0.00
   30    2    2     -0.10      0.00
   31    3    2      0.17      0.00
   30    0    2      0.10      0.00
   31    1    2      0.24      0.00
  -31    3    3     -0.22      0.00
  -30    4    3      0.26      0.00
  -29    5    3      0.64      0.00
  -28    6    3      0.60      0.00
  -31    1    3      0.05      0.00
  -30    2    3     -0.56      0.00
  -29    3    3      0.04      0.00
  -28    4    3     -0.29      0.00
  -27    5    3      0.43      0.00
  -26    6    3      0.48      0.00
  -25    7    3     -0.11      0.00
  -24    8    3      0.79      0.00
  -29    1    3     -1.78      0.00
  -28    2    3     -0.54      0.00
  -27    3    3     -0.58      0.00
  -26    4    3     -0.43      0.00
  -25    5    3      0.14      0.00
  -24    6    3      0.34      0.00
  -23    7    3     -0.06      0.00
  -22    8    3      0.35      0.00
  -21    9    3      0.20      0.00
  -27    1    3      0.28      0.00
  -26    2    3     -0.01      0.00
  -25    3    3     -0.28      0.00
  -24    4    3     -0.35      0.00
  -23    5    3      0.35      0.00
  -22    6    3     -0.43      0.00
  -21    7    3     -0.38      0.00
  -20    8    3     -0.53      0.00
  -19    9    3     -0.02      0.00
  -18   10    3      0.06      0.00
  -25    1    3     -0.47      0.00
  -24    2    3      0.12      0.00
  -23    3    3     -0.24      0.00
  -22    4    3     -0.93      0.00
  -21    5    3      0.04      0.00
  -20    6    3      0.34      0.00
  -19    7    3     -1.00      0.00
  -18    8    3     -0.16      0.00
  -17    9    3     -0.70      0.00
  -16   10    3     -0.65      0.00
  -15   11    3     -1.02      0.00
  -23    1    3      0.56      0.00
  -22    2    3      1.06      0.00
  -21    3    3     -1.04      0.00
  -20    4    3      0.05      0.00
  -19    5    3      0.22      0.00
  -18    6    3     -0.50      0.00
  -17    7    3      0.10      0.00
  -16    8    3     -0.33      0.00
  -15    9    3      1.12      0.00
  -14   10    3      0.51      0.00
  -13   11    3      0.58      0.00
  -21    1    3      0.73      0.00
  -20    2    3     -0.61      0.00
  -19    3    3      0.03      0.00
  -18    4    3     -0.65      0.00
  -17    5    3      1.71      0.00
  -16    6    3      1.82      0.00
  -15    7    3      0.03      0.00
  -14    8    3      0.48      0.00
  -13    9    3     -0.67      0.00
  -12   10    3     -0.64      0.00
  -11   11    3     -0.62      0.00
  -10   12    3      0.55      0.00
  -19    1    3     -0.40      0.00
  -18    2    3      1.28      0.00
  -17    3    3     -0.46      0.00
  -16    4    3      2.29      0.00
  -15    5    3      0.78      0.00
  -14    6    3      0.39      0.00
  -13    7    3      0.90      0.00
  -12    8    3     -0.07      0.00
  -11    9    3      1.36      0.00
  -10   10    3      0.87      0.00
   -9   11    3      1.41      0.00
   -8   12    3      2.11      0.00
  -17    1    3     -1.08      0.00
  -16    2    3     -2.74      0.00
  -15    3    3      1.70      0.00
  -14    4    3     -0.16      0.00
  -13    5    3      2.35      0.00
  -12    6    3      3.02      0.00
  -11    7    3      0.70      0.00
  -10    8    3      0.69      0.00
   -9    9    3      0.05      0.00
   -8   10    3      0.22      0.00
   -7   11    3      0.84      0.00
   -6   12    3      0.81      0.00
  -15    1    3     -1.20      0.00
  -14    2    3      3.69      0.00
  -13    3    3      0.77      0.00
  -12    4    3      1.52      0.00
  -11    5    3     -2.15      0.00
  -10    6    3     -0.82      0.00
   -9    7    3      0.40      0.00
   -8    8    3      0.16      0.00
   -7    9    3      1.83      0.00
   -6   10    3      1.46      0.00
   -5   11    3      1.25      0.00
   -4   12    3      1.02      0.00
  -13    1    3     -4.59      0.00
  -12    2    3     -5.98      0.00
  -11    3    3      2.33      0.00
  -10    4    3     -1.95      0.00
   -9    5    3      2.03      0.00
   -8    6    3      3.18      0.00
   -7    7    3      1.10      0.00
   -6    8    3     -0.92      0.00
   -5    9    3     -1.77      0.00
   -4   10    3     -1.02      0.00
   -3   11    3     -1.67      0.00
   -2   12    3     -1.01      0.00
  -11    1    3     -3.19      0.00
  -10    2    3      2.66      0.00
   -9    3    3     -1.19      0.00
   -8    4    3     -5.17      0.00
   -7    5    3     -9.08      0.00
   -6    6    3     -1.75      0.00
   -5    7    3     -2.39      0.00
   -4    8    3     -1.85      0.00
   -3    9    3      0.70      0.00
   -2   10    3     -0.32      0.00
   -1   11    3      0.46      0.00
    0   12    3     -1.07      0.00
   -9    1    3    -15.31      0.00
   -8    2    3     -4.67      0.00
   -7    3    3      1.11      0.00
   -6    4    3     -3.52      0.00
   -5    5    3      4.87      0.00
   -4    6    3      1.00      0.00
   -3    7    3      0.77      0.00
   -2    8    3     -2.36      0.00
   -1    9    3     -2.90      0.00
    0   10    3      0.52      0.00
    1   11    3     -1.50      0.00
    2   12    3     -0.06      0.00
   -7    1    3      8.95      0.00
   -6    2    3      2.14      0.00
   -5    3    3      3.35      0.00
   -4    4    3     -6.78      0.00
   -3    5    3    -14.35      0.00
   -2    6    3      1.00      0.00
   -1    7    3     -2.59      0.00
    0    8    3     -1.38      0.00
    1    9    3      2.54      0.00
    2   10    3      0.80      0.00
    3   11    3      1.59      0.00
    4   12    3     -0.48      0.00
   -5    1    3    -37.85      0.00
   -4    2    3      4.01      0.00
   -3    3    3      3.22      0.00
   -2    4    3     -4.45      0.00
   -1    5    3     10.68      0.00
    0    6    3      2.19      0.00
    1    7    3      4.05      0.00
    2    8    3      0.73      0.00
    3    9    3     -0.64      0.00
    4   10    3      2.12      0.00
    5   11    3     -0.09      0.00
    6   12    3      0.02      0.00
   -3    1    3     34.95      0.00
   -2    2    3     11.54      0.00
   -1    3    3     12.28      0.00
    0    4    3      1.38      0.00
    1    5    3     -9.85      0.00
    2    6    3      7.89      0.00
    3    7    3      0.96      0.00
    4    8    3     -0.44      0.00
    5    9    3      1.85      0.00
    6   10    3      0.84      0.00
    7   11    3      1.06      0.00
    8   12    3     -0.64      0.00
   -1    1    3    -46.15      0.00
    0    2    3     10.17      0.00
    1    3    3      7.49      0.00
    2    4    3     -7.23      0.00
    3    5    3      9.11      0.00
    4    6    3      0.81      0.00
    5    7    3      1.09      0.00
    6    8    3     -1.39      0.00
    7    9    3     -1.45      0.00
    8   10    3      0.72      0.00
    9   11    3     -1.09      0.00
   10   12    3     -1.48      0.00
    1    1    3     33.01      0.00
    2    2    3      9.98      0.00
    3    3    3      2.81      0.00
    4    4    3     -2.10      0.00
    5    5    3     -8.73      0.00
    6    6    3      3.97      0.00
    7    7    3     -1.00      0.00
    8    8    3     -1.42      0.00
    9    9    3      0.66      0.00
   10   10    3     -0.43      0.00
   11   11    3      0.02      0.00
    3    1    3    -29.54      0.00
    4    2    3      4.36      0.00
    5    3    3      2.84      0.00
    6    4    3    -10.18      0.00
    7    5    3     -0.51      0.00
    8    6    3     -2.27      0.00
    9    7    3     -1.26      0.00
   10    8    3     -1.24      0.00
   11    9    3     -1.30      0.00
   12   10    3      0.51      0.00
   13   11    3     -1.09      0.00
    5    1    3      3.64      0.00
    6    2    3     -4.29      0.00
    7    3    3     -6.73      0.00
    8    4    3     -7.49      0.00
    9    5    3     -4.43      0.00
   10    6    3      2.80      0.00
   11    7    3      0.86      0.00
   12    8    3      0.61      0.00
   13    9    3      1.45      0.00
   14   10    3     -0.17      0.00
    7    1    3     -8.89      0.00
    8    2    3      5.30      0.00
    9    3    3      2.17      0.00
   10    4    3     -0.77      0.00
   11    5    3      1.74      0.00
   12    6    3      0.84      0.00
   13    7    3      0.68      0.00
   14    8    3      0.40      0.00
   15    9    3     -0.03      0.00
   16   10    3      0.19      0.00
    9    1    3     -5.38      0.00
   10    2    3     -5.36      0.00
   11    3    3      0.12      0.00
   12    4    3     -1.36      0.00
   13    5    3      0.51      0.00
   14    6    3      1.87      0.00
   15    7    3      0.50      0.00
   16    8    3      1.17      0.00
   17    9    3      0.27      0.00
   18   10    3     -0.34      0.00
   11    1    3     -0.77      0.00
   12    2    3      7.47      0.00
   13    3    3      3.20      0.00
   14    4    3      2.43      0.00
   15    5    3      1.14      0.00
   16    6    3     -1.19      0.00
   17    7    3     -0.31      0.00
   18    8    3     -0.53      0.00
   19    9    3      0.22      0.00
   13    1    3     -0.44      0.00
   14    2    3     -1.37      0.00
   15    3    3      0.40      0.00
   16    4    3     -0.35      0.00
   17    5    3     -0.69      0.00
   18    6    3     -0.47      0.00
   19    7    3     -0.82      0.00
   20    8    3      0.67      0.00
   21    9    3     -0.61      0.00
   15    1    3     -0.41      0.00
   16    2    3      1.69      0.00
   17    3    3      0.33      0.00
   18    4    3      0.66      0.00
   19    5    3      0.29      0.00
   20    6    3     -0.78      0.00
   21    7    3     -0.04      0.00
   22    8    3     -0.24      0.00
   17    1    3      0.12      0.00
   18    2    3      0.01      0.00
   19    3    3     -0.18      0.00
   20    4    3      0.90      0.00
   21    5    3      0.88      0.00
   22    6    3      0.04      0.00
   23    7    3     -0.56      0.00
   24    8    3     -0.62      0.00
   19    1    3      0.22      0.00
   20    2    3      0.35      0.00
   21    3    3      0.34      0.00
   22    4    3      1.19      0.00
   23    5    3      0.54      0.00
   24    6    3     -0.12      0.00
   25    7    3     -0.92      0.00
   21    1    3      0.96      0.00
   22    2    3      0.29      0.00
   23    3    3     -0.04      0.00
   24    4    3      0.47      0.00
   25    5    3      0.19      0.00
   26    6    3     -0.29      0.00
   23    1    3      0.04      0.00
   24    2    3      0.15      0.00
   25    3    3      0.11      0.00
   26    4    3      0.04      0.00
   27    5    3      0.00      0.00
   28    6    3     -0.01      0.00
   25    1    3      0.81      0.00
   26    2    3     -0.04      0.00
   27    3    3     -0.29      0.00
   28    4    3      0.56      0.00
   29    5    3      0.25      0.00
   15   11    3      0.13      0.00
   27    1    3      0.24      0.00
   28    2    3      0.23      0.00
   29    3    3      0.78      0.00
   30    4    3      0.22      0.00
   29    1    3      0.69      0.00
   30    2    3      0.92      0.00
   31    1    3      0.20      0.00
  -30    4    4      0.02      0.00
  -29    5    4     -0.18      0.00
  -28    6    4      0.15      0.00
  -31    1    4     -0.45      0.00
  -30    2    4     -0.48      0.00
  -29    3    4      0.01      0.00
  -28    4    4      0.25      0.00
  -27    5    4     -0.34      0.00
  -26    6    4      0.22      0.00
  -25    7    4      0.16      0.00
  -24    8    4     -0.80      0.00
  -30    0    4     -0.79      0.00
  -29    1    4     -0.65      0.00
  -28    2    4     -1.22      0.00
  -27    3    4      0.45      0.00
  -26    4    4      0.28      0.00
  -25    5    4     -0.13      0.00
  -24    6    4      0.60      0.00
  -23    7    4      0.71      0.00
  -22    8    4     -0.23      0.00
  -21    9    4     -0.61      0.00
  -28    0    4      0.62      0.00
  -27    1    4     -0.86      0.00
  -26    2    4     -0.24      0.00
  -25    3    4      1.07      0.00
  -24    4    4      0.13      0.00
  -23    5    4     -0.14      0.00
  -22    6    4      1.04      0.00
  -21    7    4      0.02      0.00
  -20    8    4      0.05      0.00
  -19    9    4     -0.18      0.00
  -18   10    4      0.19      0.00
  -26    0    4     -1.17      0.00
  -25    1    4     -0.88      0.00
  -24    2    4      0.33      0.00
  -23    3    4      0.57      0.00
  -22    4    4      0.32      0.00
  -21    5    4      0.03      0.00
  -20    6    4      0.59      0.00
  -19    7    4      1.10      0.00
  -18    8    4     -0.50      0.00
  -17    9    4     -0.45      0.00
  -16   10    4     -0.49      0.00
  -15   11    4      0.64      0.00
  -24    0    4     -0.15      0.00
  -23    1    4      0.19      0.00
  -22    2    4      0.40      0.00
  -21    3    4      2.04      0.00
  -20    4    4     -0.67      0.00
  -19    5    4     -0.30      0.00
  -18    6    4      0.21      0.00
  -17    7    4     -0.50      0.00
  -16    8    4      1.02      0.00
  -15    9    4      0.93      0.00
  -14   10    4      2.14      0.00
  -13   11    4      2.11      0.00
  -22    0    4      0.57      0.00
  -21    1    4     -0.26      0.00
  -20    2    4      1.10      0.00
  -19    3    4     -1.16      0.00
  -18    4    4     -0.22      0.00
  -17    5    4     -0.64      0.00
  -16    6    4      0.37      0.00
  -15    7    4      1.60      0.00
  -14    8    4      0.32      0.00
  -13    9    4      1.12      0.00
  -12   10    4      0.93      0.00
  -11   11    4      0.89      0.00
  -10   12    4      0.19      0.00
  -20    0    4     -0.15      0.00
  -19    1    4      0.43      0.00
  -18    2    4     -1.23      0.00
  -17    3    4      0.62      0.00
  -16    4    4     -2.15      0.00
  -15    5    4     -0.47      0.00
  -14    6    4      0.05      0.00
  -13    7    4      0.26      0.00
  -12    8    4      1.90      0.00
  -11    9    4      1.24      0.00
  -10   10    4      1.38      0.00
   -9   11    4      0.13      0.00
   -8   12    4     -1.11      0.00
  -18    0    4      0.20      0.00
  -17    1    4     -1.77      0.00
  -16    2    4     -1.80      0.00
  -15    3    4     -4.29      0.00
  -14    4    4      1.01      0.00
  -13    5    4      0.93      0.00
  -12    6    4      1.63      0.00
  -11    7    4      2.25      0.00
  -10    8    4     -0.78      0.00
   -9    9    4     -1.32      0.00
   -8   10    4     -2.12      0.00
   -7   11    4     -2.83      0.00
   -6   12    4     -2.06      0.00
  -16    0    4      2.81      0.00
  -15    1    4      3.40      0.00
  -14    2    4     -0.75      0.00
  -13    3    4      3.22      0.00
  -12    4    4     -1.25      0.00
  -11    5    4     -2.01      0.00
  -10    6    4     -2.92      0.00
   -9    7    4     -2.52      0.00
   -8    8    4     -2.06      0.00
   -7    9    4     -2.69      0.00
   -6   10    4     -1.27      0.00
   -5   11    4     -0.77      0.00
   -4   12    4     -0.11      0.00
  -14    0    4      3.54      0.00
  -13    1    4     -0.88      0.00
  -12    2    4     -2.34      0.00
  -11    3    4     -4.19      0.00
  -10    4    4      1.52      0.00
   -9    5    4     -2.22      0.00
   -8    6    4     -1.15      0.00
   -7    7    4     -1.92      0.00
   -6    8    4     -4.25      0.00
   -5    9    4     -3.51      0.00
   -4   10    4     -2.52      0.00
   -3   11    4     -0.02      0.00
   -2   12    4      0.15      0.00
  -12    0    4      7.26      0.00
  -11    1    4      2.14      0.00
  -10    2    4     -4.05      0.00
   -9    3    4     -1.71      0.00
   -8    4    4     -8.35      0.00
   -7    5    4     -8.14      0.00
   -6    6    4     -8.12      0.00
   -5    7    4     -1.03      0.00
   -4    8    4      0.12      0.00
   -3    9    4     -0.31      0.00
   -2   10    4      3.28      0.00
   -1   11    4      2.15      0.00
    0   12    4      2.07      0.00
  -10    0    4     -6.96      0.00
   -9    1    4     -9.64      0.00
   -8    2    4    -14.95      0.00
   -7    3    4     -1.09      0.00
   -6    4    4      6.80      0.00
   -5    5    4     -0.71      0.00
   -4    6    4      7.42      0.00
   -3    7    4      4.16      0.00
   -2    8    4      1.59      0.00
   -1    9    4      1.76      0.00
    0   10    4      0.21      0.00
    1   11    4      2.48      0.00
    2   12    4     -0.32      0.00
   -8    0    4     12.57      0.00
   -7    1    4     -4.77      0.00
   -6    2    4     10.58      0.00
   -5    3    4      9.80      0.00
   -4    4    4     -0.57      0.00
   -3    5    4      2.21      0.00
   -2    6    4     -2.58      0.00
   -1    7    4      6.48      0.00
    0    8    4      4.20      0.00
    1    9    4      0.14      0.00
    2   10    4      2.51      0.00
    3   11    4      0.12      0.00
    4   12    4     -0.73      0.00
   -6    0    4    -25.50      0.00
   -5    1    4      4.11      0.00
   -4    2    4     -7.46      0.00
   -3    3    4     18.52      0.00
   -2    4    4     20.04      0.00
   -1    5    4     -0.31      0.00
    0    6    4     10.27      0.00
    1    7    4      3.56      0.00
    2    8    4     -0.64      0.00
    3    9    4     -1.23      0.00
    4   10    4     -2.87      0.00
    5   11    4     -0.96      0.00
    6   12    4     -2.39      0.00
   -4    0    4     60.98      0.00
   -3    1    4     18.85      0.00
   -2    2    4     38.60      0.00
   -1    3    4     21.84      0.00
    0    4    4     -3.05      0.00
    1    5    4      0.37      0.00
    2    6    4     -7.04      0.00
    3    7    4      0.74      0.00
    4    8    4     -1.65      0.00
    5    9    4     -3.94      0.00
    6   10    4     -1.42      0.00
    7   11    4     -1.41      0.00
    8   12    4     -0.57      0.00
   -2    0    4    -20.42      0.00
   -1    1    4     14.31      0.00
    0    2    4    -10.69      0.00
    1    3    4      4.87      0.00
    2    4    4      6.55      0.00
    3    5    4    -13.08      0.00
    4    6    4     -1.00      0.00
    5    7    4     -3.08      0.00
    6    8    4     -3.85      0.00
    7    9    4     -2.19      0.00
    8   10    4     -1.97      0.00
    9   11    4      0.44      0.00
   10   12    4      0.51      0.00
    0    0    4     58.28      0.00
    1    1    4      0.00      0.00
    2    2    4      5.61      0.00
    3    3    4      1.32      0.00
    4    4    4    -12.82      0.00
    5    5    4     -4.67      0.00
    6    6    4     -5.34      0.00
    7    7    4      0.85      0.00
    8    8    4      0.49      0.00
    9    9    4      0.04      0.00
   10   10    4      1.81      0.00
   11   11    4      1.08      0.00
    2    0    4    -32.89      0.00
    3    1    4    -13.01      0.00
    4    2    4    -16.52      0.00
    5    3    4     -1.47      0.00
    6    4    4      3.10      0.00
    7    5    4     -6.08      0.00
    8    6    4      0.41      0.00
    9    7    4      0.21      0.00
   10    8    4      0.39      0.00
   11    9    4      2.07      0.00
   12   10    4      0.27      0.00
   13   11    4      0.80      0.00
    4    0    4      5.41      0.00
    5    1    4    -16.12      0.00
    6    2    4     -8.85      0.00
    7    3    4     -1.15      0.00
    8    4    4     -1.51      0.00
    9    5    4      0.48      0.00
   10    6    4      0.32      0.00
   11    7    4      2.38      0.00
   12    8    4      2.17      0.00
   13    9    4      0.98      0.00
   14   10    4      0.37      0.00
    6    0    4    -10.10      0.00
    7    1    4     -1.31      0.00
    8    2    4      1.23      0.00
    9    3    4      9.54      0.00
   10    4    4      5.07      0.00
   11    5    4      0.09      0.00
   12    6    4      0.32      0.00
   13    7    4     -0.96      0.00
   14    8    4     -0.41      0.00
   15    9    4     -0.04      0.00
   16   10    4     -1.54      0.00
    8    0    4      0.93      0.00
    9    1    4     -4.38      0.00
   10    2    4     -1.15      0.00
   11    3    4     -1.74      0.00
   12    4    4     -0.07      0.00
   13    5    4     -0.80      0.00
   14    6    4     -1.42      0.00
   15    7    4     -0.08      0.00
   16    8    4     -0.29      0.00
   17    9    4      0.27      0.00
   18   10    4     -1.01      0.00
   10    0    4      5.05      0.00
   11    1    4      4.75      0.00
   12    2    4      0.53      0.00
   13    3    4      3.66      0.00
   14    4    4      0.35      0.00
   15    5    4     -0.71      0.00
   16    6    4     -0.30      0.00
   17    7    4     -1.57      0.00
   18    8    4      0.22      0.00
   19    9    4     -0.12      0.00
   12    0    4      1.71      0.00
   13    1    4     -2.83      0.00
   14    2    4     -1.06      0.00
   15    3    4     -2.26      0.00
   16    4    4     -1.55      0.00
   17    5    4      0.04      0.00
   18    6    4     -0.12      0.00
   19    7    4      0.46      0.00
   20    8    4     -0.41      0.00
   21    9    4      0.62      0.00
   14    0    4      0.10      0.00
   15    1    4      0.49      0.00
   16    2    4     -0.37      0.00
   17    3    4     -0.29      0.00
   18    4    4     -0.35      0.00
   19    5    4      0.49      0.00
   20    6    4      0.50      0.00
   21    7    4     -0.76      0.00
   22    8    4     -0.26      0.00
   16    0    4      0.51      0.00
   17    1    4     -0.33      0.00
   18    2    4     -0.16      0.00
   19    3    4     -0.71      0.00
   20    4    4     -0.73      0.00
   21    5    4      0.40      0.00
   22    6    4      0.27      0.00
   23    7    4     -0.72      0.00
   24    8    4     -0.84      0.00
   18    0    4     -0.27      0.00
   19    1    4     -0.53      0.00
   20    2    4     -0.14      0.00
   21    3    4     -0.74      0.00
   22    4    4     -0.48      0.00
   23    5    4      0.25      0.00
   24    6    4     -0.31      0.00
   25    7    4     -0.75      0.00
   20    0    4     -0.43      0.00
   21    1    4     -0.71      0.00
   22    2    4     -0.32      0.00
   23    3    4     -0.70      0.00
   24    4    4     -0.39      0.00
   25    5    4      0.43      0.00
   26    6    4      0.47      0.00
   22    0    4     -1.67      0.00
   23    1    4     -0.69      0.00
   24    2    4      0.08      0.00
   25    3    4      0.07      0.00
   26    4    4      0.99      0.00
   27    5    4      0.55      0.00
   24    0    4     -0.43      0.00
   25    1    4     -0.35      0.00
   26    2    4      0.11      0.00
   27    3    4      0.81      0.00
   28    4    4      0.84      0.00
   29    5    4      0.85      0.00
   15   11    4     -1.16      0.00
   26    0    4     -0.63      0.00
   27    1    4      0.15      0.00
   28    2    4      0.66      0.00
   29    3    4      0.30      0.00
   28    0    4      0.17      0.00
   29    1    4      0.25      0.00
   30    2    4      0.15      0.00
   30    0    4     -0.23      0.00
   31    1    4     -0.22      0.00
  -30    4    5      0.54      0.00
  -29    5    5     -0.15      0.00
  -31    1    5      1.64      0.00
  -30    2    5      0.41      0.00
  -29    3    5      0.29      0.00
  -28    4    5      0.49      0.00
  -27    5    5     -0.48      0.00
  -26    6    5     -0.76      0.00
  -25    7    5      0.29      0.00
  -24    8    5      0.44      0.00
  -29    1    5      0.15      0.00
  -28    2    5      0.22      0.00
  -27    3    5      0.22      0.00
  -26    4    5      0.59      0.00
  -25    5    5     -0.26      0.00
  -24    6    5     -0.06      0.00
  -23    7    5      0.68      0.00
  -22    8    5      0.83      0.00
  -21    9    5      0.19      0.00
  -27    1    5      0.71      0.00
  -26    2    5     -0.31      0.00
  -25    3    5     -0.35      0.00
  -24    4    5      0.79      0.00
  -23    5    5     -0.39      0.00
  -22    6    5     -0.58      0.00
  -21    7    5      1.01      0.00
  -20    8    5      0.50      0.00
  -19    9    5      0.63      0.00
  -18   10    5      0.31      0.00
  -25    1    5     -0.38      0.00
  -24    2    5     -1.69      0.00
  -23    3    5      0.05      0.00
  -22    4    5     -0.37      0.00
  -21    5    5     -0.34      0.00
  -20    6    5      0.67      0.00
  -19    7    5      0.44      0.00
  -18    8    5      0.79      0.00
  -17    9    5     -0.65      0.00
  -16   10    5     -0.74      0.00
  -15   11    5     -0.26      0.00
  -23    1    5     -0.92      0.00
  -22    2    5     -0.04      0.00
  -21    3    5     -0.71      0.00
  -20    4    5      0.66      0.00
  -19    5    5     -1.08      0.00
  -18    6    5     -0.69      0.00
  -17    7    5      0.53      0.00
  -16    8    5     -0.29      0.00
  -15    9    5      0.57      0.00
  -14   10    5      0.41      0.00
  -13   11    5      1.03      0.00
  -21    1    5      0.81      0.00
  -20    2    5     -1.05      0.00
  -19    3    5      0.85      0.00
  -18    4    5     -1.46      0.00
  -17    5    5      0.03      0.00
  -16    6    5      0.57      0.00
  -15    7    5     -0.48      0.00
  -14    8    5      0.06      0.00
  -13    9    5     -1.28      0.00
  -12   10    5     -0.69      0.00
  -11   11    5     -0.76      0.00
  -10   12    5     -1.44      0.00
  -19    1    5      0.79      0.00
  -18    2    5      2.52      0.00
  -17    3    5     -0.52      0.00
  -16    4    5      0.47      0.00
  -15    5    5     -2.05      0.00
  -14    6    5     -2.11      0.00
  -13    7    5     -0.92      0.00
  -12    8    5     -1.22      0.00
  -11    9    5      0.05      0.00
  -10   10    5     -0.26      0.00
   -9   11    5     -0.56      0.00
   -8   12    5     -0.84      0.00
  -17    1    5      1.01      0.00
  -16    2    5     -1.92      0.00
  -15    3    5      0.39      0.00
  -14    4    5     -2.02      0.00
  -13    5    5      0.68      0.00
  -12    6    5      0.32      0.00
  -11    7    5     -0.77      0.00
  -10    8    5      0.28      0.00
   -9    9    5     -1.59      0.00
   -8   10    5     -1.48      0.00
   -7   11    5     -1.22      0.00
   -6   12    5     -1.50      0.00
  -15    1    5      2.75      0.00
  -14    2    5      5.03      0.00
  -13    3    5     -0.18      0.00
  -12    4    5      1.65      0.00
  -11    5    5     -2.36      0.00
  -10    6    5     -3.08      0.00
   -9    7    5     -0.82      0.00
   -8    8    5      0.43      0.00
   -7    9    5      1.14      0.00
   -6   10    5      0.28      0.00
   -5   11    5      0.97      0.00
   -4   12    5      0.81      0.00
  -13    1    5      0.44      0.00
  -12    2    5     -3.08      0.00
  -11    3    5      2.63      0.00
  -10    4    5      3.24      0.00
   -9    5    5      5.40      0.00
   -8    6    5      1.00      0.00
   -7    7    5      1.66      0.00
   -6    8    5      1.99      0.00
   -5    9    5     -1.07      0.00
   -4   10    5     -0.40      0.00
   -3   11    5     -0.47      0.00
   -2   12    5      0.97      0.00
  -11    1    5      5.23      0.00
  -10    2    5      3.48      0.00
   -9    3    5      2.05      0.00
   -8    4    5      5.24      0.00
   -7    5    5     -3.59      0.00
   -6    6    5     -1.66      0.00
   -5    7    5     -0.17      0.00
   -4    8    5      2.50      0.00
   -3    9    5      2.69      0.00
   -2   10    5     -0.42      0.00
   -1   11    5      1.87      0.00
    0   12    5      0.72      0.00
   -9    1    5     -9.17      0.00
   -8    2    5     -3.53      0.00
   -7    3    5      4.30      0.00
   -6    4    5      9.59      0.00
   -5    5    5     11.84      0.00
   -4    6    5     -0.75      0.00
   -3    7    5      2.72      0.00
   -2    8    5      1.96      0.00
   -1    9    5     -2.59      0.00
    0   10    5     -1.06      0.00
    1   11    5     -1.56      0.00
    2   12    5      0.77      0.00
   -7    1    5     17.24      0.00
   -6    2    5     -3.73      0.00
   -5    3    5      3.37      0.00
   -4    4    5      8.07      0.00
   -3    5    5     -9.08      0.00
   -2    6    5     -2.80      0.00
   -1    7    5     -3.29      0.00
    0    8    5     -0.05      0.00
    1    9    5      0.85      0.00
    2   10    5     -2.56      0.00
    3   11    5     -0.19      0.00
    4   12    5     -0.76      0.00
   -5    1    5    -33.91      0.00
   -4    2    5    -12.62      0.00
   -3    3    5     -4.08      0.00
   -2    4    5      2.55      0.00
   -1    5    5      8.72      0.00
    0    6    5     -7.69      0.00
    1    7    5     -0.60      0.00
    2    8    5      0.67      0.00
    3    9    5     -2.69      0.00
    4   10    5     -1.83      0.00
    5   11    5     -2.09      0.00
    6   12    5     -0.06      0.00
   -3    1    5     26.17      0.00
   -2    2    5    -14.12      0.00
   -1    3    5     -4.36      0.00
    0    4    5      7.61      0.00
    1    5    5    -11.47      0.00
    2    6    5     -2.70      0.00
    3    7    5     -1.75      0.00
    4    8    5      1.11      0.00
    5    9    5      1.05      0.00
    6   10    5     -1.64      0.00
    7   11    5     -0.09      0.00
    8   12    5      0.80      0.00
   -1    1    5    -43.92      0.00
    0    2    5    -19.24      0.00
    1    3    5     -3.51      0.00
    2    4    5      0.46      0.00
    3    5    5      7.24      0.00
    4    6    5     -4.92      0.00
    5    7    5      1.18      0.00
    6    8    5      1.92      0.00
    7    9    5     -0.49      0.00
    8   10    5      0.25      0.00
    9   11    5      0.04      0.00
    1    1    5     17.08      0.00
    2    2    5    -10.82      0.00
    3    3    5     -3.65      0.00
    4    4    5     10.70      0.00
    5    5    5     -1.29      0.00
    6    6    5      2.30      0.00
    7    7    5      2.01      0.00
    8    8    5      2.21      0.00
    9    9    5      1.96      0.00
   10   10    5      0.03      0.00
   11   11    5      0.89      0.00
    3    1    5    -16.70      0.00
    4    2    5     -3.48      0.00
    5    3    5      7.85      0.00
    6    4    5      7.74      0.00
    7    5    5      6.03      0.00
    8    6    5     -2.07      0.00
    9    7    5     -0.05      0.00
   10    8    5      0.25      0.00
   11    9    5     -0.74      0.00
   12   10    5      0.74      0.00
    5    1    5      4.50      0.00
    6    2    5     -5.21      0.00
    7    3    5     -0.91      0.00
    8    4    5      3.29      0.00
    9    5    5     -1.04      0.00
   10    6    5     -0.95      0.00
   11    7    5     -0.82      0.00
   12    8    5     -0.48      0.00
   13    9    5      0.26      0.00
   14   10    5     -0.22      0.00
    7    1    5      3.98      0.00
    8    2    5      6.44      0.00
    9    3    5      3.18      0.00
   10    4    5      2.84      0.00
   11    5    5     -0.70      0.00
   12    6    5     -3.25      0.00
   13    7    5     -1.70      0.00
   14    8    5     -1.83      0.00
   15    9    5     -0.63      0.00
   16   10    5      0.91      0.00
    9    1    5      0.35      0.00
   10    2    5     -6.43      0.00
   11    3    5     -2.72      0.00
   12    4    5     -3.31      0.00
   13    5    5     -2.54      0.00
   14    6    5     -0.58      0.00
   15    7    5     -0.96      0.00
   16    8    5     -0.01      0.00
   17    9    5      0.51      0.00
   18   10    5      1.82      0.00
   11    1    5      2.45      0.00
   12    2    5      3.85      0.00
   13    3    5     -0.17      0.00
   14    4    5      0.57      0.00
   15    5    5      0.45      0.00
   16    6    5     -0.41      0.00
   17    7    5      0.22      0.00
   18    8    5     -1.04      0.00
   19    9    5      1.27      0.00
   13    1    5      1.26      0.00
   14    2    5     -1.92      0.00
   15    3    5     -0.13      0.00
   16    4    5     -0.44      0.00
   17    5    5     -0.43      0.00
   18    6    5      0.82      0.00
   19    7    5     -0.04      0.00
   20    8    5      0.65      0.00
   21    9    5      1.01      0.00
   15    1    5      0.31      0.00
   16    2    5      0.70      0.00
   17    3    5      0.84      0.00
   18    4    5     -0.24      0.00
   19    5    5     -0.39      0.00
   20    6    5     -0.18      0.00
   21    7    5      0.40      0.00
   22    8    5      0.07      0.00
   17    1    5     -0.06      0.00
   18    2    5     -0.20      0.00
   19    3    5     -0.20      0.00
   20    4    5     -0.85      0.00
   21    5    5     -0.58      0.00
   22    6    5      0.29      0.00
   23    7    5      0.93      0.00
   24    8    5      0.55      0.00
   19    1    5     -0.88      0.00
   20    2    5     -0.83      0.00
   21    3    5      0.35      0.00
   22    4    5     -0.28      0.00
   23    5    5     -0.33      0.00
   24    6    5      0.10      0.00
   25    7    5      0.00      0.00
   21    1    5     -0.62      0.00
   22    2    5     -0.30      0.00
   23    3    5     -0.06      0.00
   24    4    5     -0.10      0.00
   25    5    5     -0.22      0.00
   26    6    5     -0.22      0.00
   23    1    5     -0.65      0.00
   24    2    5      0.21      0.00
   25    3    5      0.83      0.00
   26    4    5     -0.52      0.00
   27    5    5     -0.85      0.00
   13   11    5     -0.44      0.00
   25    1    5     -0.24      0.00
   26    2    5      0.03      0.00
   27    3    5     -0.72      0.00
   28    4    5     -0.42      0.00
   15   11    5      0.14      0.00
   27    1    5     -0.22      0.00
   28    2    5     -0.45      0.00
   29    3    5     -0.52      0.00
   29    1    5     -0.28      0.00
   30    2    5     -0.30      0.00
   31    1    5     -0.73      0.00
  -31    1    6      0.35      0.00
  -30    2    6      0.45      0.00
  -29    3    6     -1.14      0.00
  -28    4    6     -1.12      0.00
  -27    5    6      0.08      0.00
  -26    6    6     -0.35      0.00
  -25    7    6     -0.42      0.00
  -24    8    6      0.21      0.00
  -30    0    6     -0.33      0.00
  -29    1    6      0.58      0.00
  -28    2    6      0.05      0.00
  -27    3    6     -0.95      0.00
  -26    4    6     -0.01      0.00
  -25    5    6      0.61      0.00
  -24    6    6     -0.13      0.00
  -23    7    6      0.28      0.00
  -22    8    6      0.10      0.00
  -21    9    6      0.13      0.00
  -28    0    6      0.96      0.00
  -27    1    6      0.71      0.00
  -26    2    6      0.26      0.00
  -25    3    6      0.28      0.00
  -24    4    6     -0.03      0.00
  -23    5    6      0.26      0.00
  -22    6    6     -0.35      0.00
  -21    7    6     -0.70      0.00
  -20    8    6      0.37      0.00
  -19    9    6      0.34      0.00
  -18   10    6      0.55      0.00
  -26    0    6      0.29      0.00
  -25    1    6      0.21      0.00
  -24    2    6      0.90      0.00
  -23    3    6     -1.03      0.00
  -22    4    6      0.43      0.00
  -21    5    6     -0.24      0.00
  -20    6    6     -0.33      0.00
  -19    7    6      0.95      0.00
  -18    8    6     -0.47      0.00
  -17    9    6     -0.42      0.00
  -16   10    6     -1.27      0.00
  -15   11    6     -1.81      0.00
  -24    0    6     -0.56      0.00
  -23    1    6      0.61      0.00
  -22    2    6     -0.40      0.00
  -21    3    6      1.02      0.00
  -20    4    6     -0.70      0.00
  -19    5    6     -0.42      0.00
  -18    6    6     -0.43      0.00
  -17    7    6     -0.48      0.00
  -16    8    6      0.30      0.00
  -15    9    6     -0.70      0.00
  -14   10    6     -0.78      0.00
  -13   11    6     -1.63      0.00
  -22    0    6      0.10      0.00
  -21    1    6     -0.69      0.00
  -20    2    6      1.03      0.00
  -19    3    6     -0.94      0.00
  -18    4    6      1.49      0.00
  -17    5    6     -0.07      0.00
  -16    6    6      0.65      0.00
  -15    7    6      1.22      0.00
  -14    8    6     -1.18      0.00
  -13    9    6     -1.14      0.00
  -12   10    6     -2.21      0.00
  -11   11    6     -1.67      0.00
  -20    0    6     -1.14      0.00
  -19    1    6      0.95      0.00
  -18    2    6      0.94      0.00
  -17    3    6      3.65      0.00
  -16    4    6     -0.18      0.00
  -15    5    6     -0.50      0.00
  -14    6    6     -1.17      0.00
  -13    7    6     -1.73      0.00
  -12    8    6      0.18      0.00
  -11    9    6     -0.39      0.00
  -10   10    6      0.34      0.00
   -9   11    6      1.11      0.00
   -8   12    6      1.44      0.00
  -18    0    6     -1.57      0.00
  -17    1    6     -1.96      0.00
  -16    2    6      0.42      0.00
  -15    3    6     -2.09      0.00
  -14    4    6      1.61      0.00
  -13    5    6      0.60      0.00
  -12    6    6      1.19      0.00
  -11    7    6      1.69      0.00
  -10    8    6      0.68      0.00
   -9    9    6      1.63      0.00
   -8   10    6      0.43      0.00
   -7   11    6      0.50      0.00
   -6   12    6      0.86      0.00
  -16    0    6     -0.78      0.00
  -15    1    6      1.29      0.00
  -14    2    6      0.15      0.00
  -13    3    6      2.73      0.00
  -12    4    6     -1.01      0.00
  -11    5    6      0.65      0.00
  -10    6    6     -0.38      0.00
   -9    7    6      0.30      0.00
   -8    8    6      3.53      0.00
   -7    9    6      2.92      0.00
   -6   10    6      2.55      0.00
   -5   11    6      0.82      0.00
   -4   12    6      0.49      0.00
  -14    0    6     -3.27      0.00
  -13    1    6     -3.14      0.00
  -12    2    6     -1.53      0.00
  -11    3    6     -2.76      0.00
  -10    4    6      5.62      0.00
   -9    5    6      5.61      0.00
   -8    6    6      5.41      0.00
   -7    7    6      1.90      0.00
   -6    8    6      1.23      0.00
   -5    9    6      1.60      0.00
   -4   10    6     -2.11      0.00
   -3   11    6     -1.77      0.00
   -2   12    6     -1.90      0.00
  -12    0    6      4.14      0.00
  -11    1    6      4.79      0.00
  -10    2    6      2.94      0.00
   -9    3    6     -0.72      0.00
   -8    4    6     -2.82      0.00
   -7    5    6      2.44      0.00
   -6    6    6     -4.20      0.00
   -5    7    6     -1.95      0.00
   -4    8    6      0.60      0.00
   -3    9    6     -0.63      0.00
   -2   10    6     -0.19      0.00
   -1   11    6     -3.11      0.00
    0   12    6     -0.95      0.00
  -10    0    6     -2.78      0.00
   -9    1    6      3.49      0.00
   -8    2    6     -8.25      0.00
   -7    3    6     -6.58      0.00
   -6    4    6      5.73      0.00
   -5    5    6      2.46      0.00
   -4    6    6      3.53      0.00
   -3    7    6     -4.59      0.00
   -2    8    6     -3.66      0.00
   -1    9    6     -1.02      0.00
    0   10    6     -4.24      0.00
    1   11    6     -2.18      0.00
    2   12    6     -1.25      0.00
   -8    0    6     24.05      0.00
   -7    1    6      4.72      0.00
   -6    2    6      4.48      0.00
   -5    3    6    -11.85      0.00
   -4    4    6    -11.56      0.00
   -3    5    6      1.85      0.00
   -2    6    6     -9.96      0.00
   -1    7    6     -4.80      0.00
    0    8    6     -0.69      0.00
    1    9    6     -0.45      0.00
    2   10    6      1.27      0.00
    3   11    6     -1.13      0.00
    4   12    6      1.02      0.00
   -6    0    6    -24.82      0.00
   -5    1    6     -3.51      0.00
   -4    2    6    -28.53      0.00
   -3    3    6    -17.86      0.00
   -2    4    6      4.68      0.00
   -1    5    6     -0.58      0.00
    0    6    6      4.35      0.00
    1    7    6     -2.41      0.00
    2    8    6      0.22      0.00
    3    9    6      3.23      0.00
    4   10    6      0.83      0.00
    5   11    6      0.97      0.00
    6   12    6      0.89      0.00
   -4    0    6     32.16      0.00
   -3    1    6     -3.71      0.00
   -2    2    6      4.72      0.00
   -1    3    6     -8.22      0.00
    0    4    6     -7.96      0.00
    1    5    6      9.77      0.00
    2    6    6     -1.57      0.00
    3    7    6      2.11      0.00
    4    8    6      4.34      0.00
    5    9    6      3.33      0.00
    6   10    6      2.92      0.00
    7   11    6     -0.13      0.00
    8   12    6     -0.34      0.00
   -2    0    6    -39.29      0.00
   -1    1    6     -1.13      0.00
    0    2    6    -15.12      0.00
    1    3    6     -8.70      0.00
    2    4    6     10.96      0.00
    3    5    6      4.04      0.00
    4    6    6      6.24      0.00
    5    7    6      0.65      0.00
    6    8    6      1.24      0.00
    7    9    6      1.93      0.00
    8   10    6     -0.26      0.00
    9   11    6     -0.97      0.00
    0    0    6     33.74      0.00
    1    1    6      8.99      0.00
    2    2    6      9.47      0.00
    3    3    6      0.05      0.00
    4    4    6     -3.07      0.00
    5    5    6      7.89      0.00
    6    6    6      0.80      0.00
    7    7    6      0.73      0.00
    8    8    6      0.72      0.00
    9    9    6     -1.04      0.00
   10   10    6     -0.43      0.00
   11   11    6     -1.92      0.00
    2    0    6     -7.97      0.00
    3    1    6     12.12      0.00
    4    2    6      5.44      0.00
    5    3    6     -0.38      0.00
    6    4    6      4.06      0.00
    7    5    6      0.90      0.00
    8    6    6      0.43      0.00
    9    7    6     -2.52      0.00
   10    8    6     -2.43      0.00
   11    9    6     -1.22      0.00
   12   10    6     -0.97      0.00
   13   11    6      0.30      0.00
    4    0    6     14.33      0.00
    5    1    6      4.20      0.00
    6    2    6     -0.72      0.00
    7    3    6     -7.56      0.00
    8    4    6     -5.00      0.00
    9    5    6      0.43      0.00
   10    6    6     -0.43      0.00
   11    7    6     -0.17      0.00
   12    8    6     -0.51      0.00
   13    9    6     -0.87      0.00
   14   10    6      1.22      0.00
    6    0    6      1.76      0.00
    7    1    6      5.54      0.00
    8    2    6      3.04      0.00
    9    3    6      2.08      0.00
   10    4    6      0.03      0.00
   11    5    6      1.34      0.00
   12    6    6      1.53      0.00
   13    7    6     -0.71      0.00
   14    8    6     -0.67      0.00
   15    9    6     -0.49      0.00
   16   10    6      1.13      0.00
    8    0    6     -5.18      0.00
    9    1    6     -5.05      0.00
   10    2    6     -1.13      0.00
   11    3    6     -4.89      0.00
   12    4    6     -0.90      0.00
   13    5    6      1.23      0.00
   14    6    6      0.69      0.00
   15    7    6      1.25      0.00
   16    8    6     -0.34      0.00
   17    9    6     -0.06      0.00
   18   10    6      0.85      0.00
   10    0    6     -2.35      0.00
   11    1    6      2.45      0.00
   12    2    6      1.32      0.00
   13    3    6      2.96      0.00
   14    4    6      1.80      0.00
   15    5    6      1.25      0.00
   16    6    6      1.16      0.00
   17    7    6     -0.67      0.00
   18    8    6     -0.28      0.00
   19    9    6     -1.54      0.00
   12    0    6     -2.42      0.00
   13    1    6     -2.15      0.00
   14    2    6      0.55      0.00
   15    3    6     -0.29      0.00
   16    4    6      0.37      0.00
   17    5    6      0.50      0.00
   18    6    6     -0.05      0.00
   19    7    6      0.81      0.00
   20    8    6     -0.51      0.00
   21    9    6     -0.94      0.00
   14    0    6     -2.36      0.00
   15    1    6     -0.15      0.00
   16    2    6     -0.11      0.00
   17    3    6      0.34      0.00
   18    4    6      1.07      0.00
   19    5    6      0.08      0.00
   20    6    6     -0.18      0.00
   21    7    6     -0.21      0.00
   22    8    6     -0.10      0.00
   16    0    6     -0.76      0.00
   17    1    6      0.04      0.00
   18    2    6     -0.35      0.00
   19    3    6      0.47      0.00
   20    4    6      0.46      0.00
   21    5    6      0.02      0.00
   22    6    6      0.26      0.00
   23    7    6      0.66      0.00
   18    0    6      0.07      0.00
   19    1    6      0.41      0.00
   20    2    6      0.39      0.00
   21    3    6      0.62      0.00
   22    4    6      0.94      0.00
   23    5    6      0.03      0.00
   24    6    6     -0.71      0.00
   25    7    6      0.06      0.00
   20    0    6      1.48      0.00
   21    1    6      1.24      0.00
   22    2    6      0.17      0.00
   23    3    6      0.53      0.00
   24    4    6      0.02      0.00
   25    5    6      0.05      0.00
   26    6    6      0.00      0.00
   22    0    6      1.14      0.00
   23    1    6      0.98      0.00
   24    2    6      0.72      0.00
   25    3    6      0.28      0.00
   26    4    6      0.31      0.00
   27    5    6     -0.58      0.00
   24    0    6      1.02      0.00
   25    1    6      0.19      0.00
   26    2    6     -0.64      0.00
   27    3    6      0.01      0.00
   28    4    6     -0.23      0.00
   26    0    6      0.05      0.00
   27    1    6     -0.41      0.00
   28    2    6     -0.41      0.00
   29    3    6     -0.47      0.00
   28    0    6     -0.36      0.00
   29    1    6     -0.57      0.00
   30    2    6     -0.16      0.00
   30    0    6     -0.87      0.00
  -31    1    7      0.41      0.00
  -30    2    7     -0.36      0.00
  -29    3    7     -0.40      0.00
  -28    4    7     -0.51      0.00
  -27    5    7     -0.30      0.00
  -26    6    7      0.16      0.00
  -25    7    7     -0.11      0.00
  -29    1    7     -0.33      0.00
  -28    2    7      0.05      0.00
  -27    3    7      0.70      0.00
  -26    4    7     -0.19      0.00
  -25    5    7      0.38      0.00
  -24    6    7      0.60      0.00
  -23    7    7     -0.08      0.00
  -22    8    7      0.12      0.00
  -21    9    7     -0.79      0.00
  -27    1    7      0.11      0.00
  -26    2    7      1.11      0.00
  -25    3    7      0.55      0.00
  -24    4    7      0.89      0.00
  -23    5    7     -0.06      0.00
  -22    6    7     -0.86      0.00
  -21    7    7     -0.04      0.00
  -20    8    7     -0.33      0.00
  -19    9    7     -0.05      0.00
  -18   10    7      0.18      0.00
  -25    1    7      0.54      0.00
  -24    2    7     -0.25      0.00
  -23    3    7      1.35      0.00
  -22    4    7     -0.06      0.00
  -21    5    7      0.46      0.00
  -20    6    7     -0.04      0.00
  -19    7    7     -0.22      0.00
  -18    8    7      0.78      0.00
  -17    9    7     -0.50      0.00
  -16   10    7     -0.23      0.00
  -23    1    7     -1.19      0.00
  -22    2    7      0.74      0.00
  -21    3    7     -0.25      0.00
  -20    4    7      1.47      0.00
  -19    5    7     -0.93      0.00
  -18    6    7     -1.74      0.00
  -17    7    7      0.24      0.00
  -16    8    7      0.43      0.00
  -15    9    7      1.34      0.00
  -14   10    7      0.78      0.00
  -13   11    7      0.90      0.00
  -21    1    7     -0.83      0.00
  -20    2    7     -2.45      0.00
  -19    3    7      0.72      0.00
  -18    4    7     -0.39      0.00
  -17    5    7      1.08      0.00
  -16    6    7      0.66      0.00
  -15    7    7      0.83      0.00
  -14    8    7      2.10      0.00
  -13    9    7      0.26      0.00
  -12   10    7      0.43      0.00
  -11   11    7      0.59      0.00
  -19    1    7     -1.30      0.00
  -18    2    7      1.27      0.00
  -17    3    7     -0.52      0.00
  -16    4    7      1.78      0.00
  -15    5    7     -0.96      0.00
  -14    6    7     -1.25      0.00
  -13    7    7      0.39      0.00
  -12    8    7     -0.30      0.00
  -11    9    7      1.43      0.00
  -10   10    7      1.00      0.00
   -9   11    7      1.28      0.00
   -8   12    7      1.48      0.00
  -17    1    7     -1.52      0.00
  -16    2    7     -3.52      0.00
  -15    3    7     -0.38      0.00
  -14    4    7     -1.34      0.00
  -13    5    7      2.13      0.00
  -12    6    7      1.94      0.00
  -11    7    7      0.03      0.00
  -10    8    7      0.40      0.00
   -9    9    7     -0.71      0.00
   -8   10    7      0.14      0.00
   -7   11    7     -0.11      0.00
   -6   12    7     -0.41      0.00
  -15    1    7      1.40      0.00
  -14    2    7      3.47      0.00
  -13    3    7     -2.27      0.00
  -12    4    7     -1.00      0.00
  -11    5    7     -2.63      0.00
  -10    6    7     -1.42      0.00
   -9    7    7     -1.79      0.00
   -8    8    7     -1.89      0.00
   -7    9    7      1.40      0.00
   -6   10    7      0.53      0.00
   -5   11    7      0.63      0.00
   -4   12    7     -0.66      0.00
  -13    1    7     -0.31      0.00
  -12    2    7     -2.23      0.00
  -11    3    7     -2.26      0.00
  -10    4    7     -3.79      0.00
   -9    5    7      3.47      0.00
   -8    6    7      1.42      0.00
   -7    7    7     -0.84      0.00
   -6    8    7     -1.51      0.00
   -5    9    7     -1.91      0.00
   -4   10    7      0.13      0.00
   -3   11    7     -1.76      0.00
   -2   12    7     -1.20      0.00
  -11    1    7      7.49      0.00
  -10    2    7      3.70      0.00
   -9    3    7     -6.42      0.00
   -8    4    7     -7.54      0.00
   -7    5    7     -7.53      0.00
   -6    6    7      0.06      0.00
   -5    7    7     -2.88      0.00
   -4    8    7     -1.61      0.00
   -3    9    7      2.47      0.00
   -2   10    7      0.33      0.00
   -1   11    7      0.91      0.00
    0   12    7     -1.49      0.00
   -9    1    7     -5.50      0.00
   -8    2    7      1.35      0.00
   -7    3    7     -5.77      0.00
   -6    4    7     -7.08      0.00
   -5    5    7      8.19      0.00
   -4    6    7      2.40      0.00
   -3    7    7      1.77      0.00
   -2    8    7      0.00      0.00
   -1    9    7     -1.30      0.00
    0   10    7      1.63      0.00
    1   11    7     -0.37      0.00
    2   12    7      0.46      0.00
   -7    1    7     23.51      0.00
   -6    2    7      7.12      0.00
   -5    3    7     -2.95      0.00
   -4    4    7     -3.83      0.00
   -3    5    7     -6.35      0.00
   -2    6    7      5.71      0.00
   -1    7    7     -0.31      0.00
    0    8    7     -0.38      0.00
    1    9    7      2.89      0.00
    2   10    7      1.52      0.00
    3   11    7      2.24      0.00
    4   12    7      0.00      0.00
   -5    1    7    -15.50      0.00
   -4    2    7      8.94      0.00
   -3    3    7      0.40      0.00
   -2    4    7     -5.88      0.00
   -1    5    7     12.18      0.00
    0    6    7      3.14      0.00
    1    7    7      2.02      0.00
    2    8    7      0.05      0.00
    3    9    7     -0.60      0.00
    4   10    7      2.26      0.00
    5   11    7      1.02      0.00
    6   12    7     -0.29      0.00
   -3    1    7     37.32      0.00
   -2    2    7     16.73      0.00
   -1    3    7      2.37      0.00
    0    4    7      1.49      0.00
    1    5    7     -4.96      0.00
    2    6    7      4.97      0.00
    3    7    7     -0.66      0.00
    4    8    7     -1.09      0.00
    5    9    7      1.05      0.00
    6   10    7      0.35      0.00
    7   11    7      0.13      0.00
   -1    1    7    -12.54      0.00
    0    2    7     10.13      0.00
    1    3    7      3.90      0.00
    2    4    7     -8.61      0.00
    3    5    7      3.67      0.00
    4    6    7     -1.42      0.00
    5    7    7     -1.47      0.00
    6    8    7     -1.69      0.00
    7    9    7     -1.83      0.00
    8   10    7      0.15      0.00
    9   11    7     -0.52      0.00
    1    1    7     20.74      0.00
    2    2    7      7.78      0.00
    3    3    7     -6.36      0.00
    4    4    7     -5.70      0.00
    5    5    7     -6.33      0.00
    6    6    7      1.45      0.00
    7    7    7     -0.20      0.00
    8    8    7     -0.86      0.00
    9    9    7     -0.21      0.00
   10   10    7     -0.96      0.00
   11   11    7      0.17      0.00
    3    1    7     -3.59      0.00
    4    2    7      4.12      0.00
    5    3    7      0.87      0.00
    6    4    7     -5.33      0.00
    7    5    7     -0.19      0.00
    8    6    7      0.31      0.00
    9    7    7      0.40      0.00
   10    8    7     -0.23      0.00
   11    9    7     -0.83      0.00
   12   10    7      0.71      0.00
   13   11    7      0.67      0.00
    5    1    7     -2.50      0.00
    6    2    7     -5.23      0.00
    7    3    7     -5.29      0.00
    8    4    7     -4.62      0.00
    9    5    7     -0.81      0.00
   10    6    7      3.14      0.00
   11    7    7      1.92      0.00
   12    8    7      1.23      0.00
   13    9    7      0.64      0.00
   14   10    7     -0.41      0.00
    7    1    7     -0.24      0.00
    8    2    7      5.10      0.00
    9    3    7      2.33      0.00
   10    4    7      2.48      0.00
   11    5    7      2.15      0.00
   12    6    7      1.56      0.00
   13    7    7      1.56      0.00
   14    8    7      0.08      0.00
   15    9    7     -0.71      0.00
   16   10    7     -1.43      0.00
    9    1    7     -4.36      0.00
   10    2    7     -5.23      0.00
   11    3    7     -0.08      0.00
   12    4    7     -1.42      0.00
   13    5    7     -0.71      0.00
   14    6    7      1.07      0.00
   15    7    7      0.33      0.00
   16    8    7      0.85      0.00
   17    9    7     -1.37      0.00
   18   10    7     -2.26      0.00
   11    1    7     -1.95      0.00
   12    2    7      2.43      0.00
   14    4    7      0.43      0.00
   15    5    7      0.17      0.00
   16    6    7     -0.72      0.00
   17    7    7      0.06      0.00
   18    8    7     -1.27      0.00
   19    9    7     -1.61      0.00
   13    1    7     -1.07      0.00
   14    2    7     -1.56      0.00
   15    3    7     -0.71      0.00
   16    4    7     -0.46      0.00
   17    5    7     -0.63      0.00
   18    6    7      0.07      0.00
   19    7    7     -0.44      0.00
   20    8    7      0.12      0.00
   21    9    7     -1.29      0.00
   15    1    7     -0.92      0.00
   16    2    7      0.06      0.00
   17    3    7      0.28      0.00
   18    4    7      0.34      0.00
   19    5    7      0.15      0.00
   20    6    7     -0.78      0.00
   21    7    7     -1.21      0.00
   22    8    7     -1.01      0.00
   13    3    7      0.41      0.00
   17    1    7      0.38      0.00
   18    2    7      1.01      0.00
   19    3    7     -0.34      0.00
   20    4    7      0.21      0.00
   21    5    7      0.17      0.00
   22    6    7     -0.20      0.00
   23    7    7     -0.38      0.00
   19    1    7      0.44      0.00
   20    2    7      0.06      0.00
   21    3    7      0.11      0.00
   22    4    7      0.19      0.00
   23    5    7      0.09      0.00
   24    6    7     -0.28      0.00
   25    7    7     -1.52      0.00
   21    1    7      0.24      0.00
   22    2    7     -0.30      0.00
   23    3    7     -1.01      0.00
   24    4    7      0.49      0.00
   25    5    7      1.08      0.00
   26    6    7      0.97      0.00
   23    1    7     -0.01      0.00
   24    2    7     -0.32      0.00
   25    3    7      0.66      0.00
   26    4    7      0.78      0.00
   27    5    7      1.25      0.00
   25    1    7     -0.41      0.00
   26    2    7     -0.41      0.00
   27    3    7      0.05      0.00
   28    4    7      1.51      0.00
   27    1    7     -0.27      0.00
   28    2    7     -0.36      0.00
   29    3    7      0.28      0.00
   29    1    7      0.18      0.00
   30    2    7      0.11      0.00
  -30    2    8      0.60      0.00
  -29    3    8      1.15      0.00
  -28    4    8      0.36      0.00
  -27    5    8     -0.60      0.00
  -26    6    8     -0.94      0.00
  -25    7    8     -0.67      0.00
  -30    0    8     -0.97      0.00
  -29    1    8      0.00      0.00
  -28    2    8      0.37      0.00
  -27    3    8     -0.24      0.00
  -26    4    8      0.30      0.00
  -25    5    8     -0.47      0.00
  -24    6    8     -0.50      0.00
  -23    7    8      0.09      0.00
  -22    8    8      0.08      0.00
  -21    9    8      0.20      0.00
  -28    0    8     -0.05      0.00
  -27    1    8      0.35      0.00
  -26    2    8     -1.04      0.00
  -25    3    8     -0.11      0.00
  -24    4    8     -0.56      0.00
  -23    5    8     -0.14      0.00
  -22    6    8     -0.72      0.00
  -21    7    8     -1.48      0.00
  -20    8    8      0.41      0.00
  -19    9    8      0.42      0.00
  -26    0    8      1.08      0.00
  -25    1    8     -0.06      0.00
  -24    2    8     -0.57      0.00
  -23    3    8     -1.92      0.00
  -22    4    8      0.83      0.00
  -21    5    8      0.66      0.00
  -20    6    8     -0.13      0.00
  -19    7    8     -0.22      0.00
  -18    8    8     -0.26      0.00
  -17    9    8      0.51      0.00
  -16   10    8      0.10      0.00
  -24    0    8      0.88      0.00
  -23    1    8      1.23      0.00
  -22    2    8     -1.45      0.00
  -21    3    8      0.63      0.00
  -20    4    8     -0.57      0.00
  -19    5    8      0.36      0.00
  -18    6    8     -1.33      0.00
  -17    7    8     -2.21      0.00
  -16    8    8      0.48      0.00
  -15    9    8      0.53      0.00
  -14   10    8      1.50      0.00
  -13   11    8      1.86      0.00
  -22    0    8      2.35      0.00
  -21    1    8     -0.10      0.00
  -20    2    8     -0.60      0.00
  -19    3    8     -2.78      0.00
  -18    4    8      0.69      0.00
  -17    5    8      0.59      0.00
  -16    6    8      0.49      0.00
  -15    7    8      0.68      0.00
  -14    8    8     -0.43      0.00
  -13    9    8      0.79      0.00
  -12   10    8      0.14      0.00
  -11   11    8      0.18      0.00
  -20    0    8      1.78      0.00
  -19    1    8      1.78      0.00
  -18    2    8     -0.52      0.00
  -17    3    8      1.40      0.00
  -16    4    8     -1.48      0.00
  -15    5    8     -0.10      0.00
  -14    6    8     -1.13      0.00
  -13    7    8     -2.25      0.00
  -12    8    8     -0.49      0.00
  -11    9    8     -1.09      0.00
  -10   10    8      0.28      0.00
   -9   11    8      0.10      0.00
  -18    0    8      0.26      0.00
  -17    1    8     -1.62      0.00
  -16    2    8     -0.51      0.00
  -15    3    8     -2.61      0.00
  -14    4    8      0.82      0.00
  -13    5    8      0.44      0.00
  -12    6    8      1.16      0.00
  -11    7    8      0.53      0.00
  -10    8    8     -2.71      0.00
   -9    9    8     -1.40      0.00
   -8   10    8     -1.83      0.00
   -7   11    8     -1.05      0.00
   -6   12    8     -0.55      0.00
  -16    0    8      1.05      0.00
  -15    1    8      1.85      0.00
  -14    2    8      2.20      0.00
  -13    3    8      3.77      0.00
  -12    4    8     -2.93      0.00
  -11    5    8     -2.29      0.00
  -10    6    8     -2.28      0.00
   -9    7    8     -1.93      0.00
   -8    8    8     -1.49      0.00
   -7    9    8     -1.80      0.00
   -6   10    8      0.88      0.00
   -5   11    8      0.35      0.00
   -4   12    8      0.90      0.00
  -14    0    8     -3.73      0.00
  -13    1    8     -2.93      0.00
  -12    2    8      1.73      0.00
  -11    3    8      1.56      0.00
  -10    4    8      2.34      0.00
   -9    5    8     -0.44      0.00
   -8    6    8      3.72      0.00
   -7    7    8      0.93      0.00
   -6    8    8     -2.09      0.00
   -5    9    8     -0.06      0.00
   -4   10    8     -0.80      0.00
   -3   11    8      1.60      0.00
   -2   12    8      0.91      0.00
  -12    0    8     -0.28      0.00
  -11    1    8     -0.44      0.00
  -10    2    8      6.85      0.00
   -9    3    8      5.05      0.00
   -8    4    8     -5.66      0.00
   -7    5    8     -2.36      0.00
   -6    6    8     -2.62      0.00
   -5    7    8      2.02      0.00
   -4    8    8      1.92      0.00
   -3    9    8      0.98      0.00
   -2   10    8      3.83      0.00
   -1   11    8      1.87      0.00
    0   12    8      1.96      0.00
  -10    0    8    -14.78      0.00
   -9    1    8     -4.32      0.00
   -8    2    8     -0.97      0.00
   -7    3    8      6.22      0.00
   -6    4    8      5.83      0.00
   -5    5    8     -1.60      0.00
   -4    6    8      8.25      0.00
   -3    7    8      3.56      0.00
   -2    8    8      0.61      0.00
   -1    9    8      1.92      0.00
    0   10    8     -0.21      0.00
    1   11    8      2.07      0.00
    2   12    8      0.43      0.00
   -8    0    8      8.02      0.00
   -7    1    8     -2.06      0.00
   -6    2    8     16.25      0.00
   -5    3    8      9.42      0.00
   -4    4    8     -6.97      0.00
   -3    5    8      0.12      0.00
   -2    6    8     -2.47      0.00
   -1    7    8      2.64      0.00
    0    8    8      1.27      0.00
    1    9    8     -0.89      0.00
    2   10    8      0.69      0.00
    3   11    8     -0.37      0.00
    4   12    8     -0.57      0.00
   -6    0    8    -28.61      0.00
   -5    1    8     -2.47      0.00
   -4    2    8     -4.38      0.00
   -3    3    8      4.86      0.00
   -2    4    8      5.75      0.00
   -1    5    8     -6.22      0.00
    0    6    8      4.10      0.00
    1    7    8     -0.62      0.00
    2    8    8     -2.98      0.00
    3    9    8     -1.74      0.00
    4   10    8     -2.59      0.00
    5   11    8     -0.01      0.00
   -4    0    8     23.35      0.00
   -3    1    8      0.39      0.00
   -2    2    8     15.11      0.00
   -1    3    8      8.93      0.00
    0    4    8     -9.51      0.00
    1    5    8     -2.24      0.00
    2    6    8     -5.03      0.00
    3    7    8     -1.24      0.00
    4    8    8     -1.42      0.00
    5    9    8     -2.31      0.00
    6   10    8     -1.01      0.00
    7   11    8      0.07      0.00
   -2    0    8    -27.70      0.00
   -1    1    8     -4.31      0.00
    0    2    8     -4.70      0.00
    1    3    8      0.04      0.00
    2    4    8      2.72      0.00
    3    5    8     -7.39      0.00
    4    6    8     -0.81      0.00
    5    7    8     -1.66      0.00
    6    8    8     -1.73      0.00
    7    9    8      0.03      0.00
    8   10    8     -0.02      0.00
    9   11    8      2.33      0.00
    0    0    8     13.14      0.00
    1    1    8     -4.71      0.00
    2    2    8     -0.40      0.00
    3    3    8      2.39      0.00
    4    4    8     -5.54      0.00
    5    5    8     -1.42      0.00
    6    6    8     -1.23      0.00
    7    7    8      1.23      0.00
    8    8    8      1.49      0.00
    9    9    8      0.62      0.00
   10   10    8      0.97      0.00
   11   11    8      1.13      0.00
    2    0    8    -12.49      0.00
    3    1    8     -3.59      0.00
    4    2    8      1.12      0.00
    5    3    8      5.00      0.00
    6    4    8      4.23      0.00
    7    5    8     -0.93      0.00
    8    6    8      0.11      0.00
    9    7    8     -0.01      0.00
   10    8    8      0.49      0.00
   11    9    8      1.30      0.00
   12   10    8     -0.17      0.00
   13   11    8      0.37      0.00
    4    0    8     -1.17      0.00
    5    1    8     -4.98      0.00
    6    2    8     -3.74      0.00
    7    3    8     -1.60      0.00
    8    4    8     -0.36      0.00
    9    5    8     -1.17      0.00
   10    6    8     -1.37      0.00
   11    7    8      0.69      0.00
   12    8    8      1.11      0.00
   13    9    8      0.41      0.00
   14   10    8     -0.83      0.00
    6    0    8      3.17      0.00
    7    1    8      3.16      0.00
    8    2    8      1.55      0.00
    9    3    8      5.20      0.00
   10    4    8      1.64      0.00
   11    5    8     -0.56      0.00
   12    6    8     -0.69      0.00
   13    7    8     -0.94      0.00
   14    8    8      0.33      0.00
   15    9    8     -0.14      0.00
   16   10    8     -1.14      0.00
    8    0    8      0.00      0.00
    9    1    8     -3.35      0.00
   10    2    8     -1.98      0.00
   11    3    8     -3.34      0.00
   12    4    8     -0.98      0.00
   13    5    8     -1.01      0.00
   14    6    8     -1.48      0.00
   15    7    8      0.58      0.00
   16    8    8      0.49      0.00
   17    9    8      1.30      0.00
   10    0    8      2.30      0.00
   11    1    8      2.40      0.00
   12    2    8     -0.91      0.00
   13    3    8      1.04      0.00
   14    4    8      0.57      0.00
   15    5    8      0.02      0.00
   16    6    8     -0.03      0.00
   17    7    8     -0.94      0.00
   18    8    8      0.66      0.00
   19    9    8      1.05      0.00
   12    0    8      2.91      0.00
   13    1    8      0.26      0.00
   14    2    8      0.32      0.00
   15    3    8     -0.31      0.00
   16    4    8     -0.41      0.00
   17    5    8      0.51      0.00
   18    6    8      0.12      0.00
   19    7    8      0.80      0.00
   20    8    8      0.83      0.00
   14    0    8      1.94      0.00
   15    1    8      1.23      0.00
   16    2    8      0.45      0.00
   17    3    8     -0.28      0.00
   18    4    8      0.41      0.00
   19    5    8      0.60      0.00
   20    6    8     -0.07      0.00
   21    7    8     -0.75      0.00
   22    8    8     -0.51      0.00
   16    0    8      1.94      0.00
   17    1    8      0.76      0.00
   18    2    8     -0.14      0.00
   19    3    8     -0.09      0.00
   20    4    8     -0.21      0.00
   21    5    8      0.63      0.00
   22    6    8      0.82      0.00
   23    7    8      0.04      0.00
   18    0    8     -0.26      0.00
   19    1    8     -1.06      0.00
   20    2    8     -0.25      0.00
   21    3    8     -0.60      0.00
   22    4    8      0.11      0.00
   23    5    8      0.07      0.00
   24    6    8     -0.30      0.00
   20    0    8     -0.98      0.00
   21    1    8     -1.16      0.00
   22    2    8     -1.33      0.00
   23    3    8     -0.97      0.00
   24    4    8     -0.57      0.00
   25    5    8      0.69      0.00
   26    6    8      1.62      0.00
   22    0    8     -1.32      0.00
   23    1    8     -0.84      0.00
   24    2    8     -0.14      0.00
   25    3    8     -0.48      0.00
   26    4    8      0.37      0.00
   27    5    8      0.21      0.00
   24    0    8     -0.51      0.00
   25    1    8     -0.18      0.00
   26    2    8     -0.20      0.00
   27    3    8      0.22      0.00
   28    4    8      0.20      0.00
   26    0    8      0.38      0.00
   27    1    8      0.83      0.00
   28    2    8      0.32      0.00
   29    3    8     -0.52      0.00
   28    0    8      1.58      0.00
   29    1    8      1.04      0.00
   30    0    8      0.48      0.00
  -30    2    9     -0.29      0.00
  -29    3    9     -0.74      0.00
  -28    4    9     -0.18      0.00
  -27    5    9     -0.55      0.00
  -26    6    9     -0.80      0.00
  -29    1    9     -0.43      0.00
  -28    2    9     -0.72      0.00
  -27    3    9     -0.62      0.00
  -26    4    9     -0.80      0.00
  -25    5    9      0.45      0.00
  -24    6    9      0.64      0.00
  -23    7    9     -0.08      0.00
  -22    8    9      0.43      0.00
  -27    1    9     -0.53      0.00
  -26    2    9      0.21      0.00
  -25    3    9     -1.35      0.00
  -24    4    9      0.01      0.00
  -23    5    9     -0.17      0.00
  -22    6    9     -0.27      0.00
  -21    7    9     -0.26      0.00
  -20    8    9     -0.57      0.00
  -19    9    9      0.48      0.00
  -25    1    9      0.87      0.00
  -24    2    9     -0.54      0.00
  -23    3    9     -0.04      0.00
  -22    4    9     -1.03      0.00
  -21    5    9      1.02      0.00
  -20    6    9      1.33      0.00
  -19    7    9     -0.41      0.00
  -18    8    9     -0.33      0.00
  -17    9    9     -1.12      0.00
  -16   10    9     -1.28      0.00
  -23    1    9      0.90      0.00
  -22    2    9      2.43      0.00
  -21    3    9     -0.62      0.00
  -20    4    9      0.40      0.00
  -19    5    9     -0.86      0.00
  -18    6    9     -0.89      0.00
  -17    7    9     -1.32      0.00
  -16    8    9     -2.28      0.00
  -15    9    9     -0.74      0.00
  -14   10    9     -1.16      0.00
  -21    1    9      1.66      0.00
  -20    2    9     -0.69      0.00
  -19    3    9      0.40      0.00
  -18    4    9     -1.25      0.00
  -17    5    9      1.15      0.00
  -16    6    9      1.01      0.00
  -15    7    9     -0.61      0.00
  -14    8    9      0.31      0.00
  -13    9    9     -1.31      0.00
  -12   10    9     -0.87      0.00
  -11   11    9     -1.21      0.00
  -19    1    9      1.42      0.00
  -18    2    9      2.71      0.00
  -17    3    9      0.10      0.00
  -16    4    9      1.18      0.00
  -15    5    9     -1.81      0.00
  -14    6    9     -1.78      0.00
  -13    7    9     -0.09      0.00
  -12    8    9     -0.75      0.00
  -11    9    9      0.62      0.00
  -10   10    9     -0.37      0.00
   -9   11    9     -0.37      0.00
  -17    1    9     -1.36      0.00
  -16    2    9     -3.25      0.00
  -15    3    9      1.09      0.00
  -14    4    9     -0.31      0.00
  -13    5    9      1.44      0.00
  -12    6    9      1.60      0.00
  -11    7    9      1.81      0.00
  -10    8    9      2.35      0.00
   -9    9    9     -1.02      0.00
   -8   10    9     -0.33      0.00
   -7   11    9     -0.78      0.00
  -15    1    9     -0.31      0.00
  -14    2    9      1.53      0.00
  -13    3    9      0.87      0.00
  -12    4    9      1.79      0.00
  -11    5    9     -2.90      0.00
  -10    6    9     -0.92      0.00
   -9    7    9      1.47      0.00
   -8    8    9      0.83      0.00
   -7    9    9      1.20      0.00
   -6   10    9     -0.24      0.00
   -5   11    9      0.91      0.00
  -13    1    9     -5.22      0.00
  -12    2    9     -3.83      0.00
  -11    3    9      3.88      0.00
  -10    4    9      3.52      0.00
   -9    5    9      4.41      0.00
   -8    6    9      0.77      0.00
   -7    7    9      2.71      0.00
   -6    8    9      1.27      0.00
   -5    9    9     -2.31      0.00
   -4   10    9      0.19      0.00
   -3   11    9     -0.56      0.00
   -2   12    9      1.23      0.00
  -11    1    9      1.01      0.00
  -10    2    9     -0.31      0.00
   -9    3    9      3.13      0.00
   -8    4    9      3.38      0.00
   -7    5    9     -6.78      0.00
   -6    6    9     -1.52      0.00
   -5    7    9     -0.55      0.00
   -4    8    9     -0.08      0.00
   -3    9    9      1.45      0.00
   -2   10    9     -0.40      0.00
   -1   11    9      0.85      0.00
    0   12    9     -0.41      0.00
   -9    1    9    -12.75      0.00
   -8    2    9     -2.89      0.00
   -7    3    9      4.23      0.00
   -6    4    9      2.25      0.00
   -5    5    9      4.13      0.00
   -4    6    9     -3.39      0.00
   -3    7    9      1.25      0.00
   -2    8    9      0.29      0.00
   -1    9    9     -2.26      0.00
    0   10    9      0.07      0.00
    1   11    9     -1.52      0.00
    2   12    9     -0.12      0.00
   -7    1    9      9.74      0.00
   -6    2    9     -3.40      0.00
   -5    3    9      0.53      0.00
   -4    4    9      2.55      0.00
   -3    5    9    -11.10      0.00
   -2    6    9     -2.18      0.00
   -1    7    9     -1.35      0.00
    0    8    9     -0.57      0.00
    1    9    9      1.10      0.00
    2   10    9     -1.25      0.00
    3   11    9     -0.96      0.00
   -5    1    9    -23.97      0.00
   -4    2    9     -9.70      0.00
   -3    3    9     -1.08      0.00
   -2    4    9     -3.04      0.00
   -1    5    9      3.15      0.00
    0    6    9     -3.66      0.00
    1    7    9      0.79      0.00
    2    8    9      0.44      0.00
    3    9    9     -1.08      0.00
    4   10    9      0.26      0.00
    5   11    9     -0.08      0.00
   -3    1    9     11.17      0.00
   -2    2    9     -5.96      0.00
   -1    3    9     -3.28      0.00
    0    4    9      5.33      0.00
    1    5    9     -5.37      0.00
    2    6    9      0.93      0.00
    3    7    9      0.97      0.00
    4    8    9      0.47      0.00
    5    9    9      1.47      0.00
    6   10    9      0.05      0.00
    7   11    9      0.23      0.00
   -1    1    9    -18.64      0.00
    0    2    9     -8.11      0.00
    1    3    9      4.31      0.00
    2    4    9      2.41      0.00
    3    5    9      4.98      0.00
    4    6    9     -0.82      0.00
    5    7    9      0.39      0.00
    6    8    9      0.55      0.00
    7    9    9      0.62      0.00
    8   10    9      1.46      0.00
    9   11    9      0.49      0.00
    1    1    9      3.84      0.00
    2    2    9     -2.33      0.00
    3    3    9     -0.69      0.00
    4    4    9      5.48      0.00
    5    5    9      0.02      0.00
    6    6    9      0.68      0.00
    7    7    9      0.30      0.00
    8    8    9      0.23      0.00
    9    9    9      1.03      0.00
   10   10    9     -0.76      0.00
   11   11    9     -1.19      0.00
    3    1    9     -0.46      0.00
    4    2    9      2.59      0.00
    5    3    9      6.32      0.00
    6    4    9      4.48      0.00
    7    5    9      1.69      0.00
    8    6    9     -1.65      0.00
    9    7    9     -1.14      0.00
   10    8    9     -0.71      0.00
   11    9    9     -0.52      0.00
   12   10    9     -0.25      0.00
    5    1    9     -1.22      0.00
    6    2    9     -3.77      0.00
    7    3    9     -1.57      0.00
    8    4    9     -1.54      0.00
    9    5    9     -1.29      0.00
   10    6    9     -0.65      0.00
   11    7    9     -0.99      0.00
   12    8    9     -0.40      0.00
   13    9    9      0.08      0.00
   14   10    9     -0.13      0.00
    7    1    9      3.63      0.00
    8    2    9      4.84      0.00
    9    3    9      0.78      0.00
   10    4    9      1.48      0.00
   11    5    9      0.92      0.00
   12    6    9     -0.23      0.00
   13    7    9     -0.19      0.00
   14    8    9     -0.94      0.00
   15    9    9      0.47      0.00
   16   10    9      1.12      0.00
    9    1    9      0.61      0.00
   10    2    9     -2.88      0.00
   11    3    9     -0.70      0.00
   12    4    9     -1.48      0.00
   13    5    9     -0.03      0.00
   14    6    9      1.39      0.00
   15    7    9      0.09      0.00
   16    8    9      1.08      0.00
   17    9    9      1.30      0.00
   11    1    9      0.95      0.00
   12    2    9      2.41      0.00
   13    3    9      0.12      0.00
   14    4    9      0.01      0.00
   15    5    9      1.38      0.00
   16    6    9      0.86      0.00
   17    7    9      0.49      0.00
   18    8    9     -0.57      0.00
   19    9    9      0.65      0.00
   13    1    9      1.64      0.00
   14    2    9      0.13      0.00
   15    3    9     -0.52      0.00
   16    4    9     -0.76      0.00
   17    5    9      0.41      0.00
   18    6    9      1.78      0.00
   19    7    9      1.00      0.00
   20    8    9      0.70      0.00
   15    1    9     -0.05      0.00
   16    2    9     -0.58      0.00
   17    3    9     -0.04      0.00
   18    4    9     -0.66      0.00
   19    5    9      0.48      0.00
   20    6    9      0.68      0.00
   21    7    9      0.12      0.00
   22    8    9     -0.19      0.00
   17    1    9      0.28      0.00
   18    2    9      0.54      0.00
   19    3    9     -0.22      0.00
   20    4    9     -0.23      0.00
   21    5    9      0.76      0.00
   22    6    9      1.42      0.00
   23    7    9      1.85      0.00
   19    1    9      0.11      0.00
   20    2    9      0.17      0.00
   21    3    9      0.86      0.00
   22    4    9     -0.14      0.00
   23    5    9      0.03      0.00
   24    6    9      0.21      0.00
   21    1    9     -0.01      0.00
   22    2    9      0.07      0.00
   23    3    9     -0.62      0.00
   24    4    9     -0.35      0.00
   25    5    9      0.02      0.00
   23    1    9      0.05      0.00
   24    2    9      0.23      0.00
   25    3    9      0.05      0.00
   26    4    9     -1.09      0.00
   27    5    9     -0.96      0.00
   25    1    9      0.05      0.00
   26    2    9      0.11      0.00
   27    3    9     -0.63      0.00
   28    4    9     -0.46      0.00
   27    1    9      0.03      0.00
   28    2    9      0.03      0.00
   29    1    9      0.88      0.00
  -29    3   10     -0.47      0.00
  -28    4   10     -0.69      0.00
  -27    5   10      0.30      0.00
  -29    1   10     -0.75      0.00
  -28    2   10      0.06      0.00
  -27    3   10     -0.14      0.00
  -26    4   10      0.62      0.00
  -25    5   10      0.65      0.00
  -24    6   10      0.78      0.00
  -23    7   10      0.99      0.00
  -22    8   10      0.09      0.00
  -28    0   10     -1.14      0.00
  -27    1   10     -0.68      0.00
  -26    2   10      0.08      0.00
  -25    3   10      1.46      0.00
  -24    4   10     -0.29      0.00
  -23    5   10      0.02      0.00
  -22    6   10      0.14      0.00
  -21    7   10     -0.04      0.00
  -20    8   10      0.39      0.00
  -19    9   10      0.21      0.00
  -26    0   10     -1.33      0.00
  -25    1   10     -1.51      0.00
  -24    2   10      0.77      0.00
  -23    3   10     -0.66      0.00
  -22    4   10      0.64      0.00
  -21    5   10      0.60      0.00
  -20    6   10      1.44      0.00
  -19    7   10      1.72      0.00
  -18    8   10      0.06      0.00
  -17    9   10      0.35      0.00
  -16   10   10     -0.61      0.00
  -24    0   10     -2.11      0.00
  -23    1   10     -0.18      0.00
  -22    2   10      0.14      0.00
  -21    3   10      1.64      0.00
  -20    4   10     -0.40      0.00
  -19    5   10      0.29      0.00
  -18    6   10     -0.30      0.00
  -17    7   10     -0.87      0.00
  -16    8   10      0.35      0.00
  -15    9   10     -0.24      0.00
  -14   10   10      0.05      0.00
  -22    0   10     -1.46      0.00
  -21    1   10     -1.62      0.00
  -20    2   10     -0.02      0.00
  -19    3   10     -1.57      0.00
  -18    4   10      1.79      0.00
  -17    5   10      1.05      0.00
  -16    6   10      1.37      0.00
  -15    7   10      1.89      0.00
  -14    8   10      0.44      0.00
  -13    9   10      1.40      0.00
  -12   10   10     -0.28      0.00
  -11   11   10     -0.47      0.00
  -20    0   10     -0.26      0.00
  -19    1   10      1.27      0.00
  -18    2   10      0.38      0.00
  -17    3   10      2.21      0.00
  -16    4   10     -0.09      0.00
  -15    5   10      0.27      0.00
  -14    6   10     -0.83      0.00
  -13    7   10     -1.17      0.00
  -12    8   10      1.79      0.00
  -11    9   10      0.62      0.00
  -10   10   10      1.05      0.00
   -9   11   10      0.54      0.00
  -18    0   10     -0.67      0.00
  -17    1   10     -1.13      0.00
  -16    2   10     -1.49      0.00
  -15    3   10     -2.99      0.00
  -14    4   10      2.09      0.00
  -13    5   10      1.49      0.00
  -12    6   10      1.43      0.00
  -11    7   10      1.59      0.00
  -10    8   10      1.02      0.00
   -9    9   10      1.82      0.00
   -8   10   10     -0.40      0.00
   -7   11   10      0.19      0.00
  -16    0   10      3.28      0.00
  -15    1   10      2.63      0.00
  -14    2   10     -0.99      0.00
  -13    3   10     -0.37      0.00
  -12    4   10     -2.01      0.00
  -11    5   10     -0.58      0.00
  -10    6   10     -3.00      0.00
   -9    7   10     -1.16      0.00
   -8    8   10      2.05      0.00
   -7    9   10      0.37      0.00
   -6   10   10      1.15      0.00
   -5   11   10     -0.41      0.00
  -14    0   10      0.14      0.00
  -13    1   10     -0.80      0.00
  -12    2   10     -4.15      0.00
  -11    3   10     -3.58      0.00
  -10    4   10      3.20      0.00
   -9    5   10      0.67      0.00
   -8    6   10      1.54      0.00
   -7    7   10     -0.77      0.00
   -6    8   10     -0.63      0.00
   -5    9   10     -0.08      0.00
   -4   10   10     -2.41      0.00
   -3   11   10     -0.67      0.00
  -12    0   10      6.83      0.00
  -11    1   10      2.02      0.00
  -10    2   10     -0.10      0.00
   -9    3   10     -2.83      0.00
   -8    4   10     -4.52      0.00
   -7    5   10     -0.21      0.00
   -6    6   10     -6.08      0.00
   -5    7   10     -1.90      0.00
   -4    8   10      0.22      0.00
   -3    9   10     -1.64      0.00
   -2   10   10      0.33      0.00
   -1   11   10     -1.65      0.00
  -10    0   10     -4.07      0.00
   -9    1   10      1.51      0.00
   -8    2   10     -6.74      0.00
   -7    3   10     -3.04      0.00
   -6    4   10      5.79      0.00
   -5    5   10     -0.69      0.00
   -4    6   10      1.99      0.00
   -3    7   10     -1.89      0.00
   -2    8   10     -1.48      0.00
   -1    9   10     -0.10      0.00
    0   10   10     -1.41      0.00
    1   11   10      0.27      0.00
   -8    0   10     16.98      0.00
   -7    1   10      3.41      0.00
   -6    2   10      5.80      0.00
   -5    3   10     -0.51      0.00
   -4    4   10     -4.43      0.00
   -3    5   10      2.94      0.00
   -2    6   10     -4.81      0.00
   -1    7   10     -0.22      0.00
    0    8   10      1.71      0.00
    1    9   10      0.14      0.00
    2   10   10      1.97      0.00
    3   11   10      0.16      0.00
   -6    0   10    -13.68      0.00
   -5    1   10      1.11      0.00
   -4    2   10     -8.32      0.00
   -3    3   10     -4.50      0.00
   -2    4   10      7.43      0.00
   -1    5   10      0.05      0.00
    0    6   10      3.27      0.00
    1    7   10      0.85      0.00
    2    8   10      0.74      0.00
    3    9   10      1.88      0.00
    4   10   10      1.59      0.00
    5   11   10      1.33      0.00
   -4    0   10     19.38      0.00
   -3    1   10      2.45      0.00
   -2    2   10      4.87      0.00
   -1    3   10      1.86      0.00
    0    4   10     -2.64      0.00
    1    5   10      4.94      0.00
    2    6   10     -0.45      0.00
    3    7   10      1.46      0.00
    4    8   10      1.95      0.00
    5    9   10      0.42      0.00
    6   10   10      1.06      0.00
    7   11   10     -1.06      0.00
   -2    0   10    -14.95      0.00
   -1    1   10      0.10      0.00
    0    2   10     -1.70      0.00
    1    3   10     -2.70      0.00
    2    4   10      5.28      0.00
    3    5   10      0.30      0.00
    4    6   10      1.02      0.00
    5    7   10     -0.21      0.00
    6    8   10     -0.43      0.00
    7    9   10      0.33      0.00
    8   10   10      0.07      0.00
    9   11   10     -1.01      0.00
    0    0   10      9.04      0.00
    1    1   10      2.07      0.00
    2    2   10     -0.77      0.00
    3    3   10     -2.07      0.00
    4    4   10     -3.60      0.00
    5    5   10      0.63      0.00
    6    6   10     -0.34      0.00
    7    7   10      0.49      0.00
    8    8   10      0.08      0.00
    9    9   10     -1.28      0.00
   10   10   10     -0.50      0.00
    3    1   10      3.04      0.00
    4    2   10      3.14      0.00
    5    3   10      0.61      0.00
    6    4   10      0.60      0.00
    7    5   10      0.12      0.00
    8    6   10      0.73      0.00
    9    7   10     -0.18      0.00
   10    8   10     -0.85      0.00
   12   10   10      0.47      0.00
    4    0   10     -0.76      0.00
    5    1   10     -0.98      0.00
    6    2   10     -2.06      0.00
    7    3   10     -4.34      0.00
    8    4   10     -2.00      0.00
    9    5   10     -0.44      0.00
   10    6   10      0.30      0.00
   11    7   10      0.85      0.00
   12    8   10     -0.30      0.00
   13    9   10     -0.05      0.00
   14   10   10      1.18      0.00
    6    0   10      3.07      0.00
    7    1   10      4.18      0.00
    8    2   10      2.38      0.00
    9    3   10      3.39      0.00
   10    4   10      0.37      0.00
   11    5   10      0.13      0.00
   12    6   10      1.18      0.00
   13    7   10     -0.23      0.00
   14    8   10     -0.52      0.00
   15    9   10     -0.75      0.00
    8    0   10     -0.22      0.00
    9    1   10     -1.19      0.00
   10    2   10      1.04      0.00
   11    3   10     -1.23      0.00
   12    4   10     -1.08      0.00
   13    5   10     -1.08      0.00
   14    6   10     -0.24      0.00
   15    7   10      0.95      0.00
   16    8   10     -0.72      0.00
   17    9   10     -0.89      0.00
   10    0   10     -0.73      0.00
   11    1   10      0.85      0.00
   12    2   10     -0.22      0.00
   13    3   10      1.02      0.00
   14    4   10     -0.09      0.00
   15    5   10     -1.22      0.00
   16    6   10      0.00      0.00
   17    7   10     -1.02      0.00
   18    8   10     -1.49      0.00
   12    0   10     -1.23      0.00
   13    1   10     -1.83      0.00
   14    2   10     -0.05      0.00
   15    3   10      0.55      0.00
   16    4   10     -0.79      0.00
   17    5   10     -1.17      0.00
   18    6   10     -0.14      0.00
   19    7   10      0.67      0.00
   20    8   10     -0.22      0.00
   14    0   10     -3.53      0.00
   15    1   10     -1.87      0.00
   16    2   10     -0.36      0.00
   17    3   10     -0.11      0.00
   18    4   10     -0.29      0.00
   19    5   10     -1.23      0.00
   20    6   10     -0.63      0.00
   21    7   10     -0.22      0.00
   16    0   10     -1.29      0.00
   17    1   10      0.05      0.00
   18    2   10     -0.18      0.00
   19    3   10      0.26      0.00
   20    4   10     -0.41      0.00
   21    5   10     -0.02      0.00
   22    6   10      1.07      0.00
   23    7   10      1.04      0.00
   18    0   10     -0.20      0.00
   19    1   10      0.36      0.00
   20    2   10      0.52      0.00
   21    3   10      0.35      0.00
   22    4   10      0.43      0.00
   23    5   10     -0.20      0.00
   24    6   10     -0.53      0.00
   11    9   10     -0.39      0.00
   20    0   10      1.12      0.00
   21    1   10      0.89      0.00
   22    2   10     -0.24      0.00
   23    3   10     -0.11      0.00
   24    4   10     -0.49      0.00
   25    5   10      0.10      0.00
   22    0   10      1.07      0.00
   23    1   10      0.75      0.00
   24    2   10     -0.06      0.00
   25    3   10     -0.81      0.00
   26    4   10     -0.81      0.00
   24    0   10      0.81      0.00
   25    1   10     -0.24      0.00
   26    2   10     -0.97      0.00
   27    3   10     -0.70      0.00
   26    0   10     -0.48      0.00
   27    1   10     -0.70      0.00
   28    2   10     -0.99      0.00
   28    0   10     -0.11      0.00
   29    1   10     -0.36      0.00
  -29    1   11      0.27      0.00
  -28    2   11     -0.03      0.00
  -27    3   11      1.12      0.00
  -26    4   11     -0.12      0.00
  -25    5   11      0.21      0.00
  -24    6   11      0.35      0.00
  -23    7   11     -0.36      0.00
  -27    1   11     -0.31      0.00
  -26    2   11      0.62      0.00
  -25    3   11      0.00      0.00
  -24    4   11      0.10      0.00
  -23    5   11     -0.68      0.00
  -22    6   11     -0.78      0.00
  -21    7   11     -0.54      0.00
  -20    8   11     -0.58      0.00
  -25    1   11     -0.38      0.00
  -24    2   11     -1.52      0.00
  -23    3   11     -0.10      0.00
  -22    4   11     -0.85      0.00
  -21    5   11      1.26      0.00
  -20    6   11      1.33      0.00
  -19    7   11      0.70      0.00
  -18    8   11      1.24      0.00
  -17    9   11      1.09      0.00
  -23    1   11     -0.60      0.00
  -22    2   11      0.85      0.00
  -21    3   11     -0.83      0.00
  -20    4   11      0.31      0.00
  -19    5   11     -0.48      0.00
  -18    6   11     -0.28      0.00
  -17    7   11      0.15      0.00
  -16    8   11     -0.62      0.00
  -15    9   11      1.23      0.00
  -14   10   11      0.98      0.00
  -21    1   11     -0.42      0.00
  -20    2   11     -1.67      0.00
  -19    3   11     -0.54      0.00
  -18    4   11     -1.54      0.00
  -17    5   11      1.99      0.00
  -16    6   11      2.13      0.00
  -15    7   11      0.31      0.00
  -14    8   11      0.65      0.00
  -13    9   11     -0.42      0.00
  -12   10   11      0.35      0.00
  -19    1   11      1.70      0.00
  -18    2   11      2.98      0.00
  -17    3   11     -1.20      0.00
  -16    4   11      0.01      0.00
  -15    5   11     -0.78      0.00
  -14    6   11     -0.99      0.00
  -13    7   11     -1.51      0.00
  -12    8   11     -2.77      0.00
  -11    9   11      0.31      0.00
  -10   10   11     -0.20      0.00
   -9   11   11      0.09      0.00
  -17    1   11      0.33      0.00
  -16    2   11     -1.34      0.00
  -15    3   11     -1.00      0.00
  -14    4   11     -1.47      0.00
  -13    5   11      2.41      0.00
  -12    6   11      1.04      0.00
  -11    7   11     -1.30      0.00
  -10    8   11     -0.66      0.00
   -9    9   11     -0.92      0.00
   -8   10   11      0.44      0.00
   -7   11   11     -0.43      0.00
  -15    1   11      3.89      0.00
  -14    2   11      3.32      0.00
  -13    3   11     -2.02      0.00
  -12    4   11     -1.08      0.00
  -11    5   11     -2.67      0.00
  -10    6   11     -0.98      0.00
   -9    7   11     -2.04      0.00
   -8    8   11     -1.23      0.00
   -7    9   11      2.09      0.00
   -6   10   11      0.23      0.00
   -5   11   11      0.51      0.00
  -13    1   11     -0.47      0.00
  -12    2   11     -0.57      0.00
  -11    3   11     -0.83      0.00
  -10    4   11     -0.79      0.00
   -9    5   11      4.88      0.00
   -8    6   11      0.89      0.00
   -7    7   11      0.42      0.00
   -6    8   11      0.28      0.00
   -5    9   11     -0.56      0.00
   -4   10   11      0.88      0.00
   -3   11   11     -0.51      0.00
  -11    1   11      5.74      0.00
  -10    2   11      0.78      0.00
   -9    3   11     -2.63      0.00
   -8    4   11     -0.11      0.00
   -7    5   11     -2.94      0.00
   -6    6   11      1.97      0.00
   -5    7   11     -1.21      0.00
   -4    8   11     -0.06      0.00
   -3    9   11      2.37      0.00
   -2   10   11     -0.10      0.00
   -1   11   11      1.03      0.00
   -9    1   11     -6.94      0.00
   -8    2   11     -0.02      0.00
   -7    3   11      0.89      0.00
   -6    4   11      0.69      0.00
   -5    5   11      8.78      0.00
   -4    6   11      0.93      0.00
   -3    7   11      0.76      0.00
   -2    8   11      0.40      0.00
   -1    9   11     -1.14      0.00
    0   10   11      0.98      0.00
    1   11   11      0.62      0.00
   -7    1   11     11.24      0.00
   -6    2   11      3.17      0.00
   -5    3   11      1.06      0.00
   -4    4   11      4.19      0.00
   -3    5   11     -2.59      0.00
   -2    6   11      1.92      0.00
   -1    7   11     -1.39      0.00
    0    8   11     -0.75      0.00
    1    9   11      0.94      0.00
    2   10   11     -0.58      0.00
    3   11   11      0.24      0.00
   -5    1   11    -11.08      0.00
   -4    2   11      1.49      0.00
   -3    3   11      3.42      0.00
   -2    4   11     -1.90      0.00
   -1    5   11      5.12      0.00
    0    6   11     -1.38      0.00
    1    7   11     -1.12      0.00
    2    8   11     -0.34      0.00
    3    9   11     -1.46      0.00
    4   10   11      0.14      0.00
    5   11   11      0.27      0.00
   -3    1   11     12.07      0.00
   -2    2   11      5.25      0.00
   -1    3   11     -1.64      0.00
    0    4   11      0.67      0.00
    1    5   11     -4.13      0.00
    2    6   11     -0.01      0.00
    3    7   11     -0.96      0.00
    4    8   11     -0.87      0.00
    5    9   11     -0.68      0.00
    6   10   11     -1.42      0.00
    7   11   11     -0.51      0.00
   -1    1   11     -6.07      0.00
    0    2   11     -0.09      0.00
    1    3   11      1.38      0.00
    2    4   11     -4.18      0.00
    3    5   11      0.35      0.00
    4    6   11     -1.30      0.00
    5    7   11     -0.89      0.00
    6    8   11     -0.33      0.00
    7    9   11     -0.96      0.00
    8   10   11      0.82      0.00
    9   11   11      1.73      0.00
    1    1   11      1.40      0.00
    2    2   11     -0.68      0.00
    3    3   11     -5.10      0.00
    4    4   11     -2.71      0.00
    5    5   11     -1.89      0.00
    6    6   11      0.72      0.00
    7    7   11      0.30      0.00
    8    8   11      0.05      0.00
    9    9   11      0.18      0.00
   10   10   11      0.56      0.00
    3    1   11      0.88      0.00
    4    2   11      2.07      0.00
    5    3   11      1.60      0.00
    6    4   11      0.65      0.00
    7    5   11      0.70      0.00
    8    6   11      0.03      0.00
    9    7   11      0.41      0.00
   10    8   11      0.51      0.00
   12   10   11      1.39      0.00
    5    1   11     -2.67      0.00
    6    2   11     -3.20      0.00
    7    3   11     -1.05      0.00
    8    4   11     -1.24      0.00
    9    5   11     -0.86      0.00
   10    6   11     -0.06      0.00
   11    7   11      0.06      0.00
   13    9   11      0.39      0.00
   14   10   11      0.10      0.00
    7    1   11      1.15      0.00
    8    2   11      3.31      0.00
    9    3   11      1.16      0.00
   10    4   11      1.95      0.00
   11    5   11      0.09      0.00
   13    7   11      0.09      0.00
   14    8   11     -0.51      0.00
   15    9   11     -0.66      0.00
    9    1   11     -0.48      0.00
   10    2   11     -2.28      0.00
   11    3   11      0.59      0.00
   12    4   11      0.19      0.00
   13    5   11     -1.44      0.00
   14    6   11     -1.08      0.00
   15    7   11     -0.51      0.00
   16    8   11      0.72      0.00
   17    9   11     -0.08      0.00
   11    1   11     -1.58      0.00
   12    2   11      0.40      0.00
   13    3   11      0.70      0.00
   14    4   11      1.10      0.00
   15    5   11     -0.39      0.00
   16    6   11     -1.79      0.00
   17    7   11     -0.42      0.00
   18    8   11     -0.23      0.00
   13    1   11      0.12      0.00
   14    2   11      0.25      0.00
   15    3   11      0.49      0.00
   16    4   11      0.84      0.00
   17    5   11     -0.57      0.00
   18    6   11     -0.23      0.00
   19    7   11      0.74      0.00
   20    8   11      1.25      0.00
   15    1   11     -1.09      0.00
   16    2   11     -0.86      0.00
   17    3   11      0.09      0.00
   18    4   11      0.19      0.00
   19    5   11     -0.55      0.00
   20    6   11     -1.07      0.00
   21    7   11     -0.79      0.00
   17    1   11     -0.54      0.00
   18    2   11     -0.15      0.00
   19    3   11     -0.84      0.00
   20    4   11     -0.13      0.00
   21    5   11     -0.27      0.00
   22    6   11     -0.10      0.00
   12    6   11     -1.17      0.00
   19    1   11     -0.36      0.00
   20    2   11     -0.11      0.00
   21    3   11      0.06      0.00
   22    4   11     -0.53      0.00
   23    5   11     -0.89      0.00
   24    6   11     -0.99      0.00
   11    9   11      0.49      0.00
   12    8   11      0.89      0.00
   21    1   11      0.31      0.00
   22    2   11      0.25      0.00
   23    3   11     -0.74      0.00
   24    4   11     -0.41      0.00
   25    5   11     -0.33      0.00
   23    1   11      0.75      0.00
   24    2   11      0.64      0.00
   25    3   11      0.07      0.00
   26    4   11     -0.73      0.00
   25    1   11      0.86      0.00
   26    2   11      0.57      0.00
   27    3   11      0.33      0.00
   27    1   11      0.09      0.00
   28    2   11      0.31      0.00
  -28    2   12     -0.04      0.00
  -27    3   12     -0.87      0.00
  -26    4   12      0.34      0.00
  -25    5   12      0.06      0.00
  -24    6   12      0.36      0.00
  -28    0   12      2.20      0.00
  -27    1   12      1.68      0.00
  -26    2   12     -0.24      0.00
  -25    3   12      0.57      0.00
  -24    4   12     -0.51      0.00
  -23    5   12     -0.88      0.00
  -22    6   12     -1.08      0.00
  -21    7   12     -1.38      0.00
  -20    8   12     -0.89      0.00
  -26    0   12      1.87      0.00
  -25    1   12      0.35      0.00
  -24    2   12     -0.03      0.00
  -23    3   12     -0.65      0.00
  -22    4   12      0.11      0.00
  -21    5   12     -0.66      0.00
  -20    6   12      0.50      0.00
  -19    7   12      0.61      0.00
  -18    8   12     -0.57      0.00
  -17    9   12     -0.23      0.00
  -24    0   12      0.90      0.00
  -23    1   12      0.92      0.00
  -22    2   12      0.60      0.00
  -21    3   12      1.92      0.00
  -20    4   12     -1.75      0.00
  -19    5   12     -1.39      0.00
  -18    6   12     -0.91      0.00
  -17    7   12     -1.35      0.00
  -16    8   12     -0.75      0.00
  -15    9   12     -1.42      0.00
  -14   10   12     -0.01      0.00
  -22    0   12     -0.63      0.00
  -21    1   12     -1.18      0.00
  -20    2   12      0.59      0.00
  -19    3   12     -0.95      0.00
  -18    4   12     -0.40      0.00
  -17    5   12     -0.59      0.00
  -16    6   12      1.18      0.00
  -15    7   12      1.26      0.00
  -14    8   12     -1.27      0.00
  -13    9   12     -0.28      0.00
  -12   10   12     -0.69      0.00
  -20    0   12     -0.27      0.00
  -19    1   12      0.81      0.00
  -18    2   12      1.98      0.00
  -17    3   12      2.73      0.00
  -16    4   12     -2.25      0.00
  -15    5   12     -1.27      0.00
  -14    6   12     -0.99      0.00
  -13    7   12     -1.52      0.00
  -12    8   12     -0.78      0.00
  -11    9   12     -1.54      0.00
  -10   10   12      0.27      0.00
  -18    0   12     -3.28      0.00
  -17    1   12     -2.32      0.00
  -16    2   12      0.61      0.00
  -15    3   12     -0.69      0.00
  -14    4   12      0.58      0.00
  -13    5   12      0.40      0.00
  -12    6   12      2.29      0.00
  -11    7   12      1.22      0.00
  -10    8   12     -1.38      0.00
   -9    9   12     -0.03      0.00
   -8   10   12     -0.62      0.00
   -7   11   12      0.24      0.00
  -16    0   12     -0.38      0.00
  -15    1   12      0.77      0.00
  -14    2   12      2.92      0.00
  -13    3   12      2.34      0.00
  -12    4   12     -2.33      0.00
  -11    5   12      0.20      0.00
  -10    6   12     -0.79      0.00
   -9    7   12      0.29      0.00
   -8    8   12      0.12      0.00
   -7    9   12     -0.32      0.00
   -6   10   12      1.70      0.00
   -5   11   12      0.38      0.00
  -14    0   12     -4.35      0.00
  -13    1   12     -1.11      0.00
  -12    2   12      0.32      0.00
  -11    3   12      0.65      0.00
  -10    4   12      3.31      0.00
   -9    5   12      1.37      0.00
   -8    6   12      4.63      0.00
   -7    7   12      0.81      0.00
   -6    8   12     -0.74      0.00
   -5    9   12      0.97      0.00
   -4   10   12     -0.27      0.00
   -3   11   12      1.48      0.00
  -12    0   12      3.21      0.00
  -11    1   12      0.46      0.00
  -10    2   12      2.92      0.00
   -9    3   12      0.18      0.00
   -8    4   12     -4.09      0.00
   -7    5   12      1.61      0.00
   -6    6   12     -1.67      0.00
   -5    7   12      1.05      0.00
   -4    8   12      0.80      0.00
   -3    9   12     -0.16      0.00
   -2   10   12      1.49      0.00
   -1   11   12      0.15      0.00
  -10    0   12     -7.35      0.00
   -9    1   12     -1.20      0.00
   -8    2   12     -4.59      0.00
   -7    3   12     -1.68      0.00
   -6    4   12      3.57      0.00
   -5    5   12     -0.72      0.00
   -4    6   12      4.29      0.00
   -3    7   12     -0.04      0.00
   -2    8   12     -1.50      0.00
   -1    9   12      0.06      0.00
    0   10   12     -1.58      0.00
    1   11   12      0.44      0.00
   -8    0   12      9.19      0.00
   -7    1   12     -0.66      0.00
   -6    2   12      2.77      0.00
   -5    3   12      0.09      0.00
   -4    4   12     -5.73      0.00
   -3    5   12      1.43      0.00
   -2    6   12     -2.22      0.00
   -1    7   12     -0.51      0.00
    0    8   12     -0.54      0.00
    1    9   12     -2.00      0.00
    2   10   12     -1.37      0.00
    3   11   12     -1.36      0.00
   -6    0   12    -11.08      0.00
   -5    1   12     -1.24      0.00
   -4    2   12     -5.89      0.00
   -3    3   12     -3.95      0.00
   -2    4   12      2.36      0.00
   -1    5   12     -2.53      0.00
    0    6   12      1.59      0.00
    1    7   12     -0.91      0.00
    2    8   12     -2.04      0.00
    3    9   12     -0.87      0.00
    4   10   12     -1.92      0.00
    5   11   12      0.17      0.00
   -4    0   12     13.67      0.00
   -3    1   12      1.59      0.00
   -2    2   12      0.95      0.00
   -1    3   12      1.11      0.00
    0    4   12     -4.37      0.00
    1    5   12      0.99      0.00
    2    6   12     -0.59      0.00
    3    7   12     -0.09      0.00
    4    8   12     -0.20      0.00
    5    9   12     -1.45      0.00
    6   10   12     -1.40      0.00
    7   11   12      0.19      0.00
   -2    0   12     -5.25      0.00
   -1    1   12     -0.49      0.00
    0    2   12     -0.81      0.00
    1    3   12     -0.69      0.00
    2    4   12      3.10      0.00
    3    5   12     -0.41      0.00
    4    6   12      0.70      0.00
    5    7   12     -0.27      0.00
    6    8   12     -0.33      0.00
    7    9   12      0.67      0.00
    8   10   12      0.10      0.00
    0    0   12      5.04      0.00
    1    1   12     -0.42      0.00
    2    2   12     -2.50      0.00
    3    3   12      0.31      0.00
    4    4   12     -0.55      0.00
    5    5   12      0.56      0.00
    6    6   12     -0.28      0.00
    7    7   12      0.30      0.00
    8    8   12      0.60      0.00
    9    9   12      0.01      0.00
   10   10   12     -0.70      0.00
    2    0   12      0.61      0.00
    3    1   12      0.09      0.00
    4    2   12      1.96      0.00
    5    3   12      3.20      0.00
    6    4   12      2.35      0.00
    7    5   12      0.31      0.00
    8    6   12     -0.15      0.00
    9    7   12     -0.24      0.00
   10    8   12      0.49      0.00
   11    9   12      0.22      0.00
   12   10   12     -1.20      0.00
    4    0   12     -3.25      0.00
    5    1   12     -3.63      0.00
    6    2   12     -2.57      0.00
    7    3   12     -2.02      0.00
    8    4   12      0.28      0.00
    9    5   12     -0.30      0.00
   10    6   12     -1.08      0.00
   11    7   12      0.26      0.00
   13    9   12      0.12      0.00
    6    0   12     -0.38      0.00
    7    1   12     -0.05      0.00
    8    2   12     -0.71      0.00
    9    3   12      2.09      0.00
   10    4   12      1.32      0.00
   11    5   12      0.74      0.00
   13    7   12     -0.38      0.00
   14    8   12      0.77      0.00
   15    9   12      0.65      0.00
    8    0   12     -1.68      0.00
    9    1   12     -2.48      0.00
   10    2   12     -0.20      0.00
   11    3   12     -0.79      0.00
   12    4   12      0.43      0.00
   13    5   12      0.50      0.00
   14    6   12     -0.39      0.00
   15    7   12      1.19      0.00
   16    8   12      1.67      0.00
   17    9   12      1.93      0.00
   10    0   12     -0.64      0.00
   11    1   12      0.75      0.00
   12    2   12     -0.79      0.00
   13    3   12     -0.02      0.00
   14    4   12      0.68      0.00
   15    5   12      0.73      0.00
   16    6   12      0.48      0.00
   17    7   12     -0.07      0.00
   18    8   12      0.85      0.00
   12    0   12      2.91      0.00
   13    1   12      1.15      0.00
   14    2   12      0.25      0.00
   15    3   12      0.20      0.00
   16    4   12      0.24      0.00
   17    5   12      1.02      0.00
   18    6   12      0.74      0.00
   19    7   12      0.95      0.00
   14    0   12      1.64      0.00
   15    1   12      0.30      0.00
   16    2   12     -0.23      0.00
   17    3   12     -0.09      0.00
   18    4   12      0.34      0.00
   19    5   12     -0.10      0.00
   20    6   12     -0.67      0.00
   21    7   12     -0.95      0.00
   16    0   12      1.80      0.00
   17    1   12      0.43      0.00
   18    2   12     -0.12      0.00
   19    3   12      0.28      0.00
   20    4   12     -0.53      0.00
   21    5   12     -0.27      0.00
   22    6   12      0.08      0.00
   12    6   12      0.24      0.00
   18    0   12      0.40      0.00
   19    1   12     -0.29      0.00
   20    2   12      0.53      0.00
   21    3   12      0.46      0.00
   22    4   12     -0.10      0.00
   23    5   12     -0.89      0.00
   12    8   12      0.41      0.00
   20    0   12      0.14      0.00
   21    1   12     -0.23      0.00
   22    2   12      0.32      0.00
   23    3   12      0.87      0.00
   24    4   12      0.17      0.00
   25    5   12      0.21      0.00
   22    0   12     -0.32      0.00
   23    1   12      0.10      0.00
   24    2   12      1.22      0.00
   25    3   12      1.27      0.00
   26    4   12      0.56      0.00
   24    0   12     -0.06      0.00
   25    1   12      0.18      0.00
   26    2   12      1.37      0.00
   27    3   12      1.54      0.00
   26    0   12     -0.72      0.00
   27    1   12     -0.01      0.00
   28    0   12      0.01      0.00
  -27    3   13     -0.39      0.00
  -26    4   13      0.14      0.00
  -25    5   13      1.01      0.00
  -27    1   13      1.09      0.00
  -26    2   13      1.16      0.00
  -25    3   13     -0.01      0.00
  -24    4   13      0.76      0.00
  -23    5   13     -0.79      0.00
  -22    6   13     -0.78      0.00
  -21    7   13     -0.06      0.00
  -25    1   13      0.49      0.00
  -24    2   13     -0.55      0.00
  -23    3   13      0.45      0.00
  -22    4   13      0.03      0.00
  -21    5   13      0.29      0.00
  -20    6   13      0.45      0.00
  -19    7   13      0.77      0.00
  -18    8   13      0.66      0.00
  -23    1   13      0.19      0.00
  -22    2   13      0.81      0.00
  -21    3   13      0.32      0.00
  -20    4   13      1.21      0.00
  -19    5   13     -1.71      0.00
  -18    6   13     -1.16      0.00
  -17    7   13      0.11      0.00
  -16    8   13     -0.46      0.00
  -15    9   13      0.15      0.00
  -21    1   13     -1.69      0.00
  -20    2   13     -2.65      0.00
  -19    3   13      1.07      0.00
  -18    4   13      0.17      0.00
  -17    5   13      0.72      0.00
  -16    6   13      1.23      0.00
  -15    7   13      1.63      0.00
  -14    8   13      2.39      0.00
  -13    9   13      0.18      0.00
  -12   10   13      0.88      0.00
  -19    1   13     -0.82      0.00
  -18    2   13      0.86      0.00
  -17    3   13      1.31      0.00
  -16    4   13      1.60      0.00
  -15    5   13     -1.85      0.00
  -14    6   13     -0.46      0.00
  -13    7   13      1.21      0.00
  -12    8   13      0.44      0.00
  -11    9   13      0.99      0.00
  -10   10   13      0.18      0.00
  -17    1   13     -3.64      0.00
  -16    2   13     -2.93      0.00
  -15    3   13      1.56      0.00
  -14    4   13      0.11      0.00
  -13    5   13      1.65      0.00
  -12    6   13      1.46      0.00
  -11    7   13      1.92      0.00
  -10    8   13      1.20      0.00
   -9    9   13     -1.31      0.00
   -8   10   13      0.04      0.00
  -15    1   13      0.14      0.00
  -14    2   13      1.10      0.00
  -13    3   13      0.92      0.00
  -12    4   13      0.17      0.00
  -11    5   13     -3.47      0.00
  -10    6   13     -0.06      0.00
   -9    7   13     -0.34      0.00
   -8    8   13     -0.56      0.00
   -7    9   13     -0.11      0.00
   -6   10   13     -1.31      0.00
   -5   11   13     -0.11      0.00
  -13    1   13     -3.90      0.00
  -12    2   13     -0.53      0.00
  -11    3   13      1.97      0.00
  -10    4   13     -0.93      0.00
   -9    5   13      1.94      0.00
   -8    6   13     -1.15      0.00
   -7    7   13      0.86      0.00
   -6    8   13     -0.57      0.00
   -5    9   13     -2.69      0.00
   -4   10   13     -0.61      0.00
   -3   11   13     -1.02      0.00
  -11    1   13      3.90      0.00
  -10    2   13      1.17      0.00
   -9    3   13     -0.82      0.00
   -8    4   13     -1.96      0.00
   -7    5   13     -7.07      0.00
   -6    6   13     -0.17      0.00
   -5    7   13     -0.67      0.00
   -4    8   13     -0.55      0.00
   -3    9   13      0.40      0.00
   -2   10   13     -1.49      0.00
   -1   11   13     -0.45      0.00
   -9    1   13     -5.27      0.00
   -8    2   13      0.14      0.00
   -7    3   13      0.06      0.00
   -6    4   13     -4.26      0.00
   -5    5   13      1.63      0.00
   -4    6   13     -1.14      0.00
   -3    7   13      1.69      0.00
   -2    8   13      0.71      0.00
   -1    9   13     -1.31      0.00
    0   10   13      0.27      0.00
    1   11   13     -0.54      0.00
   -7    1   13      8.36      0.00
   -6    2   13      1.07      0.00
   -5    3   13     -2.32      0.00
   -4    4   13     -0.28      0.00
   -3    5   13     -4.99      0.00
   -2    6   13      1.78      0.00
   -1    7   13      1.46      0.00
    0    8   13      0.47      0.00
    1    9   13      1.50      0.00
    2   10   13     -0.58      0.00
    3   11   13     -0.62      0.00
   -5    1   13     -6.88      0.00
   -4    2   13     -1.72      0.00
   -3    3   13      1.26      0.00
   -2    4   13     -2.11      0.00
   -1    5   13      3.09      0.00
    0    6   13      0.59      0.00
    1    7   13      1.66      0.00
    2    8   13      1.43      0.00
    3    9   13      0.54      0.00
    4   10   13      0.94      0.00
   -3    1   13      6.69      0.00
   -2    2   13      2.11      0.00
   -1    3   13     -0.79      0.00
    0    4   13      2.90      0.00
    1    5   13     -1.04      0.00
    2    6   13      1.49      0.00
    3    7   13      1.26      0.00
    4    8   13      0.42      0.00
    5    9   13      0.88      0.00
    6   10   13     -1.06      0.00
   -1    1   13     -1.65      0.00
    0    2   13      0.30      0.00
    1    3   13      4.16      0.00
    2    4   13      1.11      0.00
    3    5   13      1.55      0.00
    4    6   13     -0.51      0.00
    5    7   13      0.17      0.00
    6    8   13      0.39      0.00
    7    9   13      0.09      0.00
    8   10   13     -0.72      0.00
    1    1   13      0.36      0.00
    2    2   13     -0.13      0.00
    3    3   13     -1.16      0.00
    4    4   13      0.53      0.00
    5    5   13     -0.57      0.00
    6    6   13     -0.17      0.00
    7    7   13     -0.40      0.00
    8    8   13     -0.72      0.00
    9    9   13     -0.81      0.00
   10   10   13     -1.93      0.00
    3    1   13      2.02      0.00
    4    2   13      1.61      0.00
    5    3   13      1.62      0.00
    6    4   13      1.42      0.00
    7    5   13      0.58      0.00
    8    6   13     -0.59      0.00
    9    7   13     -0.36      0.00
   10    8   13     -0.91      0.00
   11    9   13     -0.74      0.00
    5    1   13     -2.34      0.00
    6    2   13     -3.36      0.00
    7    3   13     -1.07      0.00
    8    4   13     -0.87      0.00
    9    5   13     -0.12      0.00
   10    6   13     -0.03      0.00
   11    7   13     -0.78      0.00
   13    9   13      0.08      0.00
    7    1   13     -0.03      0.00
    8    2   13      1.02      0.00
    9    3   13     -0.65      0.00
   10    4   13      0.79      0.00
   11    5   13      1.29      0.00
   12    6   13      0.65      0.00
   13    7   13      0.66      0.00
   14    8   13     -0.48      0.00
   15    9   13     -0.14      0.00
    9    1   13      0.32      0.00
   10    2   13     -1.91      0.00
   11    3   13     -0.58      0.00
   13    5   13      0.44      0.00
   14    6   13      1.39      0.00
   15    7   13      0.48      0.00
   16    8   13      0.17      0.00
   11    1   13     -0.84      0.00
   12    2   13     -0.87      0.00
   13    3   13     -1.00      0.00
   14    4   13     -0.07      0.00
   15    5   13      0.79      0.00
   16    6   13      0.21      0.00
   17    7   13     -0.36      0.00
   18    8   13     -1.69      0.00
   13    1   13      1.10      0.00
   14    2   13     -0.19      0.00
   15    3   13     -0.30      0.00
   16    4   13     -0.15      0.00
   17    5   13     -0.25      0.00
   18    6   13      0.46      0.00
   19    7   13      0.05      0.00
   15    1   13      0.49      0.00
   16    2   13     -0.49      0.00
   17    3   13      0.07      0.00
   18    4   13     -0.49      0.00
   19    5   13     -0.69      0.00
   20    6   13     -0.57      0.00
   21    7   13     -0.20      0.00
   12    4   13     -0.41      0.00
   17    1   13      1.08      0.00
   18    2   13      0.10      0.00
   19    3   13     -0.48      0.00
   20    4   13     -0.19      0.00
   21    5   13     -0.06      0.00
   22    6   13      0.99      0.00
   19    1   13      0.63      0.00
   20    2   13     -0.37      0.00
   21    3   13      0.36      0.00
   22    4   13      0.24      0.00
   23    5   13      0.26      0.00
   12    8   13     -0.31      0.00
   21    1   13     -0.02      0.00
   22    2   13     -0.60      0.00
   23    3   13     -0.05      0.00
   24    4   13      0.84      0.00
   23    1   13     -0.32      0.00
   24    2   13     -0.50      0.00
   25    3   13      0.14      0.00
   25    1   13     -0.14      0.00
   26    2   13     -0.39      0.00
   27    1   13     -0.77      0.00
  -27    1   14     -0.60      0.00
  -26    2   14      0.55      0.00
  -25    3   14      0.34      0.00
  -24    4   14     -0.36      0.00
  -23    5   14      0.66      0.00
  -22    6   14      0.11      0.00
  -21    7   14      0.24      0.00
  -26    0   14     -1.17      0.00
  -25    1   14     -0.46      0.00
  -24    2   14     -0.19      0.00
  -23    3   14     -1.46      0.00
  -22    4   14      0.85      0.00
  -21    5   14      1.21      0.00
  -20    6   14      1.25      0.00
  -19    7   14      1.24      0.00
  -18    8   14      0.78      0.00
  -24    0   14      0.63      0.00
  -23    1   14      0.90      0.00
  -22    2   14     -0.55      0.00
  -21    3   14     -0.02      0.00
  -20    4   14     -0.26      0.00
  -19    5   14      0.41      0.00
  -18    6   14     -0.95      0.00
  -17    7   14     -0.70      0.00
  -16    8   14      0.75      0.00
  -15    9   14      0.18      0.00
  -22    0   14      0.39      0.00
  -21    1   14     -0.65      0.00
  -20    2   14     -1.75      0.00
  -19    3   14     -2.65      0.00
  -18    4   14      1.31      0.00
  -17    5   14      0.45      0.00
  -16    6   14      0.69      0.00
  -15    7   14      1.42      0.00
  -14    8   14      0.65      0.00
  -13    9   14      1.19      0.00
  -20    0   14      2.12      0.00
  -19    1   14      1.52      0.00
  -18    2   14     -0.58      0.00
  -17    3   14      0.74      0.00
  -16    4   14     -0.40      0.00
  -15    5   14     -0.61      0.00
  -14    6   14     -1.85      0.00
  -13    7   14     -0.93      0.00
  -12    8   14      0.70      0.00
  -11    9   14     -0.26      0.00
  -10   10   14      0.44      0.00
  -18    0   14      0.25      0.00
  -17    1   14     -0.59      0.00
  -16    2   14     -2.28      0.00
  -15    3   14     -1.96      0.00
  -14    4   14      1.47      0.00
  -13    5   14     -0.85      0.00
  -12    6   14      0.45      0.00
  -11    7   14      0.06      0.00
  -10    8   14     -0.09      0.00
   -9    9   14      0.17      0.00
   -8   10   14     -1.30      0.00
  -16    0   14      3.98      0.00
  -15    1   14      1.48      0.00
  -14    2   14      0.07      0.00
  -13    3   14      0.50      0.00
  -12    4   14     -2.22      0.00
  -11    5   14     -1.74      0.00
  -10    6   14     -3.67      0.00
   -9    7   14     -0.31      0.00
   -8    8   14      0.48      0.00
   -7    9   14     -0.95      0.00
   -6   10   14     -0.16      0.00
  -14    0   14     -1.89      0.00
  -13    1   14     -0.99      0.00
  -12    2   14     -2.28      0.00
  -11    3   14     -0.01      0.00
  -10    4   14      2.64      0.00
   -9    5   14     -2.28      0.00
   -8    6   14      1.20      0.00
   -7    7   14     -0.65      0.00
   -6    8   14     -0.47      0.00
   -5    9   14     -0.01      0.00
   -4   10   14     -1.51      0.00
  -12    0   14      3.79      0.00
  -11    1   14     -0.19      0.00
  -10    2   14      1.95      0.00
   -9    3   14      1.58      0.00
   -8    4   14     -2.93      0.00
   -7    5   14     -0.34      0.00
   -6    6   14     -3.61      0.00
   -5    7   14      0.61      0.00
   -4    8   14      1.32      0.00
   -3    9   14     -0.19      0.00
   -2   10   14      1.35      0.00
  -10    0   14     -6.15      0.00
   -9    1   14     -0.56      0.00
   -8    2   14     -1.51      0.00
   -7    3   14      1.24      0.00
   -6    4   14      4.65      0.00
   -5    5   14     -1.98      0.00
   -4    6   14      1.66      0.00
   -3    7   14      0.36      0.00
   -2    8   14      0.39      0.00
   -1    9   14      1.87      0.00
    0   10   14      0.73      0.00
   -8    0   14      6.04      0.00
   -7    1   14      0.17      0.00
   -6    2   14      4.13      0.00
   -5    3   14      3.94      0.00
   -4    4   14     -1.71      0.00
   -3    5   14      1.15      0.00
   -2    6   14     -2.21      0.00
   -1    7   14      0.72      0.00
    0    8   14      2.06      0.00
    1    9   14      0.78      0.00
    2   10   14      2.09      0.00
   -6    0   14     -9.48      0.00
   -5    1   14     -1.54      0.00
   -4    2   14     -0.75      0.00
   -3    3   14      0.27      0.00
   -2    4   14      4.12      0.00
   -1    5   14     -1.59      0.00
    0    6   14      0.23      0.00
    1    7   14      0.36      0.00
    2    8   14      0.37      0.00
    3    9   14      1.67      0.00
    4   10   14      1.62      0.00
   -4    0   14      3.79      0.00
   -3    1   14     -0.42      0.00
   -2    2   14      1.15      0.00
   -1    3   14      2.18      0.00
    0    4   14     -1.96      0.00
    1    5   14      0.38      0.00
    2    6   14     -1.17      0.00
    3    7   14     -0.01      0.00
    4    8   14      0.17      0.00
    5    9   14     -0.68      0.00
    6   10   14      0.46      0.00
   -2    0   14     -6.43      0.00
   -1    1   14     -1.45      0.00
    0    2   14      1.19      0.00
    1    3   14     -0.51      0.00
    2    4   14      1.41      0.00
    3    5   14     -0.73      0.00
    4    6   14     -0.15      0.00
    5    7   14     -0.47      0.00
    6    8   14     -0.83      0.00
    7    9   14     -0.15      0.00
    8   10   14      1.14      0.00
    0    0   14     -0.72      0.00
    1    1   14     -0.24      0.00
    2    2   14     -1.97      0.00
    3    3   14     -1.67      0.00
    4    4   14     -1.61      0.00
    5    5   14      0.29      0.00
    6    6   14     -0.09      0.00
    7    7   14     -0.34      0.00
    8    8   14     -1.08      0.00
    9    9   14     -0.71      0.00
   10   10   14      1.34      0.00
    2    0   14      2.04      0.00
    3    1   14      2.25      0.00
    4    2   14      2.08      0.00
    5    3   14      0.57      0.00
    6    4   14     -0.12      0.00
    7    5   14      0.65      0.00
    8    6   14      1.01      0.00
    9    7   14     -0.04      0.00
   10    8   14     -0.25      0.00
   11    9   14      0.14      0.00
    4    0   14      0.20      0.00
    5    1   14      0.57      0.00
    6    2   14     -0.50      0.00
    7    3   14     -2.79      0.00
    8    4   14     -1.03      0.00
    9    5   14      0.10      0.00
   10    6   14      0.07      0.00
   11    7   14      0.20      0.00
   12    8   14     -0.64      0.00
   13    9   14     -0.60      0.00
    6    0   14      3.24      0.00
    7    1   14      3.11      0.00
    8    2   14     -0.01      0.00
    9    3   14     -0.22      0.00
   10    4   14     -0.56      0.00
   11    5   14      0.69      0.00
   12    6   14      1.05      0.00
   14    8   14     -1.06      0.00
    8    0   14      2.07      0.00
    9    1   14      0.60      0.00
   10    2   14      0.72      0.00
   11    3   14     -1.32      0.00
   13    5   14     -0.10      0.00
   14    6   14     -0.56      0.00
   15    7   14      0.09      0.00
   16    8   14     -0.80      0.00
   10    0   14     -0.30      0.00
   11    1   14      0.81      0.00
   12    2   14     -0.45      0.00
   13    3   14     -0.58      0.00
   14    4   14     -0.04      0.00
   15    5   14     -0.48      0.00
   16    6   14     -0.54      0.00
   17    7   14     -0.75      0.00
   12    0   14      0.27      0.00
   13    1   14      0.50      0.00
   14    2   14      0.72      0.00
   15    3   14     -0.18      0.00
   16    4   14     -0.28      0.00
   17    5   14     -0.34      0.00
   18    6   14     -0.44      0.00
   19    7   14      0.98      0.00
   14    0   14     -1.53      0.00
   15    1   14     -0.06      0.00
   16    2   14      0.35      0.00
   17    3   14     -0.47      0.00
   18    4   14      0.32      0.00
   19    5   14     -0.49      0.00
   20    6   14     -0.69      0.00
   12    4   14     -0.36      0.00
   16    0   14     -1.03      0.00
   17    1   14      0.26      0.00
   18    2   14     -0.08      0.00
   19    3   14     -0.27      0.00
   20    4   14      0.14      0.00
   21    5   14      0.15      0.00
   22    6   14     -0.41      0.00
   18    0   14     -1.32      0.00
   19    1   14     -0.37      0.00
   20    2   14      0.15      0.00
   21    3   14     -0.20      0.00
   22    4   14      0.45      0.00
   23    5   14     -0.58      0.00
   13    7   14     -0.41      0.00
   20    0   14     -1.44      0.00
   21    1   14     -0.48      0.00
   22    2   14     -0.41      0.00
   23    3   14     -0.23      0.00
   24    4   14     -0.24      0.00
   22    0   14     -1.04      0.00
   23    1   14     -0.16      0.00
   24    2   14     -0.12      0.00
   25    3   14     -0.78      0.00
   24    0   14      0.11      0.00
   25    1   14      0.47      0.00
   26    2   14      0.07      0.00
   26    0   14      0.28      0.00
  -26    2   15      0.19      0.00
  -25    3   15     -0.21      0.00
  -24    4   15     -0.43      0.00
  -23    5   15     -0.44      0.00
  -22    6   15     -0.02      0.00
  -25    1   15     -0.14      0.00
  -24    2   15     -0.24      0.00
  -23    3   15      0.10      0.00
  -22    4   15     -0.75      0.00
  -21    5   15      1.15      0.00
  -20    6   15      0.65      0.00
  -19    7   15      0.12      0.00
  -23    1   15      1.11      0.00
  -22    2   15      1.92      0.00
  -21    3   15     -0.37      0.00
  -20    4   15     -0.04      0.00
  -19    5   15     -0.84      0.00
  -18    6   15     -0.93      0.00
  -17    7   15     -1.11      0.00
  -16    8   15     -1.56      0.00
  -21    1   15      0.84      0.00
  -20    2   15     -0.28      0.00
  -19    3   15     -0.49      0.00
  -18    4   15     -1.42      0.00
  -17    5   15      1.01      0.00
  -16    6   15      0.16      0.00
  -15    7   15     -0.50      0.00
  -14    8   15     -0.23      0.00
  -13    9   15     -0.96      0.00
  -19    1   15      2.54      0.00
  -18    2   15      2.53      0.00
  -17    3   15     -0.73      0.00
  -16    4   15      0.20      0.00
  -15    5   15     -1.50      0.00
  -14    6   15     -1.41      0.00
  -13    7   15     -1.45      0.00
  -12    8   15     -1.20      0.00
  -11    9   15      0.41      0.00
  -17    1   15     -0.33      0.00
  -16    2   15     -1.22      0.00
  -15    3   15     -0.83      0.00
  -14    4   15     -0.56      0.00
  -13    5   15      1.87      0.00
  -12    6   15     -0.33      0.00
  -11    7   15      0.51      0.00
  -10    8   15      0.40      0.00
   -9    9   15     -0.06      0.00
   -8   10   15      0.94      0.00
  -15    1   15      3.04      0.00
  -14    2   15      1.09      0.00
  -13    3   15     -0.95      0.00
  -12    4   15      0.94      0.00
  -11    5   15     -1.94      0.00
  -10    6   15      0.71      0.00
   -9    7   15     -0.30      0.00
   -8    8   15      0.73      0.00
   -7    9   15      2.06      0.00
   -6   10   15      0.62      0.00
  -13    1   15     -2.29      0.00
  -12    2   15     -1.01      0.00
  -11    3   15      0.67      0.00
  -10    4   15      1.33      0.00
   -9    5   15      4.93      0.00
   -8    6   15      0.06      0.00
   -7    7   15      1.32      0.00
   -6    8   15      0.62      0.00
   -5    9   15     -0.14      0.00
   -4   10   15      1.52      0.00
  -11    1   15      3.53      0.00
  -10    2   15     -0.03      0.00
   -9    3   15     -0.32      0.00
   -8    4   15      3.36      0.00
   -7    5   15     -1.42      0.00
   -6    6   15      1.45      0.00
   -5    7   15     -0.88      0.00
   -4    8   15     -0.25      0.00
   -3    9   15      1.57      0.00
   -2   10   15     -0.08      0.00
   -9    1   15     -4.75      0.00
   -8    2   15     -0.99      0.00
   -7    3   15      1.95      0.00
   -6    4   15      0.92      0.00
   -5    5   15      4.39      0.00
   -4    6   15     -1.48      0.00
   -3    7   15     -0.98      0.00
   -2    8   15     -0.34      0.00
   -1    9   15     -1.42      0.00
    0   10   15      0.65      0.00
   -7    1   15      4.23      0.00
   -6    2   15      0.27      0.00
   -5    3   15     -1.18      0.00
   -4    4   15      2.23      0.00
   -3    5   15     -2.52      0.00
   -2    6   15     -0.59      0.00
   -1    7   15     -1.68      0.00
    0    8   15     -1.56      0.00
    1    9   15     -0.10      0.00
    2   10   15     -0.71      0.00
   -5    1   15     -5.37      0.00
   -4    2   15     -2.31      0.00
   -3    3   15      0.61      0.00
   -2    4   15     -1.70      0.00
   -1    5   15      1.56      0.00
    0    6   15     -1.45      0.00
    1    7   15     -1.35      0.00
    2    8   15     -0.26      0.00
    3    9   15     -0.85      0.00
    4   10   15      0.91      0.00
   -3    1   15      1.71      0.00
   -2    2   15     -0.36      0.00
   -1    3   15     -3.14      0.00
    0    4   15      0.24      0.00
    1    5   15     -1.06      0.00
    2    6   15      0.15      0.00
    3    7   15     -0.53      0.00
    4    8   15     -0.53      0.00
    5    9   15     -0.10      0.00
    6   10   15      0.49      0.00
   -1    1   15     -1.43      0.00
    0    2   15     -1.14      0.00
    1    3   15      1.00      0.00
    2    4   15     -0.55      0.00
    3    5   15      0.91      0.00
    4    6   15      0.01      0.00
    5    7   15      0.30      0.00
    6    8   15      1.03      0.00
    7    9   15      0.89      0.00
    1    1   15     -1.79      0.00
    2    2   15     -1.06      0.00
    3    3   15     -1.83      0.00
    4    4   15     -0.58      0.00
    5    5   15      0.00      0.00
    6    6   15      0.70      0.00
    7    7   15      0.44      0.00
    8    8   15      1.04      0.00
    9    9   15      0.60      0.00
    3    1   15      1.94      0.00
    4    2   15      2.08      0.00
    5    3   15      0.86      0.00
    6    4   15      0.34      0.00
    7    5   15      0.41      0.00
    8    6   15      0.77      0.00
    9    7   15      1.48      0.00
   10    8   15      1.30      0.00
   11    9   15      0.13      0.00
    5    1   15     -0.48      0.00
    6    2   15     -0.54      0.00
    7    3   15      0.15      0.00
    8    4   15     -1.05      0.00
    9    5   15     -0.59      0.00
   10    6   15     -0.34      0.00
   11    7   15     -0.50      0.00
   12    8   15      0.39      0.00
   13    9   15     -0.29      0.00
    7    1   15      0.84      0.00
    8    2   15      2.41      0.00
    9    3   15     -0.07      0.00
   10    4   15      0.02      0.00
   11    5   15     -0.34      0.00
   12    6   15     -1.00      0.00
   14    8   15     -0.15      0.00
    9    1   15      1.38      0.00
   10    2   15      0.94      0.00
   11    3   15      0.79      0.00
   14    6   15     -1.17      0.00
   15    7   15     -0.79      0.00
   16    8   15      1.31      0.00
   11    1   15     -0.32      0.00
   12    2   15      1.31      0.00
   13    3   15     -0.01      0.00
   14    4   15     -0.06      0.00
   15    5   15      0.42      0.00
   16    6   15     -0.70      0.00
   17    7   15      0.03      0.00
   13    1   15      0.59      0.00
   14    2   15      1.29      0.00
   15    3   15      0.32      0.00
   16    4   15      0.79      0.00
   17    5   15      1.11      0.00
   18    6   15      0.55      0.00
   19    7   15     -0.01      0.00
   15    1   15     -0.46      0.00
   16    2   15      0.50      0.00
   17    3   15      0.86      0.00
   18    4   15      1.25      0.00
   19    5   15      1.37      0.00
   20    6   15     -0.85      0.00
   12    4   15     -0.80      0.00
   17    1   15     -0.65      0.00
   18    2   15      0.78      0.00
   19    3   15      0.35      0.00
   20    4   15      0.93      0.00
   21    5   15      0.39      0.00
   13    5   15     -1.25      0.00
   19    1   15     -0.27      0.00
   20    2   15      0.48      0.00
   21    3   15      0.61      0.00
   22    4   15      0.11      0.00
   13    7   15     -0.42      0.00
   21    1   15     -0.44      0.00
   22    2   15      0.35      0.00
   23    3   15     -0.17      0.00
   23    1   15     -0.23      0.00
   24    2   15     -0.07      0.00
   25    1   15      0.14      0.00
  -25    1   16     -0.73      0.00
  -24    2   16      1.08      0.00
  -23    3   16      0.96      0.00
  -22    4   16      0.44      0.00
  -21    5   16     -0.87      0.00
  -20    6   16      0.13      0.00
  -24    0   16     -1.16      0.00
  -23    1   16      0.35      0.00
  -22    2   16      1.69      0.00
  -21    3   16      2.46      0.00
  -20    4   16     -0.68      0.00
  -19    5   16     -0.43      0.00
  -18    6   16     -0.88      0.00
  -17    7   16     -1.04      0.00
  -16    8   16     -0.47      0.00
  -22    0   16     -1.22      0.00
  -21    1   16     -0.56      0.00
  -20    2   16      1.00      0.00
  -19    3   16     -0.23      0.00
  -18    4   16      0.54      0.00
  -17    5   16      0.26      0.00
  -16    6   16      1.20      0.00
  -15    7   16      0.73      0.00
  -14    8   16     -0.27      0.00
  -20    0   16     -0.05      0.00
  -19    1   16      0.68      0.00
  -18    2   16      1.48      0.00
  -17    3   16      1.89      0.00
  -16    4   16     -0.62      0.00
  -15    5   16      0.73      0.00
  -14    6   16     -0.56      0.00
  -13    7   16     -0.12      0.00
  -12    8   16      0.09      0.00
  -11    9   16     -0.24      0.00
  -18    0   16     -2.63      0.00
  -17    1   16     -1.61      0.00
  -16    2   16     -0.81      0.00
  -15    3   16     -0.95      0.00
  -14    4   16      1.50      0.00
  -13    5   16      1.06      0.00
  -12    6   16      2.41      0.00
  -11    7   16      0.37      0.00
  -10    8   16     -0.04      0.00
   -9    9   16      0.73      0.00
  -16    0   16      1.16      0.00
  -15    1   16      0.60      0.00
  -14    2   16      1.59      0.00
  -13    3   16      0.67      0.00
  -12    4   16     -1.31      0.00
  -11    5   16      1.71      0.00
  -10    6   16     -1.47      0.00
   -9    7   16      0.63      0.00
   -8    8   16      0.49      0.00
   -7    9   16      0.19      0.00
  -14    0   16     -2.84      0.00
  -13    1   16     -0.09      0.00
  -12    2   16     -1.17      0.00
  -11    3   16     -0.98      0.00
  -10    4   16      2.77      0.00
   -9    5   16     -0.04      0.00
   -8    6   16      2.08      0.00
   -7    7   16     -0.78      0.00
   -6    8   16     -0.74      0.00
   -5    9   16      0.37      0.00
   -4   10   16     -0.92      0.00
  -12    0   16      4.43      0.00
  -11    1   16      1.11      0.00
  -10    2   16      1.12      0.00
   -9    3   16     -0.35      0.00
   -8    4   16     -2.91      0.00
   -7    5   16      1.33      0.00
   -6    6   16     -2.36      0.00
   -5    7   16     -0.05      0.00
   -4    8   16      0.21      0.00
   -3    9   16     -1.39      0.00
   -2   10   16      0.02      0.00
  -10    0   16     -3.06      0.00
   -9    1   16      0.16      0.00
   -8    2   16     -2.42      0.00
   -7    3   16     -2.33      0.00
   -6    4   16      2.29      0.00
   -5    5   16     -1.17      0.00
   -4    6   16      1.26      0.00
   -3    7   16     -0.56      0.00
   -2    8   16     -1.62      0.00
   -1    9   16     -0.50      0.00
    0   10   16     -1.69      0.00
   -8    0   16      5.88      0.00
   -7    1   16      0.68      0.00
   -6    2   16      0.03      0.00
   -5    3   16     -0.31      0.00
   -4    4   16     -2.93      0.00
   -3    5   16      1.24      0.00
   -2    6   16     -0.92      0.00
   -1    7   16     -0.44      0.00
    0    8   16     -0.10      0.00
    1    9   16     -1.48      0.00
    2   10   16     -0.54      0.00
   -6    0   16     -3.18      0.00
   -5    1   16      0.07      0.00
   -4    2   16     -1.61      0.00
   -3    3   16     -2.06      0.00
   -2    4   16      2.21      0.00
   -1    5   16     -0.26      0.00
    0    6   16      0.89      0.00
    1    7   16      0.21      0.00
    2    8   16     -0.21      0.00
    3    9   16      0.77      0.00
   -4    0   16      5.79      0.00
   -3    1   16      1.59      0.00
   -2    2   16     -1.27      0.00
   -1    3   16      0.08      0.00
    0    4   16     -1.30      0.00
    1    5   16      0.97      0.00
    2    6   16      0.24      0.00
    3    7   16      0.45      0.00
    4    8   16      0.83      0.00
    5    9   16      0.28      0.00
   -2    0   16      1.12      0.00
   -1    1   16      0.54      0.00
    0    2   16      0.43      0.00
    1    3   16     -0.30      0.00
    2    4   16      1.33      0.00
    3    5   16     -0.02      0.00
    4    6   16      0.59      0.00
    5    7   16      0.86      0.00
    6    8   16      1.33      0.00
    7    9   16      0.89      0.00
    0    0   16      0.52      0.00
    1    1   16     -0.97      0.00
    2    2   16     -3.02      0.00
    3    3   16     -0.97      0.00
    4    4   16     -0.07      0.00
    5    5   16      0.13      0.00
    6    6   16     -0.32      0.00
    7    7   16     -0.13      0.00
    8    8   16     -0.10      0.00
    9    9   16     -0.48      0.00
    2    0   16      1.23      0.00
    4    2   16      0.09      0.00
    5    3   16      1.33      0.00
    6    4   16      0.69      0.00
    7    5   16      0.23      0.00
    8    6   16     -0.01      0.00
    9    7   16     -0.16      0.00
   10    8   16      0.42      0.00
   11    9   16      0.29      0.00
    3    1   16     -0.44      0.00
    4    0   16     -2.26      0.00
    5    1   16     -2.19      0.00
    6    2   16     -0.76      0.00
    7    3   16     -0.17      0.00
    8    4   16      0.76      0.00
    9    5   16     -0.69      0.00
   10    6   16     -1.40      0.00
   11    7   16     -0.66      0.00
   12    8   16      0.30      0.00
    6    0   16     -0.52      0.00
    7    1   16     -0.32      0.00
    8    2   16     -0.66      0.00
    9    3   16      1.47      0.00
   10    4   16      0.13      0.00
   11    5   16      0.17      0.00
   12    6   16      0.29      0.00
   14    8   16      0.87      0.00
    8    0   16     -0.40      0.00
    9    1   16     -1.43      0.00
   10    2   16      0.67      0.00
   11    3   16      0.39      0.00
   12    4   16     -0.10      0.00
   14    6   16     -0.50      0.00
   15    7   16     -0.02      0.00
   10    0   16     -1.27      0.00
   11    1   16     -0.69      0.00
   13    3   16      0.38      0.00
   14    4   16     -0.05      0.00
   15    5   16      0.30      0.00
   16    6   16      0.48      0.00
   17    7   16     -1.10      0.00
   12    0   16      0.51      0.00
   13    1   16     -0.46      0.00
   14    2   16     -0.05      0.00
   15    3   16      0.37      0.00
   16    4   16     -0.44      0.00
   17    5   16      0.60      0.00
   18    6   16      0.37      0.00
   12    2   16     -0.60      0.00
   14    0   16      0.25      0.00
   15    1   16     -0.61      0.00
   16    2   16      0.05      0.00
   17    3   16      0.21      0.00
   18    4   16      0.07      0.00
   19    5   16      0.49      0.00
   16    0   16      0.57      0.00
   17    1   16      0.21      0.00
   18    2   16     -0.10      0.00
   19    3   16      0.24      0.00
   20    4   16     -0.58      0.00
   21    5   16      0.84      0.00
   13    5   16     -0.22      0.00
   18    0   16      1.60      0.00
   19    1   16      0.49      0.00
   20    2   16      0.48      0.00
   21    3   16     -0.28      0.00
   22    4   16     -0.07      0.00
   13    7   16     -0.24      0.00
   20    0   16      1.19      0.00
   21    1   16      0.39      0.00
   22    2   16     -0.48      0.00
   23    3   16     -0.04      0.00
   22    0   16      0.33      0.00
   23    1   16     -0.79      0.00
   24    2   16     -0.50      0.00
   24    0   16     -0.73      0.00
  -24    2   17     -1.45      0.00
  -23    3   17      0.39      0.00
  -22    4   17     -0.12      0.00
  -21    5   17      0.06      0.00
  -23    1   17     -1.58      0.00
  -22    2   17     -0.48      0.00
  -21    3   17     -0.04      0.00
  -20    4   17      0.77      0.00
  -19    5   17     -1.15      0.00
  -18    6   17     -0.31      0.00
  -17    7   17     -0.01      0.00
  -21    1   17     -1.81      0.00
  -20    2   17     -2.04      0.00
  -19    3   17      0.41      0.00
  -18    4   17     -0.48      0.00
  -17    5   17      0.67      0.00
  -16    6   17      0.81      0.00
  -15    7   17      0.93      0.00
  -14    8   17      0.69      0.00
  -19    1   17     -0.09      0.00
  -18    2   17      1.08      0.00
  -17    3   17      0.83      0.00
  -16    4   17      0.86      0.00
  -15    5   17     -1.14      0.00
  -14    6   17      0.17      0.00
  -13    7   17     -0.51      0.00
  -12    8   17     -0.40      0.00
  -17    1   17     -1.89      0.00
  -16    2   17     -1.05      0.00
  -15    3   17      0.51      0.00
  -14    4   17     -0.59      0.00
  -13    5   17      1.68      0.00
  -12    6   17     -0.41      0.00
  -11    7   17      0.14      0.00
  -10    8   17     -0.62      0.00
   -9    9   17     -1.51      0.00
  -15    1   17      2.09      0.00
  -14    2   17      1.30      0.00
  -13    3   17     -0.06      0.00
  -12    4   17     -0.05      0.00
  -11    5   17     -3.02      0.00
  -10    6   17     -0.32      0.00
   -9    7   17     -1.71      0.00
   -8    8   17     -0.50      0.00
   -7    9   17      0.06      0.00
  -13    1   17     -2.49      0.00
  -12    2   17     -0.71      0.00
  -11    3   17      0.13      0.00
  -10    4   17     -2.04      0.00
   -9    5   17      1.50      0.00
   -8    6   17     -2.10      0.00
   -7    7   17     -0.24      0.00
   -6    8   17     -0.10      0.00
   -5    9   17     -1.48      0.00
  -11    1   17      2.70      0.00
  -10    2   17      0.39      0.00
   -9    3   17     -1.90      0.00
   -8    4   17     -0.33      0.00
   -7    5   17     -3.27      0.00
   -6    6   17      0.49      0.00
   -5    7   17     -0.13      0.00
   -4    8   17      0.21      0.00
   -3    9   17      1.23      0.00
   -9    1   17     -2.78      0.00
   -8    2   17     -0.49      0.00
   -7    3   17      0.71      0.00
   -6    4   17     -1.40      0.00
   -5    5   17      2.78      0.00
   -4    6   17     -0.10      0.00
   -3    7   17      0.68      0.00
   -2    8   17      1.34      0.00
   -1    9   17     -0.64      0.00
   -7    1   17      3.75      0.00
   -6    2   17      1.38      0.00
   -5    3   17     -1.42      0.00
   -4    4   17      1.30      0.00
   -3    5   17     -0.90      0.00
   -2    6   17      0.94      0.00
   -1    7   17      0.84      0.00
    0    8   17      0.11      0.00
    1    9   17      0.49      0.00
   -5    1   17     -1.14      0.00
   -4    2   17      0.09      0.00
   -3    3   17      1.60      0.00
   -2    4   17     -0.43      0.00
   -1    5   17      1.62      0.00
    0    6   17      0.08      0.00
    1    7   17      0.41      0.00
    2    8   17      0.79      0.00
    3    9   17     -0.55      0.00
   -3    1   17      2.27      0.00
   -2    2   17      1.11      0.00
   -1    3   17     -1.89      0.00
    0    4   17      0.11      0.00
    1    5   17     -0.61      0.00
    2    6   17      0.12      0.00
    3    7   17      0.04      0.00
    4    8   17     -0.73      0.00
    5    9   17     -1.24      0.00
   -1    1   17      1.95      0.00
    0    2   17      0.94      0.00
    1    3   17      0.85      0.00
    2    4   17     -0.65      0.00
    3    5   17     -0.02      0.00
    4    6   17     -0.16      0.00
    5    7   17      0.20      0.00
    6    8   17     -0.29      0.00
    7    9   17     -0.71      0.00
    1    1   17      0.00      0.00
    2    2   17     -0.27      0.00
    4    4   17     -0.92      0.00
    5    5   17     -0.33      0.00
    6    6   17     -0.58      0.00
    7    7   17     -1.04      0.00
    8    8   17     -1.14      0.00
    3    1   17      2.46      0.00
    4    2   17      1.31      0.00
    5    3   17     -0.43      0.00
    6    4   17     -0.14      0.00
    7    5   17     -0.18      0.00
    8    6   17      0.36      0.00
    9    7   17      0.65      0.00
   10    8   17      0.25      0.00
    5    1   17      0.03      0.00
    6    2   17     -1.09      0.00
    7    3   17      0.08      0.00
    8    4   17     -0.75      0.00
    9    5   17     -0.01      0.00
   10    6   17      0.26      0.00
   11    7   17      0.07      0.00
   12    8   17      0.41      0.00
    3    3   17     -1.58      0.00
    7    1   17     -0.03      0.00
    8    2   17      0.45      0.00
    9    3   17     -0.61      0.00
   10    4   17      0.61      0.00
   11    5   17      1.19      0.00
   12    6   17      1.62      0.00
    9    1   17      0.57      0.00
   10    2   17     -0.91      0.00
   11    3   17      0.52      0.00
   12    4   17     -0.04      0.00
   14    6   17      0.64      0.00
   15    7   17     -0.28      0.00
   11    1   17     -0.86      0.00
   12    2   17     -0.86      0.00
   13    3   17     -0.19      0.00
   14    4   17     -0.31      0.00
   15    5   17     -0.33      0.00
   16    6   17     -0.39      0.00
   13    1   17     -0.25      0.00
   14    2   17     -0.82      0.00
   15    3   17     -0.50      0.00
   16    4   17     -1.01      0.00
   17    5   17     -1.55      0.00
   18    6   17      0.09      0.00
   15    1   17     -0.05      0.00
   16    2   17     -1.06      0.00
   17    3   17     -0.11      0.00
   18    4   17     -0.88      0.00
   19    5   17     -0.41      0.00
   17    1   17     -0.46      0.00
   18    2   17     -0.45      0.00
   19    3   17     -0.43      0.00
   20    4   17     -0.13      0.00
   13    5   17     -0.10      0.00
   19    1   17      0.31      0.00
   20    2   17     -0.50      0.00
   21    3   17      0.56      0.00
   13    7   17      1.34      0.00
   21    1   17     -0.12      0.00
   22    2   17      0.35      0.00
   23    1   17      0.05      0.00
  -23    1   18     -0.07      0.00
  -22    2   18     -1.71      0.00
  -21    3   18     -0.16      0.00
  -20    4   18     -0.11      0.00
  -19    5   18     -0.02      0.00
  -18    6   18     -0.88      0.00
  -22    0   18      0.52      0.00
  -21    1   18     -0.71      0.00
  -20    2   18     -1.02      0.00
  -19    3   18     -1.36      0.00
  -18    4   18      0.63      0.00
  -17    5   18     -0.63      0.00
  -16    6   18      0.16      0.00
  -15    7   18      0.47      0.00
  -20    0   18      1.14      0.00
  -19    1   18      1.09      0.00
  -18    2   18      0.69      0.00
  -17    3   18      1.27      0.00
  -16    4   18     -0.31      0.00
  -15    5   18     -0.59      0.00
  -14    6   18     -1.88      0.00
  -13    7   18     -0.22      0.00
  -12    8   18      0.29      0.00
  -18    0   18     -0.56      0.00
  -17    1   18     -0.31      0.00
  -16    2   18     -0.95      0.00
  -15    3   18     -0.64      0.00
  -14    4   18      1.26      0.00
  -13    5   18     -0.95      0.00
  -12    6   18      0.97      0.00
  -11    7   18     -0.20      0.00
  -10    8   18      0.18      0.00
  -16    0   18      2.23      0.00
  -15    1   18      0.68      0.00
  -14    2   18      1.22      0.00
  -13    3   18      1.35      0.00
  -12    4   18     -1.24      0.00
  -11    5   18      0.51      0.00
  -10    6   18     -1.37      0.00
   -9    7   18      1.02      0.00
   -8    8   18      0.95      0.00
  -14    0   18     -3.14      0.00
  -13    1   18     -1.20      0.00
  -12    2   18     -1.06      0.00
  -11    3   18     -0.19      0.00
  -10    4   18      2.38      0.00
   -9    5   18     -0.51      0.00
   -8    6   18      2.46      0.00
   -7    7   18      0.20      0.00
   -6    8   18     -0.14      0.00
   -5    9   18      0.93      0.00
  -12    0   18      1.62      0.00
  -11    1   18     -0.20      0.00
  -10    2   18      1.22      0.00
   -9    3   18      1.44      0.00
   -8    4   18     -1.91      0.00
   -7    5   18      1.75      0.00
   -6    6   18     -0.21      0.00
   -5    7   18      0.67      0.00
   -4    8   18      1.36      0.00
   -3    9   18      0.28      0.00
  -10    0   18     -3.84      0.00
   -9    1   18     -0.40      0.00
   -8    2   18      0.22      0.00
   -7    3   18     -0.06      0.00
   -6    4   18      2.47      0.00
   -5    5   18     -0.13      0.00
   -4    6   18      1.63      0.00
   -3    7   18      0.36      0.00
   -2    8   18     -0.38      0.00
   -1    9   18      1.17      0.00
   -8    0   18      2.75      0.00
   -7    1   18      0.63      0.00
   -6    2   18      1.31      0.00
   -5    3   18      1.21      0.00
   -4    4   18     -2.23      0.00
   -3    5   18      0.69      0.00
   -2    6   18     -0.11      0.00
   -1    7   18     -0.43      0.00
    0    8   18      0.34      0.00
    1    9   18     -0.55      0.00
   -6    0   18     -3.49      0.00
   -5    1   18     -0.69      0.00
   -4    2   18      1.11      0.00
   -3    3   18     -0.11      0.00
   -2    4   18      1.04      0.00
   -1    5   18     -0.39      0.00
    0    6   18      0.26      0.00
    1    7   18     -0.28      0.00
    2    8   18     -0.60      0.00
    3    9   18      0.02      0.00
   -4    0   18     -0.29      0.00
   -3    1   18     -0.51      0.00
   -2    2   18      0.23      0.00
   -1    3   18      0.70      0.00
    0    4   18     -1.47      0.00
    1    5   18     -0.03      0.00
    2    6   18     -0.48      0.00
    3    7   18     -1.28      0.00
    4    8   18     -0.83      0.00
    5    9   18     -0.27      0.00
   -2    0   18     -1.98      0.00
   -1    1   18      0.15      0.00
    0    2   18      3.09      0.00
    1    3   18      1.16      0.00
    2    4   18      0.09      0.00
    3    5   18     -0.51      0.00
    4    6   18     -0.30      0.00
    5    7   18     -0.03      0.00
    6    8   18      0.90      0.00
    0    0   18     -1.81      0.00
    1    1   18      0.12      0.00
    2    2   18      0.40      0.00
    4    4   18     -0.40      0.00
    5    5   18     -0.58      0.00
    6    6   18     -0.28      0.00
    7    7   18     -0.24      0.00
    8    8   18      0.44      0.00
    2    0   18      0.77      0.00
    3    1   18      0.87      0.00
    4    2   18      1.31      0.00
    5    3   18      0.81      0.00
    6    4   18     -0.85      0.00
    7    5   18      0.18      0.00
    8    6   18      1.02      0.00
    9    7   18      1.13      0.00
   10    8   18      0.95      0.00
    4    0   18     -1.68      0.00
    5    1   18     -1.00      0.00
    6    2   18      0.30      0.00
    7    3   18     -0.80      0.00
    8    4   18     -0.01      0.00
    9    5   18     -0.62      0.00
   10    6   18     -0.22      0.00
   11    7   18     -0.13      0.00
    3    3   18      0.09      0.00
    6    0   18     -0.82      0.00
    7    1   18      0.27      0.00
    8    2   18     -0.87      0.00
    9    3   18      0.10      0.00
   10    4   18     -0.26      0.00
   11    5   18      0.51      0.00
   12    6   18      1.22      0.00
    8    0   18      0.04      0.00
    9    1   18     -0.42      0.00
   10    2   18      0.21      0.00
   11    3   18     -0.48      0.00
   12    4   18      0.09      0.00
   14    6   18      0.06      0.00
   10    0   18     -0.68      0.00
   11    1   18      0.20      0.00
   12    2   18     -0.44      0.00
   13    3   18     -0.09      0.00
   14    4   18      0.59      0.00
   15    5   18      0.19      0.00
   16    6   18      0.91      0.00
   12    0   18      0.04      0.00
   13    1   18      0.46      0.00
   14    2   18     -0.06      0.00
   15    3   18     -0.05      0.00
   16    4   18     -0.29      0.00
   17    5   18     -0.19      0.00
   14    0   18      0.40      0.00
   15    1   18      0.31      0.00
   16    2   18      0.29      0.00
   17    3   18     -0.49      0.00
   18    4   18      0.22      0.00
   16    0   18     -0.81      0.00
   17    1   18      0.06      0.00
   18    2   18     -0.58      0.00
   19    3   18      0.07      0.00
   20    4   18     -0.20      0.00
   13    5   18     -0.04      0.00
   18    0   18     -0.51      0.00
   19    1   18     -0.51      0.00
   20    2   18      0.44      0.00
   21    3   18      0.07      0.00
   13    7   18      0.37      0.00
   20    0   18     -0.79      0.00
   21    1   18      0.62      0.00
   22    0   18      0.59      0.00
  -22    2   19      1.15      0.00
  -21    3   19      0.06      0.00
  -20    4   19      1.22      0.00
  -21    1   19      0.28      0.00
  -20    2   19     -0.82      0.00
  -19    3   19     -0.37      0.00
  -18    4   19     -0.24      0.00
  -17    5   19      1.09      0.00
  -16    6   19     -0.30      0.00
  -19    1   19      0.42      0.00
  -18    2   19      0.39      0.00
  -17    3   19     -0.46      0.00
  -16    4   19      0.73      0.00
  -15    5   19     -0.77      0.00
  -14    6   19     -0.44      0.00
  -13    7   19     -0.56      0.00
  -17    1   19     -2.13      0.00
  -16    2   19     -2.02      0.00
  -15    3   19     -0.77      0.00
  -14    4   19     -0.25      0.00
  -13    5   19      2.05      0.00
  -12    6   19     -0.07      0.00
  -11    7   19      1.02      0.00
  -15    1   19      1.09      0.00
  -14    2   19      0.43      0.00
  -13    3   19     -0.18      0.00
  -12    4   19      1.67      0.00
  -11    5   19     -0.64      0.00
  -10    6   19      1.58      0.00
   -9    7   19      0.17      0.00
   -8    8   19      0.48      0.00
  -13    1   19     -2.28      0.00
  -12    2   19     -0.87      0.00
  -11    3   19      1.08      0.00
  -10    4   19      0.35      0.00
   -9    5   19      3.20      0.00
   -8    6   19     -0.12      0.00
   -7    7   19      0.11      0.00
   -6    8   19      0.00      0.00
  -11    1   19      1.78      0.00
  -10    2   19      0.54      0.00
   -9    3   19     -0.80      0.00
   -8    4   19      1.50      0.00
   -7    5   19     -1.58      0.00
   -6    6   19      0.34      0.00
   -5    7   19     -0.33      0.00
   -4    8   19     -0.83      0.00
   -9    1   19     -2.42      0.00
   -8    2   19     -1.23      0.00
   -7    3   19      1.22      0.00
   -6    4   19     -0.64      0.00
   -5    5   19      1.07      0.00
   -4    6   19     -0.79      0.00
   -3    7   19     -0.82      0.00
   -2    8   19      0.20      0.00
   -7    1   19      0.76      0.00
   -6    2   19     -0.22      0.00
   -5    3   19     -1.43      0.00
   -4    4   19      0.22      0.00
   -3    5   19     -1.68      0.00
   -2    6   19     -0.45      0.00
   -1    7   19     -0.11      0.00
    0    8   19     -0.56      0.00
   -5    1   19     -1.91      0.00
   -4    2   19     -0.77      0.00
   -3    3   19      1.60      0.00
   -2    4   19     -0.11      0.00
   -1    5   19      0.47      0.00
    0    6   19      0.11      0.00
    1    7   19     -0.03      0.00
    2    8   19      0.72      0.00
   -3    1   19     -0.81      0.00
   -2    2   19     -0.62      0.00
   -1    3   19     -1.00      0.00
    0    4   19      0.53      0.00
    1    5   19      0.08      0.00
    2    6   19      0.00      0.00
    3    7   19     -0.32      0.00
    4    8   19     -0.31      0.00
   -1    1   19     -0.28      0.00
    0    2   19     -0.33      0.00
    1    3   19      1.07      0.00
    2    4   19      0.65      0.00
    3    5   19      0.22      0.00
    4    6   19      0.51      0.00
    5    7   19      0.33      0.00
    6    8   19      0.43      0.00
    1    1   19     -2.13      0.00
    2    2   19     -1.41      0.00
    4    4   19      0.46      0.00
    5    5   19      0.64      0.00
    6    6   19     -0.34      0.00
    7    7   19     -1.04      0.00
    8    8   19     -1.11      0.00
    3    1   19      0.12      0.00
    4    2   19      0.21      0.00
    5    3   19     -0.55      0.00
    6    4   19      0.64      0.00
    7    5   19      0.19      0.00
    8    6   19      0.56      0.00
    9    7   19     -0.06      0.00
    5    1   19     -0.33      0.00
    6    2   19     -1.17      0.00
    7    3   19     -0.05      0.00
    8    4   19     -0.46      0.00
    9    5   19     -0.40      0.00
   10    6   19     -1.11      0.00
   11    7   19     -1.43      0.00
    3    3   19     -0.15      0.00
    7    1   19     -0.23      0.00
    8    2   19      0.30      0.00
    9    3   19     -1.35      0.00
   10    4   19      0.08      0.00
   11    5   19      0.20      0.00
   12    6   19      0.07      0.00
    9    1   19      1.00      0.00
   10    2   19     -0.05      0.00
   11    3   19     -0.27      0.00
   12    4   19     -0.21      0.00
   14    6   19      0.13      0.00
   11    1   19      0.65      0.00
   12    2   19      0.77      0.00
   13    3   19      0.00      0.00
   14    4   19      0.27      0.00
   15    5   19      0.89      0.00
   13    1   19      0.49      0.00
   14    2   19      0.87      0.00
   15    3   19     -0.29      0.00
   16    4   19      0.20      0.00
   17    5   19     -0.33      0.00
   15    1   19      0.88      0.00
   16    2   19      0.21      0.00
   17    3   19      0.15      0.00
   18    4   19     -0.32      0.00
   17    1   19     -0.42      0.00
   18    2   19      0.42      0.00
   19    3   19     -0.62      0.00
   13    5   19     -0.46      0.00
   19    1   19      0.10      0.00
   20    2   19     -0.62      0.00
   21    1   19     -0.57      0.00
  -21    1   20     -0.18      0.00
  -20    2   20     -0.74      0.00
  -19    3   20     -1.38      0.00
  -18    4   20      0.06      0.00
  -17    5   20      0.66      0.00
  -20    0   20      0.85      0.00
  -19    1   20      0.37      0.00
  -18    2   20     -0.19      0.00
  -17    3   20      0.20      0.00
  -16    4   20     -0.72      0.00
  -15    5   20      0.69      0.00
  -14    6   20     -0.33      0.00
  -18    0   20     -0.51      0.00
  -17    1   20     -0.73      0.00
  -16    2   20     -1.72      0.00
  -15    3   20     -1.78      0.00
  -14    4   20      0.13      0.00
  -13    5   20     -0.12      0.00
  -12    6   20      1.31      0.00
  -11    7   20     -0.82      0.00
  -16    0   20      2.52      0.00
  -15    1   20      0.97      0.00
  -14    2   20      0.46      0.00
  -13    3   20      0.03      0.00
  -12    4   20     -1.88      0.00
  -11    5   20      0.64      0.00
  -10    6   20     -1.42      0.00
   -9    7   20     -0.57      0.00
  -14    0   20     -0.56      0.00
  -13    1   20      0.10      0.00
  -12    2   20     -1.14      0.00
  -11    3   20     -1.73      0.00
  -10    4   20      0.98      0.00
   -9    5   20     -1.13      0.00
   -8    6   20      0.24      0.00
   -7    7   20     -1.10      0.00
  -12    0   20      3.31      0.00
  -11    1   20      0.79      0.00
  -10    2   20     -0.40      0.00
   -9    3   20     -0.21      0.00
   -8    4   20     -2.42      0.00
   -7    5   20      0.23      0.00
   -6    6   20     -0.97      0.00
   -5    7   20     -0.51      0.00
   -4    8   20      0.56      0.00
  -10    0   20     -1.54      0.00
   -9    1   20     -0.80      0.00
   -8    2   20     -1.14      0.00
   -7    3   20     -1.43      0.00
   -6    4   20      1.30      0.00
   -5    5   20     -0.29      0.00
   -4    6   20      0.39      0.00
   -3    7   20      0.37      0.00
   -2    8   20     -0.38      0.00
   -8    0   20      1.85      0.00
   -7    1   20      0.00      0.00
   -6    2   20     -0.99      0.00
   -5    3   20     -0.42      0.00
   -4    4   20     -1.59      0.00
   -3    5   20      0.34      0.00
   -2    6   20      0.16      0.00
   -1    7   20     -0.12      0.00
    0    8   20      0.74      0.00
   -6    0   20     -0.74      0.00
   -5    1   20      0.29      0.00
   -4    2   20      0.05      0.00
   -3    3   20     -0.64      0.00
   -2    4   20      0.94      0.00
   -1    5   20      0.40      0.00
    0    6   20      0.47      0.00
    1    7   20      1.11      0.00
    2    8   20      0.64      0.00
   -4    0   20      2.04      0.00
   -3    1   20      0.41      0.00
   -2    2   20     -1.62      0.00
   -1    3   20     -0.86      0.00
    0    4   20     -0.55      0.00
    1    5   20      0.43      0.00
    2    6   20      0.56      0.00
    3    7   20     -0.12      0.00
    4    8   20     -0.87      0.00
   -2    0   20      1.14      0.00
   -1    1   20      0.30      0.00
    0    2   20      0.33      0.00
    1    3   20     -0.21      0.00
    2    4   20     -0.20      0.00
    3    5   20      0.29      0.00
    4    6   20      0.21      0.00
    5    7   20      0.44      0.00
    0    0   20     -0.29      0.00
    1    1   20     -0.18      0.00
    2    2   20     -0.35      0.00
    4    4   20      0.27      0.00
    5    5   20     -0.31      0.00
    6    6   20     -0.54      0.00
    7    7   20     -1.24      0.00
    2    0   20      1.56      0.00
    3    1   20      1.53      0.00
    4    2   20      1.17      0.00
    5    3   20      0.80      0.00
    6    4   20     -0.75      0.00
    7    5   20      0.23      0.00
    8    6   20      0.11      0.00
    9    7   20      0.46      0.00
    4    0   20      0.88      0.00
    5    1   20      0.78      0.00
    6    2   20      1.96      0.00
    7    3   20      0.26      0.00
    8    4   20      0.22      0.00
    9    5   20     -0.74      0.00
   10    6   20     -1.09      0.00
    3    3   20     -0.30      0.00
    6    0   20      0.58      0.00
    7    1   20      1.33      0.00
    8    2   20      0.86      0.00
    9    3   20      0.97      0.00
   10    4   20     -0.22      0.00
   11    5   20     -0.11      0.00
   12    6   20      0.01      0.00
    8    0   20      0.44      0.00
    9    1   20     -0.02      0.00
   10    2   20      1.23      0.00
   11    3   20      0.27      0.00
   12    4   20     -0.62      0.00
   10    0   20     -0.50      0.00
   11    1   20     -0.23      0.00
   12    2   20      0.33      0.00
   13    3   20      0.09      0.00
   14    4   20      0.32      0.00
   15    5   20     -0.15      0.00
   12    0   20     -1.20      0.00
   13    1   20     -0.90      0.00
   14    2   20     -0.59      0.00
   15    3   20      0.46      0.00
   16    4   20      0.09      0.00
   14    0   20     -0.20      0.00
   15    1   20     -0.91      0.00
   16    2   20      0.06      0.00
   17    3   20      0.00      0.00
   16    0   20     -0.59      0.00
   17    1   20      0.01      0.00
   18    2   20     -0.76      0.00
   13    5   20     -0.70      0.00
   18    0   20      1.02      0.00
   19    1   20     -0.43      0.00
  -19    1   21      2.30      0.00
  -18    2   21      2.10      0.00
  -17    3   21      0.36      0.00
  -16    4   21      0.05      0.00
  -15    5   21     -0.71      0.00
  -17    1   21      0.75      0.00
  -16    2   21      0.12      0.00
  -15    3   21     -0.63      0.00
  -14    4   21     -1.46      0.00
  -13    5   21      0.59      0.00
  -12    6   21     -0.70      0.00
  -15    1   21      2.83      0.00
  -14    2   21      1.31      0.00
  -13    3   21     -1.13      0.00
  -12    4   21     -0.61      0.00
  -11    5   21     -2.24      0.00
  -10    6   21      0.03      0.00
  -13    1   21     -0.34      0.00
  -12    2   21     -0.63      0.00
  -11    3   21     -0.33      0.00
  -10    4   21     -2.16      0.00
   -9    5   21      0.45      0.00
   -8    6   21     -0.33      0.00
   -7    7   21      0.09      0.00
  -11    1   21      2.37      0.00
  -10    2   21      1.37      0.00
   -9    3   21     -1.57      0.00
   -8    4   21     -0.56      0.00
   -7    5   21     -1.42      0.00
   -6    6   21      1.04      0.00
   -5    7   21      1.24      0.00
   -9    1   21      0.26      0.00
   -8    2   21      0.42      0.00
   -7    3   21      0.70      0.00
   -6    4   21     -1.06      0.00
   -5    5   21      1.10      0.00
   -4    6   21      1.33      0.00
   -3    7   21      0.28      0.00
   -7    1   21      2.12      0.00
   -6    2   21      0.89      0.00
   -5    3   21     -1.69      0.00
   -4    4   21     -0.74      0.00
   -3    5   21     -0.51      0.00
   -2    6   21      0.37      0.00
   -1    7   21      0.24      0.00
   -5    1   21      0.61      0.00
   -4    2   21      0.55      0.00
   -3    3   21      0.66      0.00
   -2    4   21     -0.78      0.00
   -1    5   21     -0.37      0.00
    0    6   21      0.42      0.00
    1    7   21     -0.11      0.00
   -3    1   21      0.73      0.00
   -2    2   21      0.32      0.00
   -1    3   21     -0.88      0.00
    0    4   21     -0.93      0.00
    1    5   21     -0.60      0.00
    2    6   21     -0.47      0.00
    3    7   21     -0.31      0.00
   -1    1   21      1.33      0.00
    0    2   21      0.99      0.00
    1    3   21      0.33      0.00
    2    4   21     -0.87      0.00
    3    5   21     -1.14      0.00
    4    6   21      0.37      0.00
    5    7   21      0.73      0.00
    1    1   21     -0.18      0.00
    2    2   21     -0.15      0.00
    3    3   21      0.51      0.00
    4    4   21     -0.38      0.00
    5    5   21     -0.14      0.00
    6    6   21     -0.75      0.00
    4    2   21      0.58      0.00
    5    3   21      0.20      0.00
    6    4   21      0.32      0.00
    7    5   21     -0.43      0.00
    8    6   21      0.37      0.00
    3    1   21      0.12      0.00
    5    1   21     -0.37      0.00
    6    2   21     -0.51      0.00
    7    3   21      1.72      0.00
    8    4   21      0.24      0.00
    9    5   21     -0.66      0.00
   10    6   21     -1.08      0.00
    7    1   21     -1.13      0.00
    8    2   21      0.23      0.00
    9    3   21      0.72      0.00
   10    4   21      0.54      0.00
   11    5   21      0.15      0.00
    9    1   21     -0.87      0.00
   10    2   21     -0.87      0.00
   11    3   21      0.62      0.00
   12    4   21      0.42      0.00
   11    1   21     -0.76      0.00
   12    2   21     -0.68      0.00
   13    3   21      0.82      0.00
   14    4   21      0.51      0.00
   13    1   21     -1.13      0.00
   14    2   21     -0.23      0.00
   15    3   21      0.31      0.00
   15    1   21      0.40      0.00
   16    2   21     -0.42      0.00
   13    5   21     -0.72      0.00
   17    1   21     -0.19      0.00
  -17    1   22     -0.65      0.00
  -16    2   22      0.44      0.00
  -15    3   22     -0.15      0.00
  -14    4   22      0.24      0.00
  -16    0   22     -0.43      0.00
  -15    1   22      0.11      0.00
  -14    2   22      1.73      0.00
  -13    3   22      1.48      0.00
  -12    4   22     -1.13      0.00
  -11    5   22      0.55      0.00
  -14    0   22     -3.15      0.00
  -13    1   22     -0.96      0.00
  -12    2   22      0.77      0.00
  -11    3   22     -0.11      0.00
  -10    4   22      0.94      0.00
   -9    5   22     -0.47      0.00
   -8    6   22      0.88      0.00
  -12    0   22      0.13      0.00
  -11    1   22      0.74      0.00
  -10    2   22      1.61      0.00
   -9    3   22      1.44      0.00
   -8    4   22     -1.38      0.00
   -7    5   22     -0.01      0.00
   -6    6   22     -0.14      0.00
  -10    0   22     -1.53      0.00
   -9    1   22      0.33      0.00
   -8    2   22      1.63      0.00
   -7    3   22      0.55      0.00
   -6    4   22      1.04      0.00
   -5    5   22     -0.55      0.00
   -4    6   22     -0.57      0.00
   -8    0   22      0.80      0.00
   -7    1   22      0.35      0.00
   -6    2   22      0.63      0.00
   -5    3   22      0.67      0.00
   -4    4   22     -0.95      0.00
   -3    5   22     -1.04      0.00
   -2    6   22     -0.63      0.00
   -6    0   22     -1.89      0.00
   -5    1   22     -0.39      0.00
   -4    2   22      1.30      0.00
   -3    3   22      0.87      0.00
   -2    4   22      0.38      0.00
   -1    5   22     -0.78      0.00
    0    6   22     -0.81      0.00
   -4    0   22     -1.01      0.00
   -3    1   22     -0.45      0.00
   -2    2   22      0.21      0.00
   -1    3   22      0.41      0.00
    0    4   22     -0.05      0.00
    1    5   22     -0.74      0.00
    2    6   22     -0.18      0.00
   -2    0   22     -0.83      0.00
   -1    1   22      0.17      0.00
    0    2   22      0.86      0.00
    1    3   22      0.25      0.00
    2    4   22     -0.33      0.00
    3    5   22     -0.20      0.00
    4    6   22      0.04      0.00
    0    0   22     -1.34      0.00
    1    1   22     -0.88      0.00
    2    2   22     -0.46      0.00
    3    3   22     -0.21      0.00
    4    4   22      0.95      0.00
    5    5   22     -0.08      0.00
    6    6   22      0.07      0.00
    2    0   22     -1.29      0.00
    3    1   22     -0.77      0.00
    4    2   22     -1.08      0.00
    5    3   22     -0.17      0.00
    6    4   22     -0.15      0.00
    7    5   22      0.51      0.00
    4    0   22     -1.57      0.00
    5    1   22     -1.28      0.00
    6    2   22     -0.27      0.00
    7    3   22     -0.59      0.00
    8    4   22      0.48      0.00
    9    5   22      0.11      0.00
    6    0   22     -0.94      0.00
    7    1   22      0.35      0.00
    8    2   22     -0.56      0.00
    9    3   22     -0.21      0.00
   10    4   22      0.57      0.00
    8    0   22      0.28      0.00
   10    2   22      0.10      0.00
   11    3   22     -0.21      0.00
   12    4   22     -0.08      0.00
    9    1   22      0.44      0.00
   10    0   22      1.23      0.00
   11    1   22      1.47      0.00
   12    2   22      0.82      0.00
   13    3   22     -0.53      0.00
   12    0   22      0.69      0.00
   14    2   22      0.19      0.00
   13    1   22      1.50      0.00
   14    0   22      1.66      0.00
   15    1   22      0.90      0.00
   16    0   22     -0.17      0.00
  -15    1   23     -0.45      0.00
  -14    2   23      0.70      0.00
  -13    3   23      1.53      0.00
  -12    4   23      1.84      0.00
  -13    1   23     -2.27      0.00
  -12    2   23     -1.10      0.00
  -11    3   23      1.85      0.00
  -10    4   23      0.49      0.00
   -9    5   23      0.52      0.00
  -11    1   23     -0.74      0.00
  -10    2   23     -0.02      0.00
   -9    3   23      0.32      0.00
   -8    4   23      1.10      0.00
   -7    5   23     -1.12      0.00
   -9    1   23     -2.01      0.00
   -8    2   23     -0.80      0.00
   -7    3   23      1.86      0.00
   -6    4   23      0.59      0.00
   -5    5   23     -0.29      0.00
   -7    1   23     -0.64      0.00
   -6    2   23     -0.13      0.00
   -5    3   23      0.14      0.00
   -4    4   23      0.42      0.00
   -3    5   23     -0.23      0.00
   -2    6   23     -0.68      0.00
   -5    1   23     -0.97      0.00
   -4    2   23      0.18      0.00
   -3    3   23      1.37      0.00
   -2    4   23      0.95      0.00
   -1    5   23      0.47      0.00
    0    6   23      0.57      0.00
   -3    1   23     -0.88      0.00
   -2    2   23     -0.30      0.00
   -1    3   23      0.44      0.00
    0    4   23      1.28      0.00
    1    5   23      1.32      0.00
   -1    1   23     -0.57      0.00
    0    2   23      0.26      0.00
    1    3   23      0.66      0.00
    2    4   23      0.84      0.00
    3    5   23      0.13      0.00
    1    1   23     -0.83      0.00
    2    2   23      0.13      0.00
    3    3   23      1.04      0.00
    4    4   23      0.79      0.00
    5    5   23      0.81      0.00
    4    2   23      0.65      0.00
    5    3   23     -0.34      0.00
    6    4   23      0.21      0.00
    7    5   23      0.71      0.00
    3    1   23     -0.48      0.00
    6    2   23     -0.20      0.00
    7    3   23      0.15      0.00
    8    4   23      0.17      0.00
    5    1   23     -0.27      0.00
    8    2   23      0.59      0.00
    9    3   23     -0.34      0.00
   10    4   23     -0.29      0.00
    7    1   23     -0.47      0.00
   10    2   23      0.13      0.00
   11    3   23     -0.84      0.00
    9    1   23     -0.38      0.00
   12    2   23      0.22      0.00
   11    1   23      0.42      0.00
   13    1   23     -0.53      0.00
  -13    1   24     -0.40      0.00
  -12    2   24     -1.30      0.00
  -12    0   24      1.20      0.00
  -11    1   24     -0.08      0.00
  -10    2   24     -1.15      0.00
   -9    3   24      0.19      0.00
   -8    4   24     -0.15      0.00
  -10    0   24     -0.87      0.00
   -9    1   24     -0.68      0.00
   -8    2   24     -0.48      0.00
   -7    3   24     -0.08      0.00
   -6    4   24      0.95      0.00
   -8    0   24      0.76      0.00
   -7    1   24      0.13      0.00
   -6    2   24     -0.60      0.00
   -5    3   24     -0.18      0.00
   -4    4   24     -0.26      0.00
   -6    0   24      0.17      0.00
   -5    1   24      0.27      0.00
   -4    2   24     -0.09      0.00
   -3    3   24      0.02      0.00
   -2    4   24      0.22      0.00
   -4    0   24      0.63      0.00
   -3    1   24     -0.44      0.00
   -2    2   24     -0.96      0.00
   -1    3   24      0.00      0.00
    0    4   24      0.46      0.00
   -2    0   24      0.14      0.00
   -1    1   24     -0.29      0.00
    0    2   24     -0.50      0.00
    1    3   24     -0.22      0.00
    2    4   24     -0.58      0.00
    0    0   24      0.62      0.00
    2    2   24     -0.40      0.00
    3    3   24     -0.12      0.00
    4    4   24      0.24      0.00
    1    1   24      0.00      0.00
    2    0   24      1.77      0.00
    4    2   24     -1.04      0.00
    5    3   24     -0.59      0.00
    6    4   24     -0.67      0.00
    3    1   24      0.68      0.00
    4    0   24      1.75      0.00
    6    2   24     -1.12      0.00
    7    3   24     -0.71      0.00
    5    1   24     -0.45      0.00
    6    0   24      0.93      0.00
    9    3   24     -0.54      0.00
    7    1   24     -0.50      0.00
    8    0   24     -0.09      0.00
    8    2   24     -1.45      0.00
    9    1   24     -1.51      0.00
   10    0   24      0.21      0.00
   10    2   24     -1.56      0.00
   11    1   24     -1.17      0.00
   -9    1   25      0.27      0.00
   -8    2   25      0.08      0.00
   -7    1   25      0.21      0.00
   -6    2   25     -0.31      0.00
   -5    3   25     -0.65      0.00
   -5    1   25     -0.24      0.00
   -4    2   25     -0.21      0.00
   -3    3   25      0.05      0.00
   -3    1   25     -0.06      0.00
   -2    2   25     -0.35      0.00
   -1    3   25     -0.39      0.00
   -1    1   25      0.30      0.00
    0    2   25     -0.50      0.00
    1    3   25     -0.84      0.00
    3    3   25     -0.19      0.00
    1    1   25      0.25      0.00
    2    2   25     -0.50      0.00
    3    1   25      0.66      0.00
    4    2   25      0.06      0.00
    5    1   25      1.06      0.00
    6    2   25     -0.02      0.00
    7    1   25      1.44      0.00
   -2    0   26      0.89      0.00
   33    1    0     -0.60      0.00
   32    2    0     -0.48      0.00
   33    3    0     -0.43      0.00
   32    4    0     -0.45      0.00
   31    5    0     -0.36      0.00
   30    6    0      0.42      0.00
   27    7    0     -0.93      0.00
   29    7    0      0.09      0.00
   26    8    0     -0.71      0.00
   28    8    0     -0.57      0.00
   23    9    0      0.46      0.00
   25    9    0     -0.45      0.00
   27    9    0      0.02      0.00
   22   10    0     -0.31      0.00
   24   10    0      0.14      0.00
   17   11    0     -0.99      0.00
   19   11    0     -1.07      0.00
   21   11    0     -0.54      0.00
   12   12    0      2.08      0.00
   14   12    0      0.24      0.00
   16   12    0      0.03      0.00
   18   12    0     -0.87      0.00
    1   13    0      0.37      0.00
    3   13    0     -0.40      0.00
    5   13    0     -2.40      0.00
    7   13    0     -1.55      0.00
    9   13    0     -0.09      0.00
   11   13    0      0.66      0.00
   13   13    0      1.45      0.00
  -33    1    1     -0.80      0.00
   33    1    1     -0.27      0.00
  -32    2    1     -0.08      0.00
   32    2    1     -0.70      0.00
  -33    3    1      0.44      0.00
   33    3    1     -0.37      0.00
  -32    4    1      0.09      0.00
   32    4    1      0.15      0.00
  -33    5    1     -0.33      0.00
  -31    5    1     -0.16      0.00
   31    5    1     -0.34      0.00
  -30    6    1     -0.31      0.00
   30    6    1     -0.24      0.00
  -29    7    1      0.08      0.00
  -27    7    1     -0.21      0.00
   27    7    1      0.61      0.00
   29    7    1     -0.07      0.00
  -28    8    1      0.21      0.00
  -26    8    1     -1.21      0.00
   26    8    1      0.80      0.00
   28    8    1      0.09      0.00
  -27    9    1     -0.25      0.00
  -25    9    1     -0.36      0.00
  -23    9    1     -1.19      0.00
   23    9    1      0.15      0.00
   25    9    1     -0.14      0.00
   27    9    1      0.26      0.00
  -24   10    1      0.00      0.00
  -22   10    1      0.62      0.00
   20   10    1      0.35      0.00
   22   10    1      0.13      0.00
   24   10    1      0.24      0.00
  -21   11    1      1.11      0.00
  -19   11    1      1.34      0.00
  -17   11    1      1.50      0.00
   17   11    1      0.65      0.00
   19   11    1      1.12      0.00
   21   11    1      0.55      0.00
  -18   12    1      1.26      0.00
  -16   12    1      0.54      0.00
  -14   12    1      0.29      0.00
  -12   12    1     -0.03      0.00
   12   12    1      1.34      0.00
   14   12    1      0.94      0.00
   16   12    1      1.45      0.00
   18   12    1      1.41      0.00
  -13   13    1     -0.07      0.00
  -11   13    1      0.81      0.00
   -9   13    1      0.16      0.00
   -7   13    1      0.02      0.00
   -5   13    1     -0.36      0.00
   -3   13    1      0.86      0.00
   -1   13    1      0.80      0.00
    1   13    1      1.47      0.00
    3   13    1      0.08      0.00
    5   13    1      0.27      0.00
    7   13    1      0.01      0.00
    9   13    1      0.80      0.00
   11   13    1      0.24      0.00
   13   13    1      0.78      0.00
   32    0    2      0.89      0.00
  -33    1    2      0.55      0.00
   33    1    2      0.60      0.00
  -32    2    2      0.39      0.00
   32    2    2      0.10      0.00
  -33    3    2      0.71      0.00
   33    3    2     -0.08      0.00
  -32    4    2      0.98      0.00
   32    4    2      0.02      0.00
  -31    5    2      0.43      0.00
   31    5    2     -0.39      0.00
  -30    6    2      0.34      0.00
   30    6    2      0.04      0.00
  -29    7    2      0.97      0.00
  -27    7    2      0.56      0.00
   27    7    2      0.15      0.00
   29    7    2      0.23      0.00
  -28    8    2      0.83      0.00
  -26    8    2      0.96      0.00
   26    8    2      1.09      0.00
   28    8    2      1.01      0.00
  -27    9    2      0.50      0.00
  -25    9    2     -0.60      0.00
  -23    9    2     -0.45      0.00
   23    9    2      0.50      0.00
   25    9    2      0.45      0.00
   27    9    2      0.85      0.00
  -24   10    2      0.02      0.00
  -22   10    2     -0.29      0.00
   20   10    2      0.78      0.00
   22   10    2      0.11      0.00
   24   10    2      0.54      0.00
  -21   11    2      0.50      0.00
  -19   11    2      0.84      0.00
  -17   11    2      1.10      0.00
   17   11    2      1.01      0.00
   19   11    2      0.60      0.00
   21   11    2      0.15      0.00
  -18   12    2      0.35      0.00
  -16   12    2      0.38      0.00
  -14   12    2     -1.85      0.00
  -12   12    2     -1.25      0.00
   12   12    2     -0.64      0.00
   14   12    2     -0.89      0.00
   16   12    2      0.62      0.00
   18   12    2      0.28      0.00
  -13   13    2     -1.54      0.00
  -11   13    2     -1.95      0.00
   -9   13    2     -0.30      0.00
   -7   13    2      1.50      0.00
   -5   13    2      0.67      0.00
   -3   13    2      0.22      0.00
   -1   13    2     -1.14      0.00
    1   13    2     -0.72      0.00
    3   13    2      1.49      0.00
    5   13    2      1.97      0.00
    7   13    2      2.15      0.00
    9   13    2      1.05      0.00
   11   13    2     -0.81      0.00
   13   13    2     -0.18      0.00
  -33    1    3     -1.14      0.00
   33    1    3      0.45      0.00
  -32    2    3     -0.27      0.00
   32    2    3      0.45      0.00
  -33    3    3      0.32      0.00
   31    3    3      0.99      0.00
   33    3    3      0.64      0.00
  -32    4    3     -0.02      0.00
   32    4    3      0.79      0.00
  -31    5    3      0.55      0.00
   31    5    3     -0.11      0.00
  -30    6    3      0.57      0.00
   30    6    3      0.18      0.00
  -29    7    3      0.16      0.00
  -27    7    3      0.41      0.00
   27    7    3     -0.07      0.00
   29    7    3     -0.38      0.00
  -28    8    3      0.91      0.00
  -26    8    3      0.38      0.00
   26    8    3     -0.32      0.00
   28    8    3     -0.20      0.00
  -27    9    3      0.66      0.00
  -25    9    3      1.17      0.00
  -23    9    3      0.16      0.00
   23    9    3     -0.19      0.00
   25    9    3     -0.67      0.00
  -24   10    3      0.06      0.00
  -22   10    3     -0.24      0.00
  -20   10    3     -0.79      0.00
   20   10    3     -0.65      0.00
   22   10    3     -0.59      0.00
   24   10    3     -0.47      0.00
  -21   11    3     -0.93      0.00
  -19   11    3     -1.20      0.00
  -17   11    3      0.01      0.00
   17   11    3     -0.75      0.00
   19   11    3     -0.46      0.00
   21   11    3     -0.28      0.00
  -18   12    3     -0.79      0.00
  -16   12    3     -0.26      0.00
  -14   12    3      0.03      0.00
  -12   12    3      0.02      0.00
   12   12    3     -1.15      0.00
   14   12    3     -1.13      0.00
   16   12    3     -0.95      0.00
   18   12    3     -1.00      0.00
  -13   13    3     -0.42      0.00
  -11   13    3      0.14      0.00
   -9   13    3      0.47      0.00
   -7   13    3      1.23      0.00
   -5   13    3      0.54      0.00
   -3   13    3      0.17      0.00
   -1   13    3     -1.02      0.00
    1   13    3      0.11      0.00
    3   13    3     -0.05      0.00
    5   13    3      0.82      0.00
    7   13    3      0.15      0.00
    9   13    3      0.03      0.00
   11   13    3     -0.85      0.00
   13   13    3     -0.55      0.00
  -32    0    4      1.35      0.00
   32    0    4      0.23      0.00
  -33    1    4     -0.28      0.00
   33    1    4     -0.14      0.00
  -32    2    4     -1.66      0.00
   32    2    4     -0.55      0.00
  -33    3    4     -0.63      0.00
  -31    3    4     -0.30      0.00
   31    3    4      0.43      0.00
   33    3    4     -0.50      0.00
  -32    4    4     -0.19      0.00
   30    4    4      0.63      0.00
   32    4    4      0.20      0.00
  -31    5    4     -0.51      0.00
   31    5    4     -0.15      0.00
  -30    6    4     -0.18      0.00
   28    6    4     -0.17      0.00
   30    6    4      0.34      0.00
  -29    7    4     -0.20      0.00
  -27    7    4     -0.41      0.00
   27    7    4     -0.51      0.00
   29    7    4     -0.21      0.00
  -28    8    4     -0.94      0.00
  -26    8    4     -0.46      0.00
   26    8    4     -1.11      0.00
   28    8    4      0.05      0.00
  -25    9    4     -0.60      0.00
  -23    9    4     -0.31      0.00
   23    9    4      0.11      0.00
   25    9    4     -0.21      0.00
  -24   10    4      0.04      0.00
  -22   10    4     -0.35      0.00
  -20   10    4     -0.49      0.00
   20   10    4     -0.41      0.00
   22   10    4     -0.40      0.00
   24   10    4     -0.29      0.00
  -21   11    4      0.06      0.00
  -19   11    4     -0.39      0.00
  -17   11    4      0.48      0.00
   17   11    4     -1.30      0.00
   19   11    4     -0.96      0.00
   21   11    4     -0.30      0.00
  -18   12    4     -0.50      0.00
  -16   12    4      1.00      0.00
  -14   12    4      1.04      0.00
  -12   12    4      2.31      0.00
   12   12    4      1.58      0.00
   14   12    4      0.16      0.00
   16   12    4     -0.28      0.00
  -13   13    4      1.98      0.00
  -11   13    4      1.13      0.00
   -9   13    4     -0.66      0.00
   -7   13    4     -1.04      0.00
   -5   13    4     -1.32      0.00
   -3   13    4      0.69      0.00
   -1   13    4      1.07      0.00
    1   13    4      0.11      0.00
    3   13    4     -0.48      0.00
    5   13    4     -2.20      0.00
    7   13    4     -1.76      0.00
    9   13    4     -0.05      0.00
   11   13    4      0.62      0.00
  -33    1    5      0.00      0.00
   33    1    5      0.15      0.00
  -32    2    5      0.45      0.00
   32    2    5     -0.70      0.00
  -33    3    5      0.25      0.00
  -31    3    5     -0.10      0.00
   31    3    5     -0.46      0.00
   33    3    5     -0.40      0.00
  -32    4    5      0.14      0.00
   30    4    5     -1.10      0.00
   32    4    5     -0.10      0.00
  -31    5    5     -0.28      0.00
   29    5    5     -0.68      0.00
   31    5    5     -0.85      0.00
  -30    6    5     -0.71      0.00
  -28    6    5     -0.71      0.00
   28    6    5     -0.93      0.00
   30    6    5     -0.70      0.00
  -29    7    5     -0.14      0.00
  -27    7    5      0.37      0.00
   27    7    5      0.57      0.00
   29    7    5     -1.04      0.00
  -28    8    5      0.28      0.00
  -26    8    5     -0.05      0.00
   26    8    5      0.25      0.00
   28    8    5     -0.33      0.00
  -25    9    5     -0.20      0.00
  -23    9    5     -0.13      0.00
   23    9    5      1.23      0.00
   25    9    5      1.13      0.00
  -24   10    5     -0.30      0.00
  -22   10    5      0.21      0.00
  -20   10    5     -0.32      0.00
   20   10    5      1.94      0.00
   22   10    5      1.69      0.00
   24   10    5      1.65      0.00
  -21   11    5      0.58      0.00
  -19   11    5      0.04      0.00
  -17   11    5      0.81      0.00
   17   11    5      0.30      0.00
   19   11    5      0.93      0.00
   21   11    5      0.44      0.00
  -16   12    5      0.39      0.00
  -14   12    5      0.36      0.00
  -12   12    5      0.06      0.00
   10   12    5      1.29      0.00
   12   12    5      0.79      0.00
   14   12    5      0.11      0.00
   16   12    5      0.13      0.00
  -11   13    5     -0.51      0.00
   -9   13    5     -1.40      0.00
   -7   13    5     -1.23      0.00
   -5   13    5     -0.75      0.00
   -3   13    5      0.67      0.00
   -1   13    5      0.25      0.00
    1   13    5      0.61      0.00
    3   13    5     -0.79      0.00
    5   13    5     -0.82      0.00
    7   13    5     -0.42      0.00
    9   13    5      0.86      0.00
   11   13    5      0.90      0.00
  -32    0    6      0.86      0.00
   32    0    6      0.50      0.00
  -33    1    6      0.25      0.00
   31    1    6     -0.42      0.00
   33    1    6      0.30      0.00
  -32    2    6      0.05      0.00
   32    2    6     -0.31      0.00
  -33    3    6     -0.04      0.00
  -31    3    6     -0.46      0.00
   31    3    6      0.60      0.00
   33    3    6      0.04      0.00
  -32    4    6     -0.43      0.00
  -30    4    6     -0.69      0.00
   30    4    6      0.25      0.00
   32    4    6      0.97      0.00
  -31    5    6      0.05      0.00
  -29    5    6      0.25      0.00
   29    5    6      0.31      0.00
   31    5    6      0.45      0.00
  -30    6    6     -0.01      0.00
  -28    6    6      0.19      0.00
   28    6    6     -1.28      0.00
   30    6    6      0.20      0.00
  -29    7    6      0.12      0.00
  -27    7    6     -0.17      0.00
   27    7    6     -0.29      0.00
   29    7    6     -0.48      0.00
  -28    8    6      0.38      0.00
  -26    8    6      0.48      0.00
   24    8    6      0.79      0.00
   26    8    6     -0.36      0.00
  -25    9    6      0.13      0.00
  -23    9    6      0.47      0.00
   23    9    6     -0.88      0.00
   25    9    6     -0.61      0.00
  -24   10    6      0.15      0.00
  -22   10    6      0.35      0.00
  -20   10    6      0.02      0.00
   20   10    6      0.08      0.00
   22   10    6     -0.03      0.00
  -21   11    6      0.22      0.00
  -19   11    6     -0.25      0.00
  -17   11    6     -0.19      0.00
   15   11    6      1.23      0.00
   17   11    6      1.81      0.00
   19   11    6      0.83      0.00
  -16   12    6     -0.47      0.00
  -14   12    6     -2.17      0.00
  -12   12    6     -1.15      0.00
  -10   12    6     -0.13      0.00
   10   12    6     -1.86      0.00
   12   12    6     -1.64      0.00
   14   12    6     -0.40      0.00
   16   12    6      0.43      0.00
  -11   13    6     -0.21      0.00
   -9   13    6      0.81      0.00
   -7   13    6      1.87      0.00
   -5   13    6      0.42      0.00
   -3   13    6     -0.08      0.00
   -1   13    6     -0.38      0.00
    1   13    6     -0.64      0.00
    3   13    6      1.32      0.00
    5   13    6      1.62      0.00
    7   13    6      1.34      0.00
    9   13    6     -0.15      0.00
   11   13    6     -1.30      0.00
  -33    1    7     -0.47      0.00
   31    1    7     -0.53      0.00
   33    1    7      0.24      0.00
  -32    2    7     -0.04      0.00
   32    2    7     -0.44      0.00
  -33    3    7     -0.06      0.00
  -31    3    7     -0.30      0.00
   31    3    7      0.27      0.00
   33    3    7     -0.47      0.00
  -32    4    7     -0.78      0.00
  -30    4    7     -0.53      0.00
   30    4    7      0.38      0.00
   32    4    7      0.39      0.00
  -31    5    7     -0.51      0.00
  -29    5    7      0.27      0.00
   29    5    7      1.82      0.00
   31    5    7      0.70      0.00
  -30    6    7      0.44      0.00
  -28    6    7      0.86      0.00
   28    6    7      1.02      0.00
   30    6    7      1.14      0.00
  -29    7    7      0.09      0.00
  -27    7    7      0.37      0.00
   27    7    7      0.58      0.00
   29    7    7     -0.42      0.00
  -28    8    7      0.05      0.00
  -26    8    7     -0.18      0.00
  -24    8    7     -0.28      0.00
   24    8    7     -0.51      0.00
   26    8    7     -0.42      0.00
  -25    9    7     -0.21      0.00
  -23    9    7     -0.32      0.00
   23    9    7     -1.36      0.00
   25    9    7     -0.53      0.00
  -22   10    7     -0.24      0.00
  -20   10    7     -0.74      0.00
   20   10    7     -2.22      0.00
   22   10    7     -2.00      0.00
  -19   11    7     -0.52      0.00
  -17   11    7      0.30      0.00
  -15   11    7     -0.46      0.00
   15   11    7      0.32      0.00
   17   11    7     -0.88      0.00
   19   11    7     -0.74      0.00
  -16   12    7     -0.20      0.00
  -14   12    7     -0.07      0.00
  -12   12    7      0.96      0.00
  -10   12    7      0.67      0.00
    8   12    7     -1.90      0.00
   10   12    7     -1.43      0.00
   12   12    7     -0.47      0.00
   14   12    7      0.14      0.00
   16   12    7     -0.40      0.00
  -11   13    7      0.95      0.00
   -9   13    7      0.95      0.00
   -7   13    7      0.68      0.00
   -5   13    7     -0.41      0.00
   -3   13    7     -0.63      0.00
   -1   13    7     -1.33      0.00
    1   13    7     -0.10      0.00
    3   13    7      0.72      0.00
    5   13    7      0.63      0.00
    7   13    7     -0.64      0.00
    9   13    7     -1.55      0.00
  -32    0    8     -0.47      0.00
   32    0    8      0.83      0.00
  -33    1    8     -0.29      0.00
  -31    1    8     -0.37      0.00
   31    1    8      0.23      0.00
   33    1    8      0.04      0.00
  -32    2    8      0.34      0.00
   30    2    8      0.38      0.00
   32    2    8     -0.76      0.00
  -33    3    8      0.75      0.00
  -31    3    8      1.50      0.00
   31    3    8     -0.34      0.00
  -32    4    8      0.81      0.00
  -30    4    8      1.68      0.00
   30    4    8     -0.78      0.00
   32    4    8     -0.53      0.00
  -31    5    8     -0.13      0.00
  -29    5    8      0.22      0.00
   29    5    8      0.34      0.00
   31    5    8     -0.72      0.00
  -30    6    8     -0.60      0.00
  -28    6    8      0.01      0.00
   28    6    8      0.40      0.00
   30    6    8      0.72      0.00
  -29    7    8     -0.02      0.00
  -27    7    8      0.19      0.00
   25    7    8     -0.17      0.00
   27    7    8      0.69      0.00
  -26    8    8      0.08      0.00
  -24    8    8      0.20      0.00
   24    8    8      0.28      0.00
   26    8    8     -0.76      0.00
  -25    9    8      0.02      0.00
  -23    9    8      0.28      0.00
   21    9    8      1.63      0.00
   23    9    8      0.87      0.00
   25    9    8      0.73      0.00
  -22   10    8      0.02      0.00
  -20   10    8     -0.41      0.00
  -18   10    8      0.41      0.00
   18   10    8      0.09      0.00
   20   10    8      0.39      0.00
   22   10    8      0.52      0.00
  -19   11    8     -0.12      0.00
  -17   11    8      0.91      0.00
  -15   11    8      1.17      0.00
   15   11    8     -1.27      0.00
   17   11    8     -0.69      0.00
   19   11    8     -0.50      0.00
  -16   12    8      1.52      0.00
  -14   12    8      1.51      0.00
  -12   12    8      1.34      0.00
  -10   12    8     -0.05      0.00
   -8   12    8     -0.43      0.00
    6   12    8     -0.11      0.00
    8   12    8      0.88      0.00
   10   12    8      2.44      0.00
   12   12    8      1.46      0.00
   14   12    8      0.43      0.00
   -9   13    8     -1.32      0.00
   -7   13    8     -0.76      0.00
   -5   13    8     -0.64      0.00
   -3   13    8      0.05      0.00
   -1   13    8      0.98      0.00
    1   13    8     -0.14      0.00
    3   13    8     -0.51      0.00
    5   13    8     -1.88      0.00
    7   13    8     -0.84      0.00
    9   13    8      0.49      0.00
  -33    1    9     -1.10      0.00
  -31    1    9     -0.52      0.00
   31    1    9      0.06      0.00
   33    1    9      0.85      0.00
  -32    2    9      0.03      0.00
   30    2    9      0.47      0.00
   32    2    9      0.21      0.00
  -31    3    9      0.58      0.00
   29    3    9     -0.74      0.00
   31    3    9      0.10      0.00
  -32    4    9      0.55      0.00
  -30    4    9      0.47      0.00
   30    4    9     -0.85      0.00
  -31    5    9     -0.22      0.00
  -29    5    9      0.39      0.00
   29    5    9     -0.26      0.00
  -30    6    9     -0.84      0.00
  -28    6    9     -0.35      0.00
   26    6    9      0.30      0.00
   28    6    9     -0.50      0.00
  -27    7    9     -0.14      0.00
  -25    7    9     -0.40      0.00
   25    7    9      0.00      0.00
   27    7    9      1.07      0.00
  -26    8    9      0.25      0.00
  -24    8    9     -0.12      0.00
   24    8    9      0.52      0.00
   26    8    9     -0.03      0.00
  -25    9    9      0.09      0.00
  -23    9    9      0.68      0.00
  -21    9    9      0.45      0.00
   21    9    9      0.85      0.00
   23    9    9      0.17      0.00
  -22   10    9      0.52      0.00
  -20   10    9      0.06      0.00
  -18   10    9     -0.21      0.00
   18   10    9      1.44      0.00
   20   10    9      1.32      0.00
   22   10    9      0.96      0.00
  -19   11    9     -0.17      0.00
  -17   11    9     -0.29      0.00
  -15   11    9     -1.32      0.00
  -13   11    9     -0.92      0.00
   13   11    9     -0.96      0.00
   15   11    9     -0.09      0.00
   17   11    9      0.24      0.00
  -14   12    9     -0.72      0.00
  -12   12    9     -0.42      0.00
  -10   12    9     -0.95      0.00
   -8   12    9      0.20      0.00
   -6   12    9      0.14      0.00
   -4   12    9      0.70      0.00
    4   12    9     -0.64      0.00
    6   12    9      1.54      0.00
    8   12    9      1.47      0.00
   10   12    9      0.93      0.00
   12   12    9     -0.11      0.00
   14   12    9      0.13      0.00
   -7   13    9      0.31      0.00
   -5   13    9      0.50      0.00
   -3   13    9      1.04      0.00
   -1   13    9      0.49      0.00
    1   13    9     -0.62      0.00
    3   13    9     -0.97      0.00
    5   13    9     -0.34      0.00
    7   13    9      1.24      0.00
  -32    0   10      0.79      0.00
  -30    0   10     -0.05      0.00
    2    0   10     -1.29      0.00
   30    0   10     -0.96      0.00
   32    0   10     -0.04      0.00
  -33    1   10      0.21      0.00
  -31    1   10     -0.37      0.00
   31    1   10     -0.06      0.00
  -32    2   10     -0.69      0.00
  -30    2   10     -1.02      0.00
   30    2   10      0.59      0.00
   32    2   10      0.28      0.00
  -31    3   10     -0.93      0.00
   29    3   10     -0.55      0.00
   31    3   10      0.52      0.00
  -30    4   10     -0.30      0.00
   28    4   10     -0.37      0.00
   30    4   10     -0.29      0.00
  -29    5   10      0.34      0.00
   27    5   10     -0.77      0.00
   29    5   10      0.26      0.00
  -28    6   10      0.62      0.00
  -26    6   10      0.03      0.00
   26    6   10      0.25      0.00
   28    6   10     -0.67      0.00
  -27    7   10      0.18      0.00
  -25    7   10     -0.46      0.00
   25    7   10     -0.01      0.00
   27    7   10      0.14      0.00
  -26    8   10     -0.14      0.00
  -24    8   10      0.00      0.00
   22    8   10     -0.65      0.00
   24    8   10      0.83      0.00
  -23    9   10      0.15      0.00
  -21    9   10      0.32      0.00
   19    9   10     -2.01      0.00
   21    9   10     -1.18      0.00
   23    9   10     -0.94      0.00
  -22   10   10      0.21      0.00
  -20   10   10      0.02      0.00
  -18   10   10      0.10      0.00
   16   10   10      0.18      0.00
   18   10   10     -0.31      0.00
   20   10   10     -0.91      0.00
  -17   11   10     -0.76      0.00
  -15   11   10     -1.34      0.00
  -13   11   10     -0.53      0.00
   11   11   10     -1.41      0.00
   13   11   10      0.46      0.00
   15   11   10      0.52      0.00
   17   11   10      0.30      0.00
  -14   12   10     -1.23      0.00
  -12   12   10     -0.41      0.00
  -10   12   10      0.06      0.00
   -8   12   10      0.38      0.00
   -6   12   10     -0.03      0.00
   -4   12   10     -0.34      0.00
   -2   12   10     -1.26      0.00
    0   12   10     -0.89      0.00
    2   12   10      0.16      0.00
    4   12   10      0.37      0.00
    6   12   10      0.62      0.00
    8   12   10     -1.76      0.00
   10   12   10     -1.54      0.00
   12   12   10     -1.41      0.00
   -5   13   10      0.51      0.00
   -3   13   10     -0.43      0.00
   -1   13   10     -0.28      0.00
    1   13   10     -0.51      0.00
    3   13   10      1.24      0.00
    5   13   10      1.10      0.00
  -31    1   11      0.07      0.00
   29    1   11      0.68      0.00
   31    1   11     -0.41      0.00
  -32    2   11      0.09      0.00
  -30    2   11      0.16      0.00
   30    2   11      0.50      0.00
  -31    3   11      0.71      0.00
  -29    3   11      0.47      0.00
   29    3   11      0.05      0.00
   31    3   11      0.61      0.00
  -30    4   11      0.63      0.00
  -28    4   11      0.72      0.00
   28    4   11      0.28      0.00
   30    4   11     -0.16      0.00
  -29    5   11      1.00      0.00
  -27    5   11     -0.33      0.00
   27    5   11     -0.57      0.00
   29    5   11      0.13      0.00
  -28    6   11      0.82      0.00
  -26    6   11     -0.50      0.00
   26    6   11      0.01      0.00
   28    6   11     -0.22      0.00
  -27    7   11      0.11      0.00
  -25    7   11     -0.61      0.00
   23    7   11      0.21      0.00
   25    7   11     -1.10      0.00
   27    7   11      0.05      0.00
  -26    8   11     -0.20      0.00
  -24    8   11     -0.92      0.00
  -22    8   11     -0.34      0.00
   22    8   11      0.01      0.00
   24    8   11      0.17      0.00
  -23    9   11     -0.32      0.00
  -21    9   11     -0.21      0.00
  -19    9   11      0.77      0.00
   19    9   11     -0.30      0.00
   21    9   11      0.45      0.00
   23    9   11     -0.40      0.00
  -20   10   11      0.60      0.00
  -18   10   11      1.53      0.00
  -16   10   11      1.70      0.00
   16   10   11     -0.43      0.00
   18   10   11     -0.52      0.00
   20   10   11     -0.19      0.00
  -17   11   11      1.15      0.00
  -15   11   11      0.95      0.00
  -13   11   11      0.71      0.00
  -11   11   11     -0.14      0.00
   11   11   11      1.50      0.00
   13   11   11      1.35      0.00
   15   11   11      0.57      0.00
   17   11   11      0.08      0.00
  -12   12   11      0.40      0.00
  -10   12   11     -0.53      0.00
   -8   12   11     -0.38      0.00
   -6   12   11     -0.48      0.00
   -4   12   11     -0.86      0.00
   -2   12   11      0.20      0.00
    0   12   11     -0.13      0.00
    2   12   11      0.86      0.00
    4   12   11     -0.90      0.00
    6   12   11     -0.84      0.00
    8   12   11     -0.75      0.00
   10   12   11      0.34      0.00
   12   12   11      0.53      0.00
   -3   13   11     -0.44      0.00
   -1   13   11      0.47      0.00
    1   13   11      0.76      0.00
  -32    0   12      1.03      0.00
  -30    0   12      1.98      0.00
   30    0   12     -0.68      0.00
  -31    1   12      0.96      0.00
  -29    1   12      1.30      0.00
   29    1   12     -0.14      0.00
   31    1   12     -0.36      0.00
  -32    2   12      0.19      0.00
  -30    2   12     -0.39      0.00
   28    2   12      0.33      0.00
   30    2   12      0.36      0.00
  -31    3   12     -0.07      0.00
  -29    3   12     -0.13      0.00
   29    3   12      0.32      0.00
  -30    4   12      0.86      0.00
  -28    4   12     -0.21      0.00
   28    4   12      0.59      0.00
  -29    5   12      0.31      0.00
  -27    5   12     -0.24      0.00
   27    5   12     -0.41      0.00
   29    5   12     -0.03      0.00
  -28    6   12      0.52      0.00
  -26    6   12     -0.26      0.00
   24    6   12     -0.57      0.00
   26    6   12      0.44      0.00
  -27    7   12      0.64      0.00
  -25    7   12     -0.45      0.00
  -23    7   12      0.10      0.00
   23    7   12     -0.07      0.00
   25    7   12     -0.30      0.00
  -24    8   12     -0.35      0.00
  -22    8   12     -0.68      0.00
   20    8   12      0.98      0.00
   22    8   12     -0.59      0.00
   24    8   12      0.11      0.00
  -23    9   12     -0.42      0.00
  -21    9   12     -0.55      0.00
  -19    9   12     -0.76      0.00
   19    9   12      1.32      0.00
   21    9   12      0.97      0.00
  -20   10   12      0.01      0.00
  -18   10   12      0.09      0.00
  -16   10   12     -0.13      0.00
   14   10   12     -0.77      0.00
   16   10   12     -0.18      0.00
   18   10   12      0.96      0.00
  -17   11   12      0.50      0.00
  -15   11   12     -0.03      0.00
  -13   11   12     -0.05      0.00
  -11   11   12     -0.59      0.00
   -9   11   12     -0.39      0.00
    9   11   12      1.39      0.00
   11   11   12     -0.03      0.00
   13   11   12     -0.58      0.00
   15   11   12     -0.54      0.00
  -10   12   12     -0.64      0.00
   -8   12   12     -0.45      0.00
   -6   12   12      0.15      0.00
   -4   12   12      0.61      0.00
   -2   12   12      0.98      0.00
    0   12   12      0.36      0.00
    2   12   12      0.19      0.00
    4   12   12     -0.79      0.00
    6   12   12      1.08      0.00
    8   12   12      1.09      0.00
   10   12   12      1.90      0.00
  -31    1   13      0.88      0.00
  -29    1   13      1.18      0.00
   29    1   13     -0.18      0.00
  -30    2   13      0.61      0.00
  -28    2   13      0.19      0.00
   28    2   13     -0.99      0.00
   30    2   13     -0.57      0.00
  -29    3   13     -1.28      0.00
   27    3   13     -0.12      0.00
   29    3   13     -0.74      0.00
  -30    4   13     -0.98      0.00
  -28    4   13     -0.32      0.00
   26    4   13     -0.10      0.00
   28    4   13      0.17      0.00
  -29    5   13      0.31      0.00
  -27    5   13      0.09      0.00
   25    5   13      0.36      0.00
   27    5   13     -0.27      0.00
  -28    6   13      0.53      0.00
  -26    6   13      0.05      0.00
  -24    6   13      0.87      0.00
   24    6   13      0.35      0.00
   26    6   13      0.38      0.00
  -25    7   13      0.29      0.00
  -23    7   13      0.89      0.00
   23    7   13      1.33      0.00
   25    7   13      0.61      0.00
  -24    8   13      0.16      0.00
  -22    8   13      0.54      0.00
  -20    8   13     -0.43      0.00
   20    8   13     -0.69      0.00
   22    8   13     -0.45      0.00
  -21    9   13     -0.35      0.00
  -19    9   13     -0.97      0.00
  -17    9   13     -0.86      0.00
   17    9   13     -0.05      0.00
   19    9   13     -1.14      0.00
   21    9   13     -0.18      0.00
  -18   10   13     -1.31      0.00
  -16   10   13     -0.82      0.00
  -14   10   13     -0.09      0.00
   12   10   13     -0.66      0.00
   14   10   13     -0.06      0.00
   16   10   13      0.31      0.00
   18   10   13     -0.22      0.00
  -15   11   13     -0.46      0.00
  -13   11   13      0.57      0.00
  -11   11   13      0.68      0.00
   -9   11   13      0.71      0.00
   -7   11   13     -0.25      0.00
    5   11   13     -0.12      0.00
    7   11   13     -2.23      0.00
    9   11   13     -1.94      0.00
   11   11   13     -2.32      0.00
   13   11   13     -1.15      0.00
  -10   12   13      0.64      0.00
   -8   12   13      0.44      0.00
   -6   12   13      0.46      0.00
   -4   12   13     -0.22      0.00
   -2   12   13      0.32      0.00
    0   12   13     -0.36      0.00
    2   12   13      0.74      0.00
    4   12   13      0.50      0.00
    6   12   13      0.50      0.00
    8   12   13     -0.44      0.00
  -30    0   14     -2.30      0.00
  -28    0   14     -1.98      0.00
   28    0   14      0.84      0.00
   30    0   14      0.45      0.00
  -31    1   14     -1.09      0.00
  -29    1   14     -1.40      0.00
   27    1   14      0.38      0.00
   29    1   14      0.62      0.00
  -30    2   14      0.50      0.00
  -28    2   14      0.53      0.00
   28    2   14     -0.20      0.00
  -29    3   14      0.69      0.00
  -27    3   14     -0.07      0.00
   27    3   14     -0.10      0.00
   29    3   14     -0.44      0.00
  -28    4   14     -0.66      0.00
  -26    4   14      0.05      0.00
   26    4   14     -0.32      0.00
   28    4   14      0.06      0.00
  -27    5   14     -0.19      0.00
  -25    5   14      0.74      0.00
   25    5   14     -0.13      0.00
   27    5   14     -0.48      0.00
  -26    6   14     -0.25      0.00
  -24    6   14      1.17      0.00
   24    6   14     -0.88      0.00
   26    6   14     -0.69      0.00
  -25    7   14     -0.04      0.00
  -23    7   14      1.19      0.00
   21    7   14      0.16      0.00
   23    7   14      0.47      0.00
  -22    8   14      0.84      0.00
  -20    8   14      0.40      0.00
   18    8   14     -0.50      0.00
   20    8   14      0.82      0.00
   22    8   14      0.46      0.00
  -21    9   14      0.34      0.00
  -19    9   14      0.20      0.00
  -17    9   14      0.96      0.00
   15    9   14     -1.68      0.00
   17    9   14     -1.40      0.00
   19    9   14     -0.88      0.00
  -18   10   14      0.16      0.00
  -16   10   14      0.29      0.00
  -14   10   14      0.73      0.00
  -12   10   14      0.06      0.00
   12   10   14      1.39      0.00
   14   10   14      0.70      0.00
   16   10   14     -0.81      0.00
  -13   11   14      0.82      0.00
  -11   11   14      0.67      0.00
   -9   11   14     -0.08      0.00
   -7   11   14     -0.33      0.00
   -5   11   14     -1.36      0.00
   -3   11   14     -0.29      0.00
   -1   11   14     -0.66      0.00
    1   11   14      0.83      0.00
    3   11   14     -0.03      0.00
    5   11   14      0.31      0.00
    7   11   14     -0.72      0.00
    9   11   14      0.27      0.00
   11   11   14      0.93      0.00
   13   11   14      0.98      0.00
   -6   12   14     -0.38      0.00
   -4   12   14     -0.89      0.00
   -2   12   14     -0.38      0.00
    0   12   14     -0.47      0.00
    2   12   14      0.23      0.00
    4   12   14     -0.85      0.00
    6   12   14     -0.75      0.00
  -29    1   15     -0.73      0.00
  -27    1   15     -0.14      0.00
   27    1   15      0.19      0.00
   29    1   15      0.43      0.00
  -30    2   15     -0.37      0.00
  -28    2   15     -0.65      0.00
   26    2   15      0.83      0.00
   28    2   15      0.49      0.00
  -29    3   15      0.13      0.00
  -27    3   15     -0.06      0.00
   25    3   15      0.32      0.00
   27    3   15      0.71      0.00
  -28    4   15     -0.46      0.00
  -26    4   15     -0.80      0.00
   24    4   15      0.58      0.00
   26    4   15      0.31      0.00
  -27    5   15     -1.05      0.00
  -25    5   15      0.18      0.00
   23    5   15      0.28      0.00
   25    5   15      0.47      0.00
  -26    6   15     -0.40      0.00
  -24    6   15      0.67      0.00
   22    6   15     -0.80      0.00
   24    6   15     -0.86      0.00
  -25    7   15     -0.28      0.00
  -23    7   15      0.48      0.00
  -21    7   15     -0.54      0.00
   21    7   15     -1.21      0.00
   23    7   15     -1.39      0.00
  -22    8   15      0.25      0.00
  -20    8   15     -0.32      0.00
  -18    8   15      0.22      0.00
   18    8   15      1.10      0.00
   20    8   15      1.02      0.00
  -19    9   15      0.33      0.00
  -17    9   15     -0.03      0.00
  -15    9   15     -0.29      0.00
   15    9   15     -0.31      0.00
   17    9   15      1.09      0.00
   19    9   15      0.73      0.00
  -16   10   15      0.09      0.00
  -14   10   15     -0.69      0.00
  -12   10   15     -0.47      0.00
  -10   10   15     -0.49      0.00
    8   10   15      1.60      0.00
   10   10   15      0.40      0.00
   12   10   15     -0.22      0.00
   14   10   15     -0.86      0.00
   16   10   15     -0.10      0.00
  -11   11   15     -0.94      0.00
   -9   11   15     -0.10      0.00
   -7   11   15      0.29      0.00
   -5   11   15      0.90      0.00
   -3   11   15      0.18      0.00
   -1   11   15      0.41      0.00
    1   11   15      0.08      0.00
    3   11   15      0.26      0.00
    5   11   15      1.76      0.00
    7   11   15      1.71      0.00
    9   11   15      2.38      0.00
   11   11   15      1.21      0.00
   -2   12   15     -0.06      0.00
    0   12   15     -0.78      0.00
    2   12   15     -0.60      0.00
  -28    0   16     -0.33      0.00
  -26    0   16     -1.64      0.00
   26    0   16     -1.06      0.00
   28    0   16     -0.85      0.00
  -29    1   16      0.12      0.00
  -27    1   16     -0.20      0.00
   25    1   16     -0.71      0.00
   27    1   16     -0.94      0.00
  -28    2   16      0.25      0.00
  -26    2   16      0.73      0.00
   26    2   16     -0.33      0.00
   28    2   16     -0.04      0.00
  -27    3   16      0.50      0.00
  -25    3   16      1.33      0.00
   25    3   16     -0.61      0.00
   27    3   16      0.32      0.00
  -28    4   16     -0.14      0.00
  -26    4   16      0.21      0.00
  -24    4   16     -0.51      0.00
   24    4   16     -0.37      0.00
   26    4   16     -0.16      0.00
  -27    5   16     -0.86      0.00
  -25    5   16     -0.82      0.00
  -23    5   16     -1.30      0.00
   23    5   16      0.44      0.00
   25    5   16      0.57      0.00
  -24    6   16     -0.26      0.00
  -22    6   16     -1.47      0.00
   20    6   16      0.97      0.00
   22    6   16      0.95      0.00
   24    6   16      1.03      0.00
  -23    7   16     -0.40      0.00
  -21    7   16     -0.94      0.00
  -19    7   16      0.02      0.00
   19    7   16     -0.31      0.00
   21    7   16     -0.46      0.00
  -20    8   16     -0.66      0.00
  -18    8   16     -0.37      0.00
   16    8   16      0.30      0.00
   18    8   16     -0.55      0.00
   20    8   16     -0.61      0.00
  -19    9   16     -0.46      0.00
  -17    9   16     -0.15      0.00
  -15    9   16     -0.72      0.00
  -13    9   16      0.19      0.00
   13    9   16      1.08      0.00
   15    9   16      1.35      0.00
   17    9   16      0.80      0.00
  -14   10   16      0.13      0.00
  -12   10   16     -0.33      0.00
  -10   10   16      0.92      0.00
   -8   10   16      0.42      0.00
   -6   10   16      1.52      0.00
    4   10   16     -0.13      0.00
    6   10   16     -0.77      0.00
    8   10   16     -1.17      0.00
   10   10   16     -1.83      0.00
   12   10   16     -1.20      0.00
   14   10   16      0.36      0.00
   -9   11   16      0.35      0.00
   -7   11   16      1.29      0.00
   -5   11   16      0.35      0.00
   -3   11   16      0.48      0.00
   -1   11   16     -0.50      0.00
    1   11   16      0.20      0.00
    3   11   16      0.01      0.00
    5   11   16      0.50      0.00
    7   11   16     -0.41      0.00
    9   11   16     -1.24      0.00
  -27    1   17     -1.23      0.00
  -25    1   17     -1.75      0.00
   25    1   17     -0.32      0.00
   27    1   17     -0.40      0.00
  -28    2   17     -0.54      0.00
  -26    2   17     -0.62      0.00
   24    2   17     -0.54      0.00
   26    2   17      0.03      0.00
  -27    3   17      0.71      0.00
  -25    3   17      0.29      0.00
   23    3   17      0.03      0.00
   25    3   17      0.08      0.00
  -26    4   17      0.91      0.00
  -24    4   17      0.58      0.00
   22    4   17     -0.25      0.00
   24    4   17     -0.05      0.00
  -25    5   17      0.15      0.00
  -23    5   17     -1.14      0.00
   21    5   17     -0.47      0.00
   23    5   17     -0.28      0.00
  -24    6   17     -0.41      0.00
  -22    6   17     -0.58      0.00
  -20    6   17      0.11      0.00
   20    6   17      0.33      0.00
   22    6   17      0.47      0.00
  -23    7   17      0.35      0.00
  -21    7   17     -0.20      0.00
  -19    7   17      0.61      0.00
   17    7   17     -0.18      0.00
   19    7   17      0.07      0.00
   21    7   17      0.86      0.00
  -20    8   17     -0.09      0.00
  -18    8   17      0.54      0.00
  -16    8   17     -0.18      0.00
   14    8   17     -0.09      0.00
   16    8   17     -0.55      0.00
   18    8   17     -0.99      0.00
  -17    9   17     -0.08      0.00
  -15    9   17      0.38      0.00
  -13    9   17     -0.42      0.00
  -11    9   17     -0.12      0.00
    9    9   17     -0.52      0.00
   11    9   17      0.60      0.00
   13    9   17      0.88      0.00
   15    9   17     -0.14      0.00
  -14   10   17      0.39      0.00
  -12   10   17      0.44      0.00
  -10   10   17     -0.58      0.00
   -8   10   17     -0.41      0.00
   -6   10   17     -1.21      0.00
   -4   10   17     -0.02      0.00
   -2   10   17     -0.66      0.00
    0   10   17      0.23      0.00
    2   10   17     -1.03      0.00
    4   10   17     -0.78      0.00
    6   10   17     -1.58      0.00
    8   10   17     -0.59      0.00
   10   10   17      0.07      0.00
   12   10   17      0.98      0.00
   -7   11   17     -0.67      0.00
   -5   11   17     -0.09      0.00
   -3   11   17     -0.21      0.00
   -1   11   17      0.63      0.00
    1   11   17      0.05      0.00
    3   11   17     -0.52      0.00
    5   11   17     -0.77      0.00
  -28    0   18      2.30      0.00
  -26    0   18      1.94      0.00
  -24    0   18      1.24      0.00
   24    0   18      0.82      0.00
   26    0   18      0.80      0.00
  -27    1   18      0.62      0.00
  -25    1   18      0.05      0.00
   23    1   18      0.57      0.00
   25    1   18      1.00      0.00
  -26    2   18     -1.57      0.00
  -24    2   18     -1.83      0.00
   22    2   18      0.47      0.00
   24    2   18      0.76      0.00
   26    2   18      0.06      0.00
  -27    3   18     -1.14      0.00
  -25    3   18     -1.42      0.00
  -23    3   18     -1.90      0.00
   23    3   18      1.04      0.00
   25    3   18      0.04      0.00
  -26    4   18      0.32      0.00
  -24    4   18     -0.31      0.00
  -22    4   18      0.64      0.00
   22    4   18      0.71      0.00
   24    4   18      0.45      0.00
  -25    5   18      0.63      0.00
  -23    5   18      0.61      0.00
  -21    5   18      0.24      0.00
   19    5   18     -0.49      0.00
   21    5   18     -0.25      0.00
   23    5   18      0.02      0.00
  -22    6   18     -0.15      0.00
  -20    6   18      0.57      0.00
   18    6   18     -0.41      0.00
   20    6   18     -0.27      0.00
   22    6   18     -0.68      0.00
  -21    7   18      0.51      0.00
  -19    7   18      0.92      0.00
  -17    7   18     -0.12      0.00
   15    7   18      0.73      0.00
   17    7   18      0.29      0.00
   19    7   18      0.18      0.00
  -18    8   18      0.50      0.00
  -16    8   18      0.32      0.00
  -14    8   18      0.26      0.00
   12    8   18     -0.47      0.00
   14    8   18     -0.12      0.00
   16    8   18      0.01      0.00
   18    8   18      0.23      0.00
  -15    9   18     -0.40      0.00
  -13    9   18     -0.01      0.00
  -11    9   18     -0.44      0.00
   -9    9   18     -0.04      0.00
   -7    9   18     -0.21      0.00
    7    9   18      1.41      0.00
    9    9   18      0.91      0.00
   11    9   18      0.38      0.00
   13    9   18     -0.56      0.00
   15    9   18     -0.41      0.00
  -12   10   18     -0.84      0.00
  -10   10   18     -0.38      0.00
   -8   10   18     -1.18      0.00
   -6   10   18      0.52      0.00
   -4   10   18     -0.40      0.00
   -2   10   18      1.35      0.00
    0   10   18     -0.42      0.00
    2   10   18     -0.38      0.00
    4   10   18     -0.25      0.00
    6   10   18      0.39      0.00
    8   10   18      1.55      0.00
   10   10   18      1.19      0.00
   -1   11   18     -0.08      0.00
  -25    1   19      1.31      0.00
  -23    1   19      0.79      0.00
   23    1   19     -0.18      0.00
   25    1   19     -0.28      0.00
  -26    2   19      0.58      0.00
  -24    2   19      0.54      0.00
   22    2   19      0.16      0.00
   24    2   19     -0.77      0.00
  -25    3   19     -0.32      0.00
  -23    3   19      0.57      0.00
   21    3   19     -0.02      0.00
   23    3   19     -0.36      0.00
  -24    4   19      0.49      0.00
  -22    4   19      0.37      0.00
   20    4   19     -0.14      0.00
   22    4   19     -0.11      0.00
  -23    5   19      0.47      0.00
  -21    5   19      1.37      0.00
  -19    5   19      0.35      0.00
   19    5   19      0.08      0.00
   21    5   19     -0.22      0.00
  -22    6   19      0.05      0.00
  -20    6   19      0.07      0.00
  -18    6   19     -0.56      0.00
   16    6   19      0.30      0.00
   18    6   19     -0.01      0.00
   20    6   19     -0.02      0.00
  -19    7   19     -0.04      0.00
  -17    7   19     -0.68      0.00
  -15    7   19      0.09      0.00
   13    7   19      0.32      0.00
   15    7   19     -0.02      0.00
   17    7   19      0.53      0.00
   19    7   19     -0.24      0.00
  -16    8   19     -0.14      0.00
  -14    8   19      0.58      0.00
  -12    8   19      0.67      0.00
  -10    8   19      0.67      0.00
   10    8   19     -0.65      0.00
   12    8   19     -0.95      0.00
   14    8   19     -0.26      0.00
   16    8   19      0.29      0.00
  -13    9   19      0.21      0.00
  -11    9   19      1.20      0.00
   -9    9   19      0.27      0.00
   -7    9   19      1.32      0.00
   -5    9   19     -0.96      0.00
   -3    9   19      0.97      0.00
   -1    9   19     -0.36      0.00
    1    9   19      1.07      0.00
    3    9   19      1.33      0.00
    5    9   19      0.80      0.00
    7    9   19      0.94      0.00
    9    9   19     -0.24      0.00
   11    9   19     -0.46      0.00
   13    9   19     -0.13      0.00
   -8   10   19      0.83      0.00
   -6   10   19      0.02      0.00
   -4   10   19      0.39      0.00
   -2   10   19     -0.05      0.00
    0   10   19      0.82      0.00
    2   10   19      0.94      0.00
    4   10   19      1.41      0.00
    6   10   19      0.93      0.00
  -24    0   20      0.14      0.00
  -22    0   20      0.70      0.00
   20    0   20      0.22      0.00
   22    0   20      0.23      0.00
   24    0   20      0.00      0.00
  -25    1   20      0.51      0.00
  -23    1   20      0.73      0.00
   21    1   20     -0.05      0.00
   23    1   20     -0.69      0.00
  -24    2   20      0.97      0.00
  -22    2   20     -0.05      0.00
   20    2   20     -0.65      0.00
   22    2   20     -1.20      0.00
  -23    3   20     -0.16      0.00
  -21    3   20      0.32      0.00
   19    3   20      0.16      0.00
   21    3   20     -1.09      0.00
   23    3   20     -0.48      0.00
  -22    4   20      0.09      0.00
  -20    4   20     -0.36      0.00
   18    4   20      0.87      0.00
   20    4   20     -0.07      0.00
   22    4   20     -0.13      0.00
  -21    5   20      0.19      0.00
  -19    5   20      0.74      0.00
   17    5   20      0.33      0.00
   19    5   20      0.50      0.00
   21    5   20      0.06      0.00
  -20    6   20      0.52      0.00
  -18    6   20      0.05      0.00
  -16    6   20      1.23      0.00
   14    6   20     -1.39      0.00
   16    6   20     -0.01      0.00
   18    6   20     -0.22      0.00
  -17    7   20     -0.52      0.00
  -15    7   20      0.24      0.00
  -13    7   20     -0.03      0.00
   11    7   20     -0.45      0.00
   13    7   20     -0.11      0.00
   15    7   20     -0.30      0.00
   17    7   20     -0.12      0.00
  -16    8   20      0.08      0.00
  -14    8   20      0.08      0.00
  -12    8   20     -0.20      0.00
  -10    8   20     -0.96      0.00
   -8    8   20     -0.31      0.00
   -6    8   20     -1.46      0.00
    6    8   20     -0.71      0.00
    8    8   20     -1.63      0.00
   10    8   20     -0.14      0.00
   12    8   20     -0.30      0.00
   14    8   20     -0.02      0.00
  -11    9   20     -0.09      0.00
   -9    9   20     -0.15      0.00
   -7    9   20     -0.72      0.00
   -5    9   20     -0.15      0.00
   -3    9   20     -0.55      0.00
   -1    9   20      0.65      0.00
    1    9   20      0.28      0.00
    3    9   20      0.30      0.00
    5    9   20     -1.25      0.00
    7    9   20     -1.28      0.00
    9    9   20     -1.23      0.00
   -4   10   20     -1.23      0.00
   -2   10   20      0.48      0.00
    0   10   20      0.16      0.00
    2   10   20      0.61      0.00
  -23    1   21      0.48      0.00
  -21    1   21      1.26      0.00
   19    1   21      0.64      0.00
   21    1   21      0.41      0.00
   23    1   21      0.68      0.00
  -24    2   21      0.08      0.00
  -22    2   21      0.74      0.00
  -20    2   21      0.32      0.00
   18    2   21      0.50      0.00
   20    2   21     -0.25      0.00
   22    2   21      0.83      0.00
  -23    3   21     -0.60      0.00
  -21    3   21     -0.71      0.00
  -19    3   21     -0.23      0.00
   17    3   21      0.70      0.00
   19    3   21     -0.05      0.00
   21    3   21      0.05      0.00
  -22    4   21     -1.55      0.00
  -20    4   21     -0.48      0.00
  -18    4   21     -0.86      0.00
   16    4   21      0.94      0.00
   18    4   21      0.48      0.00
   20    4   21      0.17      0.00
  -21    5   21     -0.51      0.00
  -19    5   21     -0.55      0.00
  -17    5   21      0.50      0.00
   15    5   21      0.72      0.00
   17    5   21      0.20      0.00
   19    5   21      0.50      0.00
  -18    6   21      0.18      0.00
  -16    6   21      0.75      0.00
  -14    6   21      0.20      0.00
   12    6   21     -0.37      0.00
   14    6   21     -0.55      0.00
   16    6   21     -0.01      0.00
  -17    7   21     -0.12      0.00
  -15    7   21      0.21      0.00
  -13    7   21     -0.93      0.00
  -11    7   21     -0.48      0.00
   -9    7   21     -0.29      0.00
    7    7   21     -0.08      0.00
    9    7   21      0.83      0.00
   11    7   21     -0.53      0.00
   13    7   21      0.19      0.00
   15    7   21     -0.32      0.00
  -14    8   21     -0.36      0.00
  -12    8   21     -0.65      0.00
  -10    8   21     -0.63      0.00
   -8    8   21     -0.13      0.00
   -6    8   21      0.48      0.00
   -4    8   21     -0.15      0.00
   -2    8   21      0.25      0.00
    0    8   21     -1.10      0.00
    2    8   21     -0.13      0.00
    4    8   21     -0.54      0.00
    6    8   21      1.05      0.00
    8    8   21      0.28      0.00
   10    8   21      0.94      0.00
   12    8   21      0.25      0.00
   -9    9   21     -0.65      0.00
   -7    9   21      0.92      0.00
   -5    9   21     -0.49      0.00
   -3    9   21      0.81      0.00
   -1    9   21     -0.79      0.00
    1    9   21     -0.78      0.00
    3    9   21     -0.39      0.00
    5    9   21     -0.53      0.00
    7    9   21      0.39      0.00
  -22    0   22     -1.17      0.00
  -20    0   22     -1.16      0.00
  -18    0   22     -2.17      0.00
   18    0   22      0.02      0.00
   20    0   22     -0.40      0.00
  -23    1   22     -0.41      0.00
  -21    1   22     -0.51      0.00
  -19    1   22      0.24      0.00
   17    1   22      0.77      0.00
   19    1   22     -0.03      0.00
   21    1   22      0.50      0.00
  -22    2   22      0.72      0.00
  -20    2   22      0.98      0.00
  -18    2   22      1.83      0.00
   16    2   22      0.69      0.00
   18    2   22      0.31      0.00
   20    2   22      0.70      0.00
  -21    3   22      1.10      0.00
  -19    3   22      0.06      0.00
  -17    3   22      1.32      0.00
   15    3   22     -0.21      0.00
   17    3   22     -0.78      0.00
   19    3   22      0.24      0.00
  -20    4   22     -0.33      0.00
  -18    4   22     -0.32      0.00
  -16    4   22     -0.47      0.00
   14    4   22      0.25      0.00
   16    4   22     -0.71      0.00
   18    4   22     -0.32      0.00
  -19    5   22     -0.53      0.00
  -17    5   22     -0.37      0.00
  -15    5   22     -0.20      0.00
  -13    5   22     -0.57      0.00
   11    5   22      0.69      0.00
   13    5   22      0.51      0.00
   15    5   22      0.17      0.00
   17    5   22     -0.13      0.00
  -16    6   22      0.51      0.00
  -14    6   22     -0.48      0.00
  -12    6   22      1.08      0.00
  -10    6   22      0.33      0.00
    8    6   22      0.55      0.00
   10    6   22     -0.35      0.00
   12    6   22      0.88      0.00
   14    6   22     -0.15      0.00
   16    6   22      0.30      0.00
  -15    7   22     -0.08      0.00
  -13    7   22      0.01      0.00
  -11    7   22      0.30      0.00
   -9    7   22      0.97      0.00
   -7    7   22      0.41      0.00
   -5    7   22     -0.37      0.00
   -3    7   22      0.13      0.00
   -1    7   22     -0.86      0.00
    1    7   22      0.41      0.00
    3    7   22     -0.28      0.00
    5    7   22      1.25      0.00
    7    7   22     -0.38      0.00
    9    7   22      0.49      0.00
   11    7   22     -0.52      0.00
   13    7   22      0.01      0.00
  -10    8   22     -0.11      0.00
   -8    8   22      0.83      0.00
   -6    8   22     -0.92      0.00
   -4    8   22      0.09      0.00
   -2    8   22     -1.05      0.00
    0    8   22     -0.66      0.00
    2    8   22      0.25      0.00
    4    8   22      0.24      0.00
    6    8   22      1.23      0.00
    8    8   22      0.19      0.00
   -3    9   22     -0.59      0.00
   -1    9   22     -0.58      0.00
    1    9   22     -0.58      0.00
  -21    1   23     -1.58      0.00
  -19    1   23     -1.46      0.00
  -17    1   23     -2.49      0.00
   15    1   23      0.51      0.00
   17    1   23      0.08      0.00
   19    1   23      0.35      0.00
  -20    2   23     -1.41      0.00
  -18    2   23     -0.42      0.00
  -16    2   23     -1.17      0.00
   14    2   23      0.45      0.00
   16    2   23      0.03      0.00
   18    2   23      0.86      0.00
  -19    3   23      0.21      0.00
  -17    3   23      1.10      0.00
  -15    3   23      1.23      0.00
   13    3   23     -0.65      0.00
   15    3   23     -1.01      0.00
   17    3   23     -0.43      0.00
  -18    4   23      0.20      0.00
  -16    4   23      1.03      0.00
  -14    4   23      0.52      0.00
   12    4   23     -0.54      0.00
   14    4   23     -1.39      0.00
   16    4   23     -1.01      0.00
  -17    5   23     -0.21      0.00
  -15    5   23     -0.87      0.00
  -13    5   23      0.43      0.00
  -11    5   23     -0.69      0.00
    9    5   23      0.59      0.00
   11    5   23      1.16      0.00
   13    5   23     -0.26      0.00
   15    5   23      0.08      0.00
  -14    6   23     -0.01      0.00
  -12    6   23     -0.01      0.00
  -10    6   23      0.47      0.00
   -8    6   23     -0.66      0.00
   -6    6   23     -1.19      0.00
   -4    6   23     -0.63      0.00
    2    6   23     -0.30      0.00
    4    6   23      0.28      0.00
    6    6   23     -0.40      0.00
    8    6   23      1.14      0.00
   10    6   23      0.63      0.00
   12    6   23      0.94      0.00
  -11    7   23      0.96      0.00
   -9    7   23      0.81      0.00
   -7    7   23     -0.69      0.00
   -5    7   23     -0.03      0.00
   -3    7   23     -0.36      0.00
   -1    7   23      0.48      0.00
    1    7   23      0.49      0.00
    3    7   23     -0.32      0.00
    5    7   23     -0.13      0.00
    7    7   23     -0.47      0.00
    9    7   23      0.46      0.00
   -6    8   23     -0.13      0.00
   -4    8   23     -0.42      0.00
   -2    8   23      0.75      0.00
    0    8   23      0.36      0.00
    2    8   23      0.74      0.00
    4    8   23     -0.61      0.00
  -20    0   24      1.13      0.00
  -18    0   24      0.58      0.00
  -16    0   24      2.07      0.00
  -14    0   24      0.26      0.00
   12    0   24     -1.19      0.00
   14    0   24     -0.17      0.00
   16    0   24     -0.63      0.00
   18    0   24     -0.22      0.00
  -19    1   24      0.37      0.00
  -17    1   24     -0.10      0.00
  -15    1   24      0.80      0.00
   13    1   24     -1.11      0.00
   15    1   24     -0.91      0.00
   17    1   24     -0.17      0.00
  -18    2   24     -0.43      0.00
  -16    2   24     -1.41      0.00
  -14    2   24     -0.41      0.00
   12    2   24     -0.54      0.00
   14    2   24     -0.53      0.00
   16    2   24      0.18      0.00
  -17    3   24      0.21      0.00
  -15    3   24     -0.89      0.00
  -13    3   24      0.44      0.00
  -11    3   24     -0.99      0.00
   11    3   24      0.00      0.00
   13    3   24      0.01      0.00
   15    3   24      0.96      0.00
  -16    4   24      0.65      0.00
  -14    4   24      0.99      0.00
  -12    4   24      0.24      0.00
  -10    4   24      1.34      0.00
    8    4   24     -0.45      0.00
   10    4   24     -0.09      0.00
   12    4   24     -0.59      0.00
   14    4   24      0.06      0.00
  -15    5   24      0.35      0.00
  -13    5   24     -0.20      0.00
  -11    5   24      0.37      0.00
   -9    5   24     -0.39      0.00
   -7    5   24      0.01      0.00
   -5    5   24      0.28      0.00
   -3    5   24      0.00      0.00
   -1    5   24      0.46      0.00
    1    5   24      0.35      0.00
    3    5   24      0.11      0.00
    5    5   24      0.15      0.00
    7    5   24      0.22      0.00
    9    5   24      0.11      0.00
   11    5   24     -0.18      0.00
   13    5   24     -0.21      0.00
  -12    6   24     -0.76      0.00
  -10    6   24     -1.09      0.00
   -8    6   24     -0.82      0.00
   -6    6   24     -0.03      0.00
   -4    6   24     -0.01      0.00
   -2    6   24      0.46      0.00
    0    6   24      0.07      0.00
    2    6   24      0.31      0.00
    4    6   24     -0.03      0.00
    6    6   24      0.20      0.00
    8    6   24      0.73      0.00
   10    6   24      0.14      0.00
   -7    7   24      0.09      0.00
   -5    7   24      0.08      0.00
   -3    7   24      0.86      0.00
   -1    7   24     -0.19      0.00
    1    7   24      0.43      0.00
    3    7   24     -0.82      0.00
    5    7   24      0.24      0.00
    7    7   24     -0.54      0.00
  -17    1   25      0.31      0.00
  -15    1   25      1.36      0.00
  -13    1   25      0.33      0.00
  -11    1   25      1.26      0.00
    9    1   25      0.73      0.00
   11    1   25      1.17      0.00
   13    1   25     -0.19      0.00
   15    1   25     -0.23      0.00
  -16    2   25     -0.41      0.00
  -14    2   25      0.83      0.00
  -12    2   25     -0.07      0.00
  -10    2   25      1.00      0.00
    8    2   25      0.76      0.00
   10    2   25      0.37      0.00
   12    2   25      0.22      0.00
   14    2   25      0.06      0.00
  -15    3   25     -1.28      0.00
  -13    3   25     -0.94      0.00
  -11    3   25     -0.27      0.00
   -9    3   25     -0.83      0.00
   -7    3   25      0.23      0.00
    5    3   25     -0.57      0.00
    7    3   25     -0.01      0.00
    9    3   25      0.52      0.00
   11    3   25      0.52      0.00
   13    3   25      0.95      0.00
  -14    4   25     -1.10      0.00
  -12    4   25      0.05      0.00
  -10    4   25     -0.60      0.00
   -8    4   25      0.26      0.00
   -6    4   25      0.49      0.00
   -4    4   25      0.15      0.00
   -2    4   25     -0.21      0.00
    0    4   25     -0.24      0.00
    2    4   25     -0.90      0.00
    4    4   25     -0.20      0.00
    6    4   25     -0.86      0.00
    8    4   25     -0.33      0.00
   10    4   25     -0.37      0.00
   12    4   25      0.66      0.00
  -11    5   25      0.34      0.00
   -9    5   25      0.98      0.00
   -7    5   25      0.84      0.00
   -5    5   25      0.87      0.00
   -3    5   25      0.17      0.00
   -1    5   25     -0.82      0.00
    1    5   25     -0.12      0.00
    3    5   25     -0.80      0.00
    5    5   25     -0.34      0.00
    7    5   25     -0.90      0.00
    9    5   25     -1.36      0.00
   -8    6   25      0.64      0.00
   -6    6   25      0.58      0.00
   -4    6   25      0.57      0.00
   -2    6   25     -0.80      0.00
    0    6   25     -0.22      0.00
    2    6   25     -0.29      0.00
    4    6   25      0.45      0.00
    6    6   25     -0.41      0.00
  -14    0   26     -0.64      0.00
  -12    0   26      0.69      0.00
  -10    0   26      0.05      0.00
   -8    0   26      0.28      0.00
   -6    0   26     -0.03      0.00
   -4    0   26      0.80      0.00
    0    0   26     -0.32      0.00
    2    0   26     -0.94      0.00
    4    0   26     -1.18      0.00
    6    0   26     -0.40      0.00
    8    0   26     -0.81      0.00
   10    0   26      0.09      0.00
   12    0   26     -0.59      0.00
  -15    1   26      0.19      0.00
  -13    1   26     -0.24      0.00
  -11    1   26      0.42      0.00
   -9    1   26     -0.24      0.00
   -7    1   26     -0.32      0.00
   -5    1   26      0.21      0.00
   -3    1   26      0.71      0.00
   -1    1   26      0.54      0.00
    1    1   26     -0.12      0.00
    3    1   26      0.01      0.00
    5    1   26      0.01      0.00
    7    1   26      0.90      0.00
    9    1   26      0.26      0.00
   11    1   26      0.42      0.00
   13    1   26      0.22      0.00
  -14    2   26      0.60      0.00
  -12    2   26      0.15      0.00
  -10    2   26     -0.15      0.00
   -8    2   26     -0.20      0.00
   -6    2   26     -0.58      0.00
   -4    2   26      0.19      0.00
   -2    2   26      0.04      0.00
    0    2   26      0.18      0.00
    2    2   26      0.37      0.00
    4    2   26      0.81      0.00
    6    2   26      1.21      0.00
    8    2   26      1.42      0.00
   10    2   26      0.55      0.00
   12    2   26      0.50      0.00
  -13    3   26      0.60      0.00
  -11    3   26     -0.63      0.00
   -9    3   26     -0.21      0.00
   -7    3   26     -0.34      0.00
   -5    3   26     -0.34      0.00
   -3    3   26     -0.27      0.00
   -1    3   26      0.01      0.00
    1    3   26     -0.34      0.00
    3    3   26      0.69      0.00
    5    3   26      0.81      0.00
    7    3   26      1.03      0.00
    9    3   26      0.69      0.00
   11    3   26      0.62      0.00
  -10    4   26     -0.19      0.00
   -8    4   26     -0.63      0.00
   -6    4   26      0.29      0.00
   -4    4   26      0.03      0.00
   -2    4   26     -0.06      0.00
    0    4   26      0.43      0.00
    2    4   26     -0.11      0.00
    4    4   26      0.85      0.00
    6    4   26      0.53      0.00
    8    4   26      0.37      0.00
   -7    5   26      0.33      0.00
   -5    5   26      0.64      0.00
   -3    5   26      0.14      0.00
   -1    5   26      0.15      0.00
    1    5   26      0.23      0.00
    3    5   26     -0.13      0.00
    5    5   26      0.01      0.00
  -11    1   27      0.01      0.00
   -9    1   27      0.18      0.00
   -7    1   27      0.43      0.00
   -5    1   27      0.51      0.00
   -3    1   27      0.05      0.00
   -1    1   27      0.26      0.00
    1    1   27     -0.18      0.00
    3    1   27     -0.17      0.00
    5    1   27     -0.84      0.00
    7    1   27     -0.61      0.00
    9    1   27     -1.10      0.00
  -10    2   27     -0.06      0.00
   -8    2   27      0.08      0.00
   -6    2   27      0.25      0.00
   -4    2   27      0.21      0.00
   -2    2   27      0.34      0.00
    0    2   27      0.07      0.00
    2    2   27      0.15      0.00
    4    2   27     -0.10      0.00
    6    2   27     -0.89      0.00
    8    2   27     -0.60      0.00
   -9    3   27     -0.44      0.00
   -7    3   27      0.18      0.00
   -5    3   27     -0.35      0.00
   -3    3   27     -0.05      0.00
   -1    3   27     -0.01      0.00
    1    3   27     -0.23      0.00
    3    3   27      0.00      0.00
    5    3   27     -0.31      0.00
    7    3   27     -0.52      0.00
   -6    4   27     -0.48      0.00
   -4    4   27     -0.43      0.00
   -2    4   27     -0.28      0.00
    0    4   27      0.30      0.00
    2    4   27     -0.39      0.00
    4    4   27      0.50      0.00
    0    0    0      0.00      0.00
# SQUEEZE RESULTS (Version =  31017)
# Note: Data are Listed for all Voids in the P1 Unit Cell
# i.e. Centre of Gravity, Solvent Accessible Volume,
# Recovered number of Electrons in the Void and
# Details about the Squeezed Material
loop_
  _platon_squeeze_void_nr
  _platon_squeeze_void_average_x
  _platon_squeeze_void_average_y
  _platon_squeeze_void_average_z
  _platon_squeeze_void_volume
  _platon_squeeze_void_count_electrons
  _platon_squeeze_void_content
   1  0.000  0.002  0.250       177        17 ' '
   2  0.000 -0.002  0.750       177        17 ' '
   3  0.500  0.129  0.250        15         2 ' '
   4  0.250  0.250  0.500        52        14 ' '
   5  0.750  0.250  0.000        52        14 ' '
   6  0.500  0.498  0.750       177        17 ' '
   7  0.500  0.505  0.250       175        17 ' '
   8  0.000  0.379  0.750        14         2 ' '
   9  0.000  0.621  0.250        14         2 ' '
  10  0.250  0.750  0.000        52        14 ' '
  11  0.750  0.750  0.500        52        14 ' '
  12  0.500  0.879  0.750        14         2 ' '
# Missing Reflections Below sin(th)/lambda = 0.25
loop_
  _platon_missing_refln_index_h
  _platon_missing_refln_index_k
  _platon_missing_refln_index_l
  _platon_missing_refln_theta
    2    0   10     9.517
_platon_squeeze_void_probe_radius                  1.20
_platon_squeeze_details
)
TITL 1 in C2/c
CELL   26.9949   10.8305   21.8868     90.00     91.72     90.00
SPGR C2/c
# Solvent Accessible Volume =       965
# Electrons Found in S.A.V. =       132
# Note: Atoms in Void are Labelled as Cxxx and Qxxx for all Others
C101 0.742 0.154-0.003 !       2.12 eA-3
Q102 0.211 0.197 0.469 !       1.18 eA-3
Q103 0.582 0.485 0.291 !       1.00 eA-3
Q104 0.081 0.075 0.780 !       0.95 eA-3
Q105 0.500 0.188 0.251 !       0.80 eA-3
Q106 0.590 0.282 0.267 !       0.79 eA-3
Q107 0.519 0.282 0.304 !       0.74 eA-3
Q108 0.040 0.185 0.738 !       0.60 eA-3
Q109 0.431 0.328 0.188 !       0.58 eA-3
Q110 0.350 0.328 0.399 !       0.54 eA-3
)
;
_shelx_fab_checksum              57621
loop_
_space_group_symop_operation_xyz
'x, y, z'
'-x, y, -z+1/2'
'x+1/2, y+1/2, z'
'-x+1/2, y+1/2, -z+1/2'
'-x, -y, -z'
'x, -y, z-1/2'
'-x+1/2, -y+1/2, -z'
'x+1/2, -y+1/2, z-1/2'
loop_
_atom_site_label
_atom_site_type_symbol
_atom_site_fract_x
_atom_site_fract_y
_atom_site_fract_z
_atom_site_U_iso_or_equiv
_atom_site_adp_type
_atom_site_occupancy
_atom_site_site_symmetry_order
_atom_site_calc_flag
_atom_site_refinement_flags_posn
_atom_site_refinement_flags_adp
_atom_site_refinement_flags_occupancy
_atom_site_disorder_assembly
_atom_site_disorder_group
Zn1 Zn 0.22764(2) 0.88015(3) 0.19632(2) 0.03138(14) Uani 1 1 d . . . . .
N3 N 0.18680(8) 1.1848(2) 0.09152(9) 0.0312(5) Uani 1 1 d . . . . .
O3 O 0.17859(8) 0.74656(19) 0.18479(9) 0.0443(5) Uani 1 1 d . . . . .
N4 N 0.19417(8) 1.1769(2) -0.01365(10) 0.0311(5) Uani 1 1 d . . . . .
N2 N 0.20200(8) 1.0383(2) 0.15898(10) 0.0345(5) Uani 1 1 d . . . . .
C24 C 0.18228(9) 1.2453(2) 0.03375(11) 0.0313(6) Uani 1 1 d . . . . .
C23 C 0.20036(10) 1.0657(3) 0.10020(12) 0.0337(6) Uani 1 1 d . . . . .
H23 H 0.207538 1.010696 0.069050 0.040 Uiso 1 1 calc R U . . .
C19 C 0.12403(10) 0.6342(2) 0.11972(14) 0.0352(6) Uani 1 1 d . . . . .
C22 C 0.17936(11) 1.2353(3) 0.14850(12) 0.0418(7) Uani 1 1 d . . . . .
H22 H 0.169753 1.315757 0.157096 0.050 Uiso 1 1 calc R U . . .
C11 C -0.02977(11) 0.3634(3) 0.11239(16) 0.0429(7) Uani 1 1 d . . . . .
C14 C 0.09747(12) 0.6287(3) 0.06442(15) 0.0441(7) Uani 1 1 d . . . . .
H14 H 0.103796 0.685713 0.033869 0.053 Uiso 1 1 calc R U . . .
C28 C 0.19062(10) 1.2310(2) -0.06797(12) 0.0326(6) Uani 1 1 d . . . . .
C18 C 0.11426(10) 0.5482(3) 0.16500(13) 0.0378(6) Uani 1 1 d . . . . .
H18 H 0.131391 0.551704 0.202464 0.045 Uiso 1 1 calc R U . . .
N1 N 0.01673(9) 0.3564(3) 0.08674(15) 0.0535(8) Uani 1 1 d . . . . .
C25 C 0.16724(12) 1.3669(3) 0.03051(14) 0.0441(7) Uani 1 1 d . . . . .
H25 H 0.159542 1.411421 0.065309 0.053 Uiso 1 1 calc R U . . .
C21 C 0.18886(11) 1.1444(3) 0.18892(13) 0.0407(7) Uani 1 1 d . . . . .
H21 H 0.186842 1.152182 0.231090 0.049 Uiso 1 1 calc R U . . .
O4 O 0.18032(11) 0.7864(3) 0.08571(11) 0.0760(8) Uani 1 1 d . . . . .
C16 C 0.05268(10) 0.4518(3) 0.09877(15) 0.0431(7) Uani 1 1 d . . . . .
C20 C 0.16342(11) 0.7302(3) 0.13004(14) 0.0410(7) Uani 1 1 d . . . . .
C27 C 0.17584(13) 1.3518(3) -0.07752(14) 0.0480(8) Uani 1 1 d . . . . .
H27 H 0.173886 1.385841 -0.116527 0.058 Uiso 1 1 calc R U . . .
C15 C 0.06163(11) 0.5387(3) 0.05448(15) 0.0474(8) Uani 1 1 d . . . . .
H15 H 0.043501 0.537001 0.017677 0.057 Uiso 1 1 calc R U . . .
C17 C 0.07892(11) 0.4573(3) 0.15417(15) 0.0449(7) Uani 1 1 d . . . . .
H17 H 0.072758 0.399325 0.184367 0.054 Uiso 1 1 calc R U . . .
C12 C -0.06499(12) 0.2694(3) 0.10317(17) 0.0542(9) Uani 1 1 d . . . . .
H12 H -0.056771 0.199110 0.081242 0.065 Uiso 1 1 calc R U . . .
C26 C 0.16419(14) 1.4192(3) -0.02687(15) 0.0546(9) Uani 1 1 d . . . . .
H26 H 0.154133 1.500921 -0.031301 0.066 Uiso 1 1 calc R U . . .
C10 C -0.04344(11) 0.4682(3) 0.14547(15) 0.0450(7) Uani 1 1 d . . . . .
H10 H -0.020781 0.531821 0.152034 0.054 Uiso 1 1 calc R U . . .
C6 C 0.03598(12) 0.2410(4) 0.0645(2) 0.0658(11) Uani 1 1 d . . . . .
C2 C 0.0647(3) 0.1160(8) -0.0190(4) 0.135(3) Uani 1 1 d . . . . .
H2 H 0.069961 0.104577 -0.060392 0.162 Uiso 1 1 calc R U . . .
C4 C 0.0701(2) 0.0374(6) 0.0805(4) 0.125(2) Uani 1 1 d . U . . .
H4 H 0.079190 -0.027505 0.106370 0.150 Uiso 1 1 calc R U . . .
C5 C 0.04883(19) 0.1482(5) 0.1048(3) 0.1048(19) Uani 1 1 d . . . . .
H5 H 0.043922 0.156823 0.146417 0.126 Uiso 1 1 calc R U . . .
C1 C 0.04351(19) 0.2276(5) 0.0031(3) 0.0994(17) Uani 1 1 d . . . . .
H1 H 0.034882 0.290843 -0.023938 0.119 Uiso 1 1 calc R U . . .
N5 N 0.20465(8) 1.1566(2) -0.11833(10) 0.0338(5) Uani 1 1 d . . . . .
C9 C -0.09050(11) 0.4773(3) 0.16840(14) 0.0421(7) Uani 1 1 d . . . . .
H9 H -0.098958 0.547509 0.190217 0.051 Uiso 1 1 calc R U . . .
C31 C 0.22509(12) 1.0394(3) -0.11514(13) 0.0434(7) Uani 1 1 d . . . . .
H31 H 0.230548 0.991978 -0.080158 0.052 Uiso 1 1 calc R U . . .
C29 C 0.20304(10) 1.1894(3) -0.17760(12) 0.0347(6) Uani 1 1 d . . . . .
H29 H 0.190586 1.264145 -0.192295 0.042 Uiso 1 1 calc R U . . .
C3 C 0.0765(2) 0.0292(7) 0.0216(4) 0.124(2) Uani 1 1 d . U . . .
H3 H 0.090444 -0.043244 0.007043 0.148 Uiso 1 1 calc R U . . .
N6 N 0.22134(9) 1.1022(2) -0.21210(10) 0.0364(5) Uani 1 1 d . . . . .
C8 C -0.12557(10) 0.3840(3) 0.15965(14) 0.0376(7) Uani 1 1 d . . . . .
C7 C -0.17679(10) 0.4015(3) 0.18202(13) 0.0367(6) Uani 1 1 d . . . . .
C30 C 0.23543(12) 1.0080(3) -0.17274(13) 0.0443(7) Uani 1 1 d . . . . .
H30 H 0.249891 0.934053 -0.184374 0.053 Uiso 1 1 calc R U . . .
C13 C -0.11184(11) 0.2804(3) 0.12649(17) 0.0508(8) Uani 1 1 d . . . . .
H13 H -0.134700 0.217249 0.119862 0.061 Uiso 1 1 calc R U . . .
O2 O -0.18801(7) 0.4990(2) 0.20810(10) 0.0463(5) Uani 1 1 d . . . . .
O1 O -0.20816(7) 0.3151(2) 0.17191(10) 0.0474(5) Uani 1 1 d . . . . .
O1W O 0.0860(11) 0.798(3) 0.2635(14) 0.095(5) Uani 0.125 1 d . U P A 1
O2W O 0.0429(13) 0.800(3) 0.2634(16) 0.106(5) Uani 0.125 1 d . U P B 2
O3W O 0.0808(11) 0.920(3) 0.2778(14) 0.097(5) Uani 0.125 1 d . U P C 3
O4W O 0.0704(13) 0.837(3) 0.2942(17) 0.104(5) Uani 0.125 1 d . U P D 4
loop_
_atom_site_aniso_label
_atom_site_aniso_U_11
_atom_site_aniso_U_22
_atom_site_aniso_U_33
_atom_site_aniso_U_23
_atom_site_aniso_U_13
_atom_site_aniso_U_12
Zn1 0.0359(2) 0.0323(2) 0.0259(2) 0.00318(12) 0.00014(13) -0.00491(12)
N3 0.0370(12) 0.0328(12) 0.0239(11) 0.0017(9) 0.0024(9) 0.0052(10)
O3 0.0463(12) 0.0458(12) 0.0404(12) -0.0023(9) -0.0063(9) -0.0137(9)
N4 0.0349(12) 0.0319(12) 0.0268(11) 0.0014(10) 0.0024(9) 0.0031(10)
N2 0.0394(12) 0.0378(13) 0.0260(11) 0.0021(10) -0.0013(9) -0.0002(10)
C24 0.0333(13) 0.0356(14) 0.0250(13) 0.0028(11) 0.0032(10) 0.0034(11)
C23 0.0433(15) 0.0322(15) 0.0255(14) 0.0009(11) 0.0015(11) 0.0027(12)
C19 0.0321(14) 0.0340(15) 0.0395(16) -0.0057(12) 0.0002(12) 0.0014(11)
C22 0.0541(18) 0.0415(17) 0.0299(15) -0.0039(12) 0.0038(13) 0.0106(14)
C11 0.0302(14) 0.0454(18) 0.0529(19) -0.0082(14) -0.0018(13) -0.0043(12)
C14 0.0492(18) 0.0401(17) 0.0424(18) -0.0004(13) -0.0068(14) 0.0008(13)
C28 0.0371(14) 0.0346(15) 0.0264(13) 0.0011(11) 0.0050(11) 0.0048(11)
C18 0.0355(14) 0.0403(16) 0.0376(16) -0.0048(13) -0.0003(12) -0.0027(12)
N1 0.0332(13) 0.0501(16) 0.078(2) -0.0288(14) 0.0070(13) -0.0082(11)
C25 0.062(2) 0.0390(17) 0.0322(16) 0.0000(12) 0.0093(14) 0.0162(14)
C21 0.0535(18) 0.0441(17) 0.0244(14) -0.0010(12) 0.0002(12) 0.0076(14)
O4 0.104(2) 0.0720(17) 0.0519(15) 0.0044(13) 0.0016(14) -0.0459(16)
C16 0.0264(13) 0.0475(18) 0.0554(19) -0.0169(15) 0.0048(13) -0.0040(12)
C20 0.0423(16) 0.0375(16) 0.0434(18) -0.0027(13) 0.0022(13) -0.0050(13)
C27 0.072(2) 0.0429(17) 0.0302(16) 0.0106(13) 0.0108(15) 0.0157(15)
C15 0.0393(16) 0.054(2) 0.0480(18) -0.0124(15) -0.0135(13) 0.0038(14)
C17 0.0407(16) 0.0453(18) 0.0490(18) -0.0020(14) 0.0089(13) -0.0082(13)
C12 0.0399(17) 0.0476(19) 0.075(2) -0.0228(17) 0.0018(15) -0.0072(14)
C26 0.088(3) 0.0365(17) 0.0400(18) 0.0064(14) 0.0137(17) 0.0250(17)
C10 0.0365(15) 0.0416(17) 0.0569(19) -0.0106(14) 0.0009(13) -0.0101(13)
C6 0.0310(16) 0.056(2) 0.111(3) -0.037(2) 0.0038(18) -0.0072(15)
C2 0.111(5) 0.146(7) 0.149(7) -0.092(6) 0.027(5) -0.014(4)
C4 0.097(4) 0.079(4) 0.199(6) -0.012(4) -0.017(4) 0.009(3)
C5 0.079(3) 0.067(3) 0.168(6) -0.025(4) -0.001(3) 0.001(3)
C1 0.092(3) 0.098(4) 0.109(4) -0.058(3) 0.016(3) -0.004(3)
N5 0.0433(13) 0.0325(12) 0.0258(12) 0.0013(9) 0.0046(10) 0.0050(10)
C9 0.0396(15) 0.0413(17) 0.0456(17) -0.0061(13) 0.0035(13) -0.0022(13)
C31 0.0653(19) 0.0351(16) 0.0294(15) 0.0022(12) -0.0036(13) 0.0114(14)
C29 0.0403(15) 0.0368(16) 0.0270(14) 0.0013(11) 0.0006(11) 0.0081(12)
C3 0.088(4) 0.104(5) 0.178(7) -0.060(5) 0.004(4) -0.001(3)
N6 0.0457(13) 0.0376(13) 0.0258(12) -0.0018(10) -0.0020(10) 0.0081(10)
C8 0.0324(14) 0.0411(17) 0.0393(16) 0.0034(12) -0.0013(12) -0.0029(12)
C7 0.0353(15) 0.0418(16) 0.0328(15) 0.0101(13) -0.0017(12) -0.0019(13)
C30 0.0621(19) 0.0365(16) 0.0340(15) -0.0028(13) -0.0049(13) 0.0161(14)
C13 0.0374(16) 0.0464(18) 0.068(2) -0.0096(16) 0.0012(15) -0.0111(14)
O2 0.0411(11) 0.0522(13) 0.0457(12) 0.0001(10) 0.0062(9) -0.0012(10)
O1 0.0357(11) 0.0459(13) 0.0607(14) -0.0014(10) 0.0047(10) -0.0061(9)
O1W 0.100(9) 0.077(8) 0.108(10) -0.012(8) 0.017(8) -0.005(8)
O2W 0.112(9) 0.084(8) 0.122(10) -0.008(8) 0.002(8) -0.004(8)
O3W 0.104(9) 0.073(8) 0.114(10) -0.011(8) 0.007(8) -0.002(8)
O4W 0.111(9) 0.082(9) 0.118(10) -0.012(8) 0.005(8) -0.007(8)
loop_
_atom_type_symbol
_atom_type_description
_atom_type_scat_dispersion_real
_atom_type_scat_dispersion_imag
_atom_type_scat_source
C C 0.0033 0.0016 'International Tables Vol C Tables 4.2.6.8 and 6.1.1.4'
H H 0.0000 0.0000 'International Tables Vol C Tables 4.2.6.8 and 6.1.1.4'
N N 0.0061 0.0033 'International Tables Vol C Tables 4.2.6.8 and 6.1.1.4'
O O 0.0106 0.0060 'International Tables Vol C Tables 4.2.6.8 and 6.1.1.4'
Zn Zn 0.2839 1.4301 'International Tables Vol C Tables 4.2.6.8 and 6.1.1.4'
loop_
_geom_angle_atom_site_label_1
_geom_angle_atom_site_label_2
_geom_angle_atom_site_label_3
_geom_angle
_geom_angle_site_symmetry_1
_geom_angle_site_symmetry_3
O1 Zn1 O3 107.28(9) 3 .
O1 Zn1 N2 119.45(9) 3 .
O3 Zn1 N2 110.57(9) . .
O1 Zn1 N6 113.88(10) 3 6_576
O3 Zn1 N6 96.87(9) . 6_576
N2 Zn1 N6 106.48(9) . 6_576
C23 N3 C22 107.3(2) . .
C23 N3 C24 125.3(2) . .
C22 N3 C24 127.4(2) . .
C20 O3 Zn1 114.85(18) . .
C24 N4 C28 116.3(2) . .
C23 N2 C21 106.0(2) . .
C23 N2 Zn1 126.04(19) . .
C21 N2 Zn1 127.49(18) . .
N4 C24 C25 124.9(2) . .
N4 C24 N3 115.0(2) . .
C25 C24 N3 120.1(2) . .
N2 C23 N3 110.6(2) . .
N2 C23 H23 124.7 . .
N3 C23 H23 124.7 . .
C14 C19 C18 119.2(3) . .
C14 C19 C20 120.4(3) . .
C18 C19 C20 120.4(3) . .
C21 C22 N3 105.9(2) . .
C21 C22 H22 127.0 . .
N3 C22 H22 127.0 . .
N1 C11 C10 120.5(3) . .
N1 C11 C12 121.2(3) . .
C10 C11 C12 118.3(3) . .
C15 C14 C19 120.4(3) . .
C15 C14 H14 119.8 . .
C19 C14 H14 119.8 . .
N4 C28 C27 124.5(2) . .
N4 C28 N5 115.5(2) . .
C27 C28 N5 120.0(2) . .
C17 C18 C19 119.9(3) . .
C17 C18 H18 120.1 . .
C19 C18 H18 120.1 . .
C11 N1 C16 119.9(2) . .
C11 N1 C6 121.4(3) . .
C16 N1 C6 115.9(2) . .
C26 C25 C24 116.7(3) . .
C26 C25 H25 121.7 . .
C24 C25 H25 121.7 . .
C22 C21 N2 110.2(2) . .
C22 C21 H21 124.9 . .
N2 C21 H21 124.9 . .
C15 C16 C17 119.3(3) . .
C15 C16 N1 119.6(3) . .
C17 C16 N1 121.0(3) . .
O4 C20 O3 123.6(3) . .
O4 C20 C19 119.8(3) . .
O3 C20 C19 116.6(3) . .
C26 C27 C28 117.0(3) . .
C26 C27 H27 121.5 . .
C28 C27 H27 121.5 . .
C16 C15 C14 120.4(3) . .
C16 C15 H15 119.8 . .
C14 C15 H15 119.8 . .
C18 C17 C16 120.7(3) . .
C18 C17 H17 119.6 . .
C16 C17 H17 119.6 . .
C13 C12 C11 120.5(3) . .
C13 C12 H12 119.8 . .
C11 C12 H12 119.8 . .
C27 C26 C25 120.6(3) . .
C27 C26 H26 119.7 . .
C25 C26 H26 119.7 . .
C9 C10 C11 120.3(3) . .
C9 C10 H10 119.9 . .
C11 C10 H10 119.9 . .
C1 C6 C5 120.5(4) . .
C1 C6 N1 119.2(4) . .
C5 C6 N1 120.2(4) . .
C3 C2 C1 117.7(7) . .
C3 C2 H2 121.1 . .
C1 C2 H2 121.1 . .
C3 C4 C5 119.0(7) . .
C3 C4 H4 120.5 . .
C5 C4 H4 120.5 . .
C6 C5 C4 118.0(6) . .
C6 C5 H5 121.0 . .
C4 C5 H5 121.0 . .
C6 C1 C2 119.6(7) . .
C6 C1 H1 120.2 . .
C2 C1 H1 120.2 . .
C29 N5 C31 107.0(2) . .
C29 N5 C28 126.5(2) . .
C31 N5 C28 126.4(2) . .
C10 C9 C8 121.7(3) . .
C10 C9 H9 119.1 . .
C8 C9 H9 119.1 . .
C30 C31 N5 106.2(2) . .
C30 C31 H31 126.9 . .
N5 C31 H31 126.9 . .
N6 C29 N5 111.2(2) . .
N6 C29 H29 124.4 . .
N5 C29 H29 124.4 . .
C4 C3 C2 125.1(7) . .
C4 C3 H3 117.4 . .
C2 C3 H3 117.4 . .
C29 N6 C30 105.9(2) . .
C29 N6 Zn1 123.02(19) . 6_575
C30 N6 Zn1 131.05(18) . 6_575
C13 C8 C9 117.7(3) . .
C13 C8 C7 122.5(3) . .
C9 C8 C7 119.7(3) . .
O2 C7 O1 122.2(3) . .
O2 C7 C8 120.0(3) . .
O1 C7 C8 117.8(3) . .
C31 C30 N6 109.7(3) . .
C31 C30 H30 125.1 . .
N6 C30 H30 125.1 . .
C12 C13 C8 121.5(3) . .
C12 C13 H13 119.2 . .
C8 C13 H13 119.2 . .
C7 O1 Zn1 106.05(18) . 3_445
loop_
_geom_bond_atom_site_label_1
_geom_bond_atom_site_label_2
_geom_bond_distance
_geom_bond_site_symmetry_2
Zn1 O1 1.960(2) 3
Zn1 O3 1.972(2) .
Zn1 N2 2.012(2) .
Zn1 N6 2.026(2) 6_576
N3 C23 1.353(4) .
N3 C22 1.382(3) .
N3 C24 1.426(3) .
O3 C20 1.267(4) .
N4 C24 1.322(3) .
N4 C28 1.326(3) .
N2 C23 1.320(3) .
N2 C21 1.375(4) .
C24 C25 1.380(4) .
C23 H23 0.9300 .
C19 C14 1.389(4) .
C19 C18 1.391(4) .
C19 C20 1.499(4) .
C22 C21 1.343(4) .
C22 H22 0.9300 .
C11 N1 1.392(4) .
C11 C10 1.401(4) .
C11 C12 1.404(4) .
C14 C15 1.386(4) .
C14 H14 0.9300 .
C28 C27 1.382(4) .
C28 N5 1.426(3) .
C18 C17 1.387(4) .
C18 H18 0.9300 .
N1 C16 1.436(4) .
N1 C6 1.443(4) .
C25 C26 1.378(4) .
C25 H25 0.9300 .
C21 H21 0.9300 .
O4 C20 1.244(4) .
C16 C15 1.378(5) .
C16 C17 1.387(4) .
C27 C26 1.372(4) .
C27 H27 0.9300 .
C15 H15 0.9300 .
C17 H17 0.9300 .
C12 C13 1.383(4) .
C12 H12 0.9300 .
C26 H26 0.9300 .
C10 C9 1.383(4) .
C10 H10 0.9300 .
C6 C1 1.373(6) .
C6 C5 1.374(7) .
C2 C3 1.326(10) .
C2 C1 1.428(8) .
C2 H2 0.9300 .
C4 C3 1.310(10) .
C4 C5 1.439(8) .
C4 H4 0.9300 .
C5 H5 0.9300 .
C1 H1 0.9300 .
N5 C29 1.345(3) .
N5 C31 1.385(4) .
C9 C8 1.394(4) .
C9 H9 0.9300 .
C31 C30 1.343(4) .
C31 H31 0.9300 .
C29 N6 1.314(3) .
C29 H29 0.9300 .
C3 H3 0.9300 .
N6 C30 1.381(4) .
C8 C13 1.392(4) .
C8 C7 1.493(4) .
C7 O2 1.242(4) .
C7 O1 1.277(3) .
C30 H30 0.9300 .
C13 H13 0.9300 .
loop_
_geom_torsion_atom_site_label_1
_geom_torsion_atom_site_label_2
_geom_torsion_atom_site_label_3
_geom_torsion_atom_site_label_4
_geom_torsion
_geom_torsion_site_symmetry_1
_geom_torsion_site_symmetry_4
C28 N4 C24 C25 -0.7(4) . .
C28 N4 C24 N3 -179.6(2) . .
C23 N3 C24 N4 -2.2(4) . .
C22 N3 C24 N4 176.4(2) . .
C23 N3 C24 C25 178.8(3) . .
C22 N3 C24 C25 -2.5(4) . .
C21 N2 C23 N3 0.1(3) . .
Zn1 N2 C23 N3 -172.41(17) . .
C22 N3 C23 N2 -0.1(3) . .
C24 N3 C23 N2 178.7(2) . .
C23 N3 C22 C21 0.1(3) . .
C24 N3 C22 C21 -178.7(3) . .
C18 C19 C14 C15 0.1(4) . .
C20 C19 C14 C15 178.9(3) . .
C24 N4 C28 C27 0.4(4) . .
C24 N4 C28 N5 178.7(2) . .
C14 C19 C18 C17 1.0(4) . .
C20 C19 C18 C17 -177.8(3) . .
C10 C11 N1 C16 5.7(5) . .
C12 C11 N1 C16 -177.7(3) . .
C10 C11 N1 C6 166.1(4) . .
C12 C11 N1 C6 -17.3(6) . .
N4 C24 C25 C26 0.6(5) . .
N3 C24 C25 C26 179.5(3) . .
N3 C22 C21 N2 -0.1(3) . .
C23 N2 C21 C22 0.0(3) . .
Zn1 N2 C21 C22 172.3(2) . .
C11 N1 C16 C15 -103.7(4) . .
C6 N1 C16 C15 94.8(4) . .
C11 N1 C16 C17 76.8(4) . .
C6 N1 C16 C17 -84.6(4) . .
Zn1 O3 C20 O4 5.3(4) . .
Zn1 O3 C20 C19 -176.74(18) . .
C14 C19 C20 O4 -16.3(4) . .
C18 C19 C20 O4 162.5(3) . .
C14 C19 C20 O3 165.6(3) . .
C18 C19 C20 O3 -15.5(4) . .
N4 C28 C27 C26 0.0(5) . .
N5 C28 C27 C26 -178.2(3) . .
C17 C16 C15 C14 1.8(4) . .
N1 C16 C15 C14 -177.6(3) . .
C19 C14 C15 C16 -1.6(5) . .
C19 C18 C17 C16 -0.7(4) . .
C15 C16 C17 C18 -0.7(4) . .
N1 C16 C17 C18 178.7(3) . .
N1 C11 C12 C13 -176.9(3) . .
C10 C11 C12 C13 -0.2(5) . .
C28 C27 C26 C25 -0.1(6) . .
C24 C25 C26 C27 -0.1(5) . .
N1 C11 C10 C9 176.9(3) . .
C12 C11 C10 C9 0.2(5) . .
C11 N1 C6 C1 114.4(4) . .
C16 N1 C6 C1 -84.4(4) . .
C11 N1 C6 C5 -68.7(5) . .
C16 N1 C6 C5 92.4(4) . .
C1 C6 C5 C4 -0.2(7) . .
N1 C6 C5 C4 -177.0(4) . .
C3 C4 C5 C6 0.2(8) . .
C5 C6 C1 C2 0.3(7) . .
N1 C6 C1 C2 177.1(4) . .
C3 C2 C1 C6 -0.3(9) . .
N4 C28 N5 C29 178.1(3) . .
C27 C28 N5 C29 -3.5(4) . .
N4 C28 N5 C31 -5.7(4) . .
C27 C28 N5 C31 172.7(3) . .
C11 C10 C9 C8 0.1(5) . .
C29 N5 C31 C30 0.8(3) . .
C28 N5 C31 C30 -175.9(3) . .
C31 N5 C29 N6 -0.6(3) . .
C28 N5 C29 N6 176.2(2) . .
C5 C4 C3 C2 -0.3(11) . .
C1 C2 C3 C4 0.3(12) . .
N5 C29 N6 C30 0.1(3) . .
N5 C29 N6 Zn1 -177.69(18) . 6_575
C10 C9 C8 C13 -0.4(5) . .
C10 C9 C8 C7 -176.3(3) . .
C13 C8 C7 O2 -175.5(3) . .
C9 C8 C7 O2 0.2(4) . .
C13 C8 C7 O1 2.7(4) . .
C9 C8 C7 O1 178.5(3) . .
N5 C31 C30 N6 -0.8(4) . .
C29 N6 C30 C31 0.4(4) . .
Zn1 N6 C30 C31 178.0(2) 6_575 .
C11 C12 C13 C8 -0.1(6) . .
C9 C8 C13 C12 0.4(5) . .
C7 C8 C13 C12 176.2(3) . .
O2 C7 O1 Zn1 6.4(3) . 3_445
C8 C7 O1 Zn1 -171.8(2) . 3_445
