#------------------------------------------------------------------------------
#$Date: 2019-11-07 23:06:37 +0200 (Thu, 07 Nov 2019) $
#$Revision: 223935 $
#$URL: file:///home/coder/svn-repositories/cod/cif/7/04/81/7048152.cif $
#------------------------------------------------------------------------------
#
# This file is available in the Crystallography Open Database (COD),
# http://www.crystallography.net/
#
# All data on this site have been placed in the public domain by the
# contributors.
#
data_7048152
loop_
_publ_author_name
'Wang, Dongmei'
'Liu, Zihua'
'Xu, Lili'
'Li, Chunxia'
'Zhao, Dian'
'Ge, Genwu'
'Wang, Zhenling'
'Lin, Jun'
_publ_section_title
;
 A heterometallic metal-organic framework based on multi-nuclear clusters
 exhibiting high stability and selective gas adsorption.
;
_journal_issue                   1
_journal_name_full
'Dalton transactions (Cambridge, England : 2003)'
_journal_page_first              278
_journal_page_last               284
_journal_paper_doi               10.1039/c8dt03826k
_journal_volume                  48
_journal_year                    2018
_chemical_formula_sum            'C51 H30 In6 N6 O52 Tb3'
_chemical_formula_weight         2724.49
_space_group_crystal_system      trigonal
_space_group_IT_number           162
_space_group_name_Hall           '-P 3 2'
_space_group_name_H-M_alt        'P -3 1 m'
_symmetry_space_group_name_Hall  '-P 3 2'
_symmetry_space_group_name_H-M   'P -3 1 m'
_atom_sites_solution_hydrogens   geom
_audit_creation_method           SHELXL-2013
_audit_update_record
;
2018-09-12 deposited with the CCDC.
2018-11-15 downloaded from the CCDC.
;
_cell_angle_alpha                90
_cell_angle_beta                 90
_cell_angle_gamma                120
_cell_formula_units_Z            2
_cell_length_a                   21.0227(12)
_cell_length_b                   21.0227(12)
_cell_length_c                   16.8234(18)
_cell_measurement_reflns_used    5856
_cell_measurement_temperature    293(2)
_cell_measurement_theta_max      25.5275
_cell_measurement_theta_min      2.2375
_cell_volume                     6439.0(9)
_computing_cell_refinement       'Bruker SMART'
_computing_data_collection       'Bruker SMART'
_computing_data_reduction        'Bruker SAINT'
_computing_molecular_graphics    'Bruker SHELXTL'
_computing_publication_material  'Bruker SHELXTL'
_computing_structure_refinement  'SHELXL-2013 (Sheldrick, 2013)'
_computing_structure_solution    'Bruker SHELXTL'
_diffrn_ambient_temperature      293(2)
_diffrn_measured_fraction_theta_full 1.000
_diffrn_measured_fraction_theta_max 0.998
_diffrn_measurement_device_type  'CCD area detector'
_diffrn_measurement_method       'phi and omega scans'
_diffrn_radiation_type           MoK\a
_diffrn_radiation_wavelength     0.71073
_diffrn_reflns_av_R_equivalents  0.0866
_diffrn_reflns_av_unetI/netI     0.0573
_diffrn_reflns_Laue_measured_fraction_full 1.000
_diffrn_reflns_Laue_measured_fraction_max 0.998
_diffrn_reflns_limit_h_max       27
_diffrn_reflns_limit_h_min       -28
_diffrn_reflns_limit_k_max       26
_diffrn_reflns_limit_k_min       -25
_diffrn_reflns_limit_l_max       22
_diffrn_reflns_limit_l_min       -18
_diffrn_reflns_number            40660
_diffrn_reflns_point_group_measured_fraction_full 1.000
_diffrn_reflns_point_group_measured_fraction_max 0.998
_diffrn_reflns_theta_full        25.242
_diffrn_reflns_theta_max         28.290
_diffrn_reflns_theta_min         1.118
_exptl_absorpt_coefficient_mu    2.746
_exptl_crystal_colour            colourless
_exptl_crystal_density_diffrn    1.405
_exptl_crystal_description       block
_exptl_crystal_F_000             2566
_refine_diff_density_max         5.801
_refine_diff_density_min         -5.420
_refine_diff_density_rms         0.423
_refine_ls_extinction_method     none
_refine_ls_goodness_of_fit_ref   1.134
_refine_ls_hydrogen_treatment    constr
_refine_ls_matrix_type           full
_refine_ls_number_parameters     190
_refine_ls_number_reflns         5582
_refine_ls_number_restraints     199
_refine_ls_restrained_S_all      1.137
_refine_ls_R_factor_all          0.1289
_refine_ls_R_factor_gt           0.1020
_refine_ls_shift/su_max          0.000
_refine_ls_shift/su_mean         0.000
_refine_ls_structure_factor_coef Fsqd
_refine_ls_weighting_details
;
 w=1/[\s^2^(Fo^2^)+(0.2800P)^2^]
 where P=(Fo^2^+2Fc^2^)/3
;
_refine_ls_weighting_scheme      calc
_refine_ls_wR_factor_gt          0.3318
_refine_ls_wR_factor_ref         0.3744
_reflns_Friedel_coverage         0.000
_reflns_number_gt                4024
_reflns_number_total             5582
_reflns_threshold_expression     'I > 2\s(I)'
_cod_data_source_file            c8dt03826k2.cif
_cod_data_source_block           HMOF-1
_cod_depositor_comments          'Adding full bibliography for 7048152.cif.'
_cod_original_cell_volume        6439.0(10)
_cod_database_code               7048152
_shelx_space_group_comment
;
The symmetry employed for this shelxl refinement is uniquely defined
by the following loop, which should always be used as a source of
symmetry information in preference to the above space-group names.
They are only intended as comments.
;
_shelxl_version_number           2013-2
_shelx_res_file
;
TITL dm in P-31m
CELL  0.71073   21.0227   21.0227   16.8234    90.000    90.000   120.000
ZERR        2    0.0012    0.0012    0.0018     0.000     0.000     0.000
LATT   1
SYMM             - Y ,          X - Y ,              Z
SYMM         - X + Y ,            - X ,              Z
SYMM             - Y ,            - X ,            - Z
SYMM               X ,          X - Y ,            - Z
SYMM         - X + Y ,              Y ,            - Z
SFAC  C  H In  N  O Tb
UNIT 102 60 12 12 104 6
LIST 6 ! automatically inserted. Change 6 to 4 for CHECKCIF!!
L.S. 20 0  127
FMAP 2
PLAN -20
ACTA
BOND $H
ISOR 0.005
DFIX 2.044 O6 IN3
SIMU C2 C3 C4 C5 C6 C7
DELU C2 C3 C4 C5 C6 C7
CONF
ABIN
WGHT    0.280000
FVAR       0.13671
TB1   6    0.221281    0.610640    0.000000    10.50000    0.02545    0.02256 =
         0.02352   -0.00024    0.00000    0.01272
O8    5   -0.081878    0.287036    0.587271    11.00000    0.08212    0.08105 =
         0.07610   -0.00401    0.01886    0.03056
IN2   3    0.000000    0.337929    0.500149    10.50000    0.04014    0.03979 =
         0.03551    0.00018    0.00000    0.02007
IN3   3    0.000000    0.499986    0.381652    10.50000    0.03565    0.04361 =
         0.03330    0.00027    0.00000    0.01783
O1    5    0.102035    0.551018    0.000000    10.50000    0.02075    0.03938 =
         0.05001   -0.00062    0.00000    0.01037
O1A   5    0.333333    0.666667    0.000000    10.16667    0.01285    0.01285 =
         0.01427    0.00000    0.00000    0.00643
N1    4    0.282595    0.348696    0.303624    11.00000    0.16942    0.16658 =
         0.16944    0.00477    0.00272    0.08768
AFIX  43
H1    2    0.268914    0.325672    0.348177    11.00000   -1.20000
AFIX   0
O2    5    0.214192    0.535079    0.091460    11.00000    0.02694    0.03232 =
         0.02992    0.01768    0.00732    0.01780
O4    5    0.214479    0.535951   -0.091118    11.00000    0.02581    0.02752 =
         0.02786   -0.01554   -0.00521    0.01383
O10   5    0.082936    0.367018    0.412240    11.00000    0.06332    0.07677 =
         0.06941    0.00822    0.00917    0.03332
O12   5    0.000000    0.240193    0.499568    10.50000    0.07449    0.07910 =
         0.07192   -0.00477    0.00000    0.03725
O6    5   -0.069516    0.542099    0.345895    11.00000    0.19486    0.19677 =
         0.18207   -0.01011   -0.01457    0.10019
C9    1    0.326078    0.326078    0.252820    10.50000    0.10972    0.10972 =
         0.10907    0.00215    0.00215    0.05601
O29   5    0.000000    0.435764    0.499222    10.50000    0.06467    0.05722 =
         0.05803    0.00090    0.00000    0.03233
O53   5    0.076931    0.455281    0.343065    11.00000    0.13146    0.13721 =
         0.13624    0.00940    0.00145    0.07289
C5    1    0.282988    0.455788    0.228185    11.00000    0.04500    0.06474 =
         0.05542    0.01957   -0.00207    0.02541
AFIX  43
H5    2    0.332209    0.479939    0.213414    11.00000   -1.20000
AFIX   0
C8    1    0.259185    0.518058    0.118994    11.00000    0.01966    0.01813 =
         0.01823    0.00815    0.00569    0.00826
C4    1    0.257849    0.404904    0.291458    11.00000    0.05659    0.07066 =
         0.06048    0.02381    0.00082    0.03258
AFIX  13
H4    2    0.286084    0.438739    0.334500    11.00000   -1.20000
AFIX   0
C6    1    0.234989    0.468684    0.189899    11.00000    0.02734    0.02643 =
         0.02169    0.00813    0.00151    0.01257
C3    1    0.190928    0.380672    0.320689    11.00000    0.04484    0.04364 =
         0.04200    0.01563    0.00646    0.02234
AFIX  43
H3    2    0.176413    0.350166    0.365020    11.00000   -1.20000
AFIX   0
O9    5    0.341433    0.341433    0.187765    10.50000    0.17705    0.17705 =
         0.17672    0.00681    0.00681    0.09494
C7    1    0.165130    0.444990    0.221631    11.00000    0.05486    0.06688 =
         0.05868    0.02200    0.01027    0.03478
AFIX  43
H7    2    0.134515    0.459921    0.198602    11.00000   -1.20000
AFIX   0
C2    1    0.141660    0.399191    0.287503    11.00000    0.05728    0.06652 =
         0.05914    0.02023    0.00655    0.03473
C1    1    0.102105    0.415015    0.352844    11.00000    0.07730    0.07860 =
         0.07820    0.00988    0.00145    0.04406
O20   5    0.000000    0.492501    0.241755    10.50000    0.17502    0.17376 =
         0.18174   -0.00824    0.00000    0.08751
HKLF 4

REM  dm in P-31m
REM R1 =  0.1020 for    4024 Fo > 4sig(Fo)  and  0.1289 for all    5582 data
REM    190 parameters refined using    199 restraints

END

WGHT      0.2000      0.0000

REM Highest difference peak  5.801,  deepest hole -5.420,  1-sigma level  0.423
Q1    1   0.0000  0.5047  0.1079  10.50000  0.05    4.75
Q2    1   0.0000  0.4742  0.4045  10.50000  0.05    3.94
Q3    1  -0.1036  0.3142  0.6399  11.00000  0.05    3.85
Q4    1   0.0613  0.3525  0.3088  11.00000  0.05    3.75
Q5    1   0.1691  0.4278  0.3110  11.00000  0.05    3.53
Q6    1   0.0000  0.5269  0.4057  10.50000  0.05    3.35
Q7    1   0.1911  0.4720  0.2441  11.00000  0.05    3.30
Q8    1   0.2643  0.4202  0.2046  11.00000  0.05    2.69
Q9    1   0.2585  0.4334  0.3122  11.00000  0.05    2.60
Q10   1   0.0000  0.2349  0.4324  10.50000  0.05    2.28
Q11   1   0.1337  0.3701  0.2602  11.00000  0.05    2.26
Q12   1   0.3666  0.3666  0.2067  10.50000  0.05    2.25
Q13   1   0.2849  0.4816  0.2490  11.00000  0.05    2.23
Q14   1  -0.0980  0.5251  0.3587  11.00000  0.05    2.20
Q15   1   0.1538  0.4130  0.2005  11.00000  0.05    2.13
Q16   1   0.2397  0.3733  0.2662  11.00000  0.05    2.03
Q17   1   0.0000  0.2336  0.5693  10.50000  0.05    2.02
Q18   1  -0.0992  0.3839  0.3630  11.00000  0.05    1.76
Q19   1  -0.0610  0.3117  0.6804  11.00000  0.05    1.66
Q20   1  -0.0255  0.4836  0.1754  11.00000  0.05    1.55
;
_shelx_res_checksum              16285
_shelx_fab_file
;
    0    1    0    511.40      0.00
   -1    2    0    217.36      0.00
    0    2    0     91.98      0.00
   -1    3    0     -3.61      0.00
    0    3    0     65.84      0.00
   -1    4    0     14.77      0.00
   -2    4    0    -80.04      0.00
    0    4    0     26.31      0.00
   -1    5    0    -44.32      0.00
   -2    5    0    -17.92      0.00
    0    5    0     30.24      0.00
   -1    6    0      8.74      0.00
   -2    6    0      6.72      0.00
   -3    6    0     37.68      0.00
    0    6    0     29.68      0.00
   -1    7    0     10.49      0.00
   -2    7    0     -4.85      0.00
   -3    7    0     -4.44      0.00
    0    7    0     19.94      0.00
   -1    8    0     -2.55      0.00
   -2    8    0      8.40      0.00
   -3    8    0    -18.94      0.00
   -4    8    0      4.79      0.00
    0    8    0      8.72      0.00
   -1    9    0     -1.39      0.00
   -2    9    0      3.71      0.00
   -3    9    0      2.19      0.00
   -4    9    0    -18.36      0.00
    0    9    0     26.81      0.00
   -1   10    0    -10.07      0.00
   -2   10    0     -4.68      0.00
   -3   10    0    -15.23      0.00
   -4   10    0     -1.58      0.00
   -5   10    0     -3.55      0.00
    0   10    0     -5.91      0.00
   -1   11    0     -8.81      0.00
   -2   11    0      1.33      0.00
   -3   11    0     -4.66      0.00
   -4   11    0    -10.38      0.00
   -5   11    0      3.87      0.00
    0   11    0      5.27      0.00
   -1   12    0     -5.50      0.00
   -2   12    0     -0.77      0.00
   -3   12    0     -7.60      0.00
   -4   12    0     -4.25      0.00
   -5   12    0    -10.29      0.00
   -6   12    0      6.89      0.00
    0   12    0     -3.10      0.00
   -1   13    0      5.08      0.00
   -2   13    0      3.29      0.00
   -3   13    0     12.66      0.00
   -4   13    0      0.45      0.00
   -5   13    0     13.89      0.00
   -6   13    0      3.99      0.00
    0   13    0      5.93      0.00
   -1   14    0     -1.28      0.00
   -2   14    0      0.31      0.00
   -3   14    0      9.29      0.00
   -4   14    0     -1.07      0.00
   -5   14    0      6.30      0.00
   -6   14    0      6.52      0.00
   -7   14    0     19.41      0.00
    0   14    0      9.21      0.00
   -1   15    0      1.82      0.00
   -2   15    0      1.60      0.00
   -3   15    0      2.29      0.00
   -4   15    0     -4.36      0.00
   -5   15    0      3.09      0.00
   -6   15    0     11.13      0.00
   -7   15    0     -2.97      0.00
    0   15    0      8.73      0.00
   -1   16    0     -3.52      0.00
   -2   16    0     -2.85      0.00
   -3   16    0     -0.36      0.00
   -4   16    0     -0.04      0.00
   -5   16    0     -6.38      0.00
   -6   16    0     -8.82      0.00
   -7   16    0     -0.99      0.00
   -8   16    0      0.70      0.00
    0   16    0      9.02      0.00
   -1   17    0      0.62      0.00
   -2   17    0      0.42      0.00
   -3   17    0     -0.06      0.00
   -4   17    0      4.26      0.00
   -5   17    0     -7.46      0.00
   -6   17    0     -0.02      0.00
   -7   17    0    -11.02      0.00
   -8   17    0      2.83      0.00
    0   17    0      2.20      0.00
   -1   18    0     -6.84      0.00
   -2   18    0     -3.94      0.00
   -3   18    0      2.27      0.00
   -4   18    0     -8.90      0.00
   -5   18    0     -8.38      0.00
   -6   18    0      1.66      0.00
   -7   18    0     -9.78      0.00
   -8   18    0     -7.30      0.00
   -9   18    0     -2.94      0.00
    0   18    0      6.42      0.00
   -1   19    0     -6.20      0.00
   -2   19    0     -3.04      0.00
   -3   19    0      5.04      0.00
   -4   19    0      2.45      0.00
   -5   19    0    -11.67      0.00
   -6   19    0      3.81      0.00
   -7   19    0      0.77      0.00
   -8   19    0      5.08      0.00
   -9   19    0     -0.98      0.00
    0   19    0      7.69      0.00
   -1   20    0     -1.59      0.00
   -2   20    0      0.18      0.00
   -3   20    0      7.59      0.00
   -4   20    0     -0.34      0.00
   -5   20    0     -6.16      0.00
   -6   20    0     -3.70      0.00
   -7   20    0     -4.89      0.00
   -8   20    0      7.79      0.00
   -9   20    0     11.19      0.00
  -10   20    0      4.77      0.00
    0   20    0     -0.52      0.00
   -1   21    0     -0.85      0.00
   -2   21    0      5.83      0.00
   -3   21    0      5.70      0.00
   -4   21    0      2.17      0.00
   -5   21    0     -1.86      0.00
   -6   21    0    -12.36      0.00
   -7   21    0     -3.58      0.00
   -8   21    0      3.73      0.00
   -9   21    0      7.68      0.00
  -10   21    0      6.77      0.00
    0   21    0     12.20      0.00
   -1   22    0      5.00      0.00
   -2   22    0      1.09      0.00
   -3   22    0     13.23      0.00
   -4   22    0     10.71      0.00
   -5   22    0     -7.42      0.00
   -6   22    0     -4.06      0.00
   -7   22    0     -5.46      0.00
   -8   22    0     -9.43      0.00
   -9   22    0     -3.99      0.00
  -10   22    0     -0.09      0.00
  -11   22    0      3.26      0.00
    0   22    0     -1.44      0.00
   -1   23    0      3.09      0.00
   -2   23    0     -4.08      0.00
   -3   23    0      3.93      0.00
   -4   23    0      7.56      0.00
   -5   23    0      5.64      0.00
   -6   23    0     -0.22      0.00
   -7   23    0     -1.34      0.00
   -8   23    0     -2.29      0.00
   -9   23    0     -2.43      0.00
  -10   23    0     -6.51      0.00
  -11   23    0     -2.28      0.00
    0   23    0      1.39      0.00
   -1   24    0     -4.88      0.00
   -2   24    0     -1.92      0.00
   -3   24    0      3.18      0.00
   -4   24    0     -2.54      0.00
   -5   24    0      2.04      0.00
   -6   24    0      0.51      0.00
   -7   24    0     -0.93      0.00
   -8   24    0     -6.86      0.00
   -9   24    0     -4.13      0.00
  -10   24    0     -3.86      0.00
  -11   24    0     -4.94      0.00
  -12   24    0      8.58      0.00
    0   24    0      8.18      0.00
   -2   25    0     -2.73      0.00
   -3   25    0     -2.24      0.00
   -4   25    0      3.74      0.00
   -5   25    0      0.03      0.00
   -6   25    0      0.56      0.00
   -7   25    0    -10.49      0.00
   -8   25    0      2.52      0.00
   -9   25    0      2.40      0.00
  -10   25    0      0.56      0.00
  -11   25    0     -2.99      0.00
  -12   25    0     -2.36      0.00
   -4   26    0     -2.12      0.00
   -5   26    0     -1.65      0.00
   -6   26    0     -2.97      0.00
   -7   26    0     -3.35      0.00
   -8   26    0      1.05      0.00
   -9   26    0      1.23      0.00
  -10   26    0      4.47      0.00
  -11   26    0     -0.88      0.00
  -12   26    0     -7.44      0.00
  -13   26    0     -8.81      0.00
   -7   27    0      1.47      0.00
   -8   27    0     -4.60      0.00
   -9   27    0     12.58      0.00
  -10   27    0      3.75      0.00
  -12   27    0     -2.84      0.00
  -13   27    0     -3.32      0.00
  -11   27    0     -9.09      0.00
  -14   28    0    -10.19      0.00
    0    0    1    112.24      0.00
    0    1    1     80.61      0.00
    1    1    1   -218.48      0.00
    1    2    1     -7.24      0.00
    0    2    1    -31.37      0.00
   -1    2    1   -118.57      0.00
    2    2    1     85.73      0.00
    2    3    1     34.85      0.00
    1    3    1     31.70      0.00
    0    3    1    119.66      0.00
   -1    3    1      6.42      0.00
    3    3    1     32.07      0.00
    3    4    1      3.70      0.00
    2    4    1     36.71      0.00
    1    4    1     61.14      0.00
    0    4    1     52.24      0.00
   -1    4    1     15.34      0.00
   -2    4    1    -12.02      0.00
    4    4    1    -19.12      0.00
    4    5    1     11.36      0.00
    3    5    1     -6.44      0.00
    2    5    1      3.80      0.00
    1    5    1      1.29      0.00
    0    5    1     18.29      0.00
   -1    5    1     34.86      0.00
   -2    5    1    -14.85      0.00
    5    5    1     23.55      0.00
    5    6    1      8.22      0.00
    4    6    1      3.08      0.00
    3    6    1      0.54      0.00
    2    6    1     -3.10      0.00
    1    6    1     -6.52      0.00
    0    6    1     17.67      0.00
   -1    6    1     -3.31      0.00
   -2    6    1     13.09      0.00
   -3    6    1      9.49      0.00
    6    6    1    -32.38      0.00
    6    7    1    -11.90      0.00
    5    7    1     -2.41      0.00
    4    7    1      5.35      0.00
    3    7    1    -16.38      0.00
    2    7    1     -3.22      0.00
    1    7    1    -23.57      0.00
    0    7    1    -28.22      0.00
   -1    7    1    -15.31      0.00
   -2    7    1    -41.62      0.00
   -3    7    1     18.96      0.00
    7    7    1    -24.10      0.00
    7    8    1      1.90      0.00
    6    8    1     -0.87      0.00
    5    8    1      3.60      0.00
    4    8    1      2.46      0.00
    3    8    1      5.92      0.00
    2    8    1      5.80      0.00
    1    8    1     -2.53      0.00
    0    8    1    -11.26      0.00
   -1    8    1     -0.04      0.00
   -2    8    1     -0.29      0.00
   -3    8    1     -7.70      0.00
   -4    8    1    -10.20      0.00
    8    8    1      7.66      0.00
    8    9    1     12.00      0.00
    7    9    1     -8.24      0.00
    6    9    1     -7.68      0.00
    5    9    1     -5.04      0.00
    4    9    1     -2.24      0.00
    3    9    1      1.14      0.00
    2    9    1      7.39      0.00
    1    9    1     -2.31      0.00
    0    9    1      2.76      0.00
   -1    9    1     -3.80      0.00
   -2    9    1     -5.89      0.00
   -3    9    1     10.49      0.00
   -4    9    1      6.60      0.00
    9    9    1      2.68      0.00
    9   10    1      2.11      0.00
    8   10    1     -1.43      0.00
    7   10    1     -1.45      0.00
    6   10    1      5.48      0.00
    5   10    1      4.39      0.00
    4   10    1      3.48      0.00
    3   10    1     -0.60      0.00
    2   10    1     11.83      0.00
    1   10    1     -5.36      0.00
    0   10    1      5.05      0.00
   -1   10    1      6.32      0.00
   -2   10    1     -6.19      0.00
   -3   10    1     20.78      0.00
   -4   10    1     16.29      0.00
   -5   10    1      6.55      0.00
   10   10    1     -5.33      0.00
   10   11    1     -6.02      0.00
    9   11    1      2.26      0.00
    8   11    1      3.26      0.00
    7   11    1     -0.89      0.00
    6   11    1      2.43      0.00
    5   11    1      9.29      0.00
    4   11    1      9.96      0.00
    3   11    1     -2.52      0.00
    2   11    1     27.25      0.00
    1   11    1      4.14      0.00
    0   11    1     12.66      0.00
   -1   11    1      0.91      0.00
   -2   11    1      1.10      0.00
   -3   11    1      5.89      0.00
   -4   11    1     21.07      0.00
   -5   11    1     -1.94      0.00
   11   11    1     -6.88      0.00
   11   12    1      2.24      0.00
   10   12    1     -4.50      0.00
    9   12    1     -1.82      0.00
    8   12    1     -1.86      0.00
    7   12    1     -0.47      0.00
    6   12    1      2.44      0.00
    5   12    1     14.79      0.00
    4   12    1      8.76      0.00
    3   12    1      0.59      0.00
    2   12    1      5.32      0.00
    1   12    1     -5.61      0.00
    0   12    1      4.00      0.00
   -1   12    1      9.78      0.00
   -2   12    1      2.74      0.00
   -3   12    1      9.17      0.00
   -4   12    1     -4.75      0.00
   -5   12    1     -9.30      0.00
   -6   12    1    -31.59      0.00
   12   12    1     10.77      0.00
   12   13    1      6.10      0.00
   11   13    1      3.08      0.00
   10   13    1      2.75      0.00
    9   13    1      0.28      0.00
    8   13    1     -2.47      0.00
    7   13    1     -3.42      0.00
    6   13    1      0.59      0.00
    5   13    1      1.97      0.00
    4   13    1      3.59      0.00
    3   13    1      1.14      0.00
    2   13    1     -4.72      0.00
    1   13    1     -6.28      0.00
    0   13    1      1.38      0.00
   -1   13    1     -3.91      0.00
   -2   13    1     14.05      0.00
   -3   13    1      6.64      0.00
   -4   13    1      1.58      0.00
   -5   13    1    -20.66      0.00
   -6   13    1     -3.03      0.00
   13   13    1     -1.53      0.00
   13   14    1     -0.16      0.00
   12   14    1      6.77      0.00
   11   14    1      2.53      0.00
   10   14    1      0.68      0.00
    9   14    1      3.80      0.00
    8   14    1      7.62      0.00
    7   14    1     -5.81      0.00
    6   14    1      3.23      0.00
    5   14    1     -3.06      0.00
    4   14    1     -2.77      0.00
    3   14    1      4.84      0.00
    2   14    1     -7.57      0.00
    1   14    1    -11.34      0.00
    0   14    1      2.42      0.00
   -1   14    1      4.86      0.00
   -2   14    1     -3.99      0.00
   -3   14    1      3.94      0.00
   -4   14    1      8.58      0.00
   -5   14    1     -9.81      0.00
   -6   14    1     -3.28      0.00
   -7   14    1     -6.70      0.00
   12   15    1      5.41      0.00
   11   15    1      1.01      0.00
   10   15    1      8.40      0.00
    9   15    1      5.43      0.00
    8   15    1      6.11      0.00
    7   15    1     -3.20      0.00
    6   15    1      3.08      0.00
    5   15    1     -0.37      0.00
    4   15    1     -4.39      0.00
    3   15    1      3.40      0.00
    2   15    1      6.80      0.00
    1   15    1     -6.21      0.00
    0   15    1      3.36      0.00
   -1   15    1      0.10      0.00
   -2   15    1     -7.03      0.00
   -3   15    1     -1.95      0.00
   -4   15    1      9.39      0.00
   -5   15    1     -1.64      0.00
   -6   15    1     -3.97      0.00
   -7   15    1     -7.05      0.00
   11   16    1     -2.87      0.00
   10   16    1     -1.42      0.00
    9   16    1      2.75      0.00
    8   16    1      2.06      0.00
    7   16    1      5.69      0.00
    6   16    1      1.42      0.00
    5   16    1     -2.82      0.00
    4   16    1      1.80      0.00
    3   16    1      6.00      0.00
    2   16    1      4.34      0.00
    1   16    1     -4.15      0.00
    0   16    1     -2.30      0.00
   -1   16    1      3.45      0.00
   -2   16    1    -11.54      0.00
   -3   16    1      4.39      0.00
   -4   16    1      9.58      0.00
   -5   16    1      0.64      0.00
   -6   16    1      8.49      0.00
   -7   16    1     -2.32      0.00
   -8   16    1    -10.11      0.00
   10   17    1     -0.73      0.00
    9   17    1     11.46      0.00
    8   17    1     -3.96      0.00
    7   17    1     -2.33      0.00
    6   17    1      3.06      0.00
    5   17    1      1.67      0.00
    4   17    1     -3.48      0.00
    3   17    1      2.29      0.00
    2   17    1      5.15      0.00
    1   17    1     -8.15      0.00
    0   17    1      5.49      0.00
   -1   17    1      3.98      0.00
   -2   17    1     -1.46      0.00
   -3   17    1     -3.05      0.00
   -4   17    1     11.69      0.00
   -5   17    1      8.37      0.00
   -6   17    1      6.98      0.00
   -7   17    1      7.35      0.00
   -8   17    1      6.08      0.00
    9   18    1      0.43      0.00
    8   18    1     -0.10      0.00
    7   18    1      0.73      0.00
    6   18    1     -0.11      0.00
    5   18    1      1.28      0.00
    4   18    1     -2.44      0.00
    3   18    1      8.01      0.00
    2   18    1      5.78      0.00
    1   18    1     -1.36      0.00
    0   18    1     -4.28      0.00
   -1   18    1      7.22      0.00
   -2   18    1     -1.04      0.00
   -3   18    1     -0.75      0.00
   -4   18    1      3.08      0.00
   -5   18    1      5.39      0.00
   -6   18    1      5.78      0.00
   -7   18    1      2.55      0.00
   -8   18    1     -2.95      0.00
   -9   18    1      8.29      0.00
    8   19    1      3.33      0.00
    7   19    1    -10.85      0.00
    6   19    1     -0.03      0.00
    5   19    1     -0.66      0.00
    4   19    1     -3.07      0.00
    3   19    1      1.57      0.00
    2   19    1      2.52      0.00
    1   19    1     -4.74      0.00
    0   19    1      0.43      0.00
   -1   19    1      4.33      0.00
   -2   19    1      1.34      0.00
   -3   19    1     -0.27      0.00
   -4   19    1     -1.98      0.00
   -5   19    1      2.46      0.00
   -6   19    1      3.50      0.00
   -7   19    1      4.51      0.00
   -8   19    1     -1.01      0.00
   -9   19    1     -1.52      0.00
    6   20    1      2.70      0.00
    5   20    1      2.55      0.00
    4   20    1     -7.23      0.00
    3   20    1     -7.41      0.00
    2   20    1      1.18      0.00
    1   20    1     -2.00      0.00
    0   20    1      2.09      0.00
   -1   20    1      3.60      0.00
   -2   20    1     -4.75      0.00
   -3   20    1     -3.24      0.00
   -4   20    1      5.30      0.00
   -5   20    1     -1.50      0.00
   -6   20    1      0.28      0.00
   -7   20    1     -1.46      0.00
   -8   20    1     -5.81      0.00
   -9   20    1      5.44      0.00
  -10   20    1     -5.76      0.00
    5   21    1     -2.62      0.00
    4   21    1     -3.09      0.00
    3   21    1     -7.23      0.00
    2   21    1      8.16      0.00
    1   21    1      2.51      0.00
    0   21    1      3.13      0.00
   -1   21    1      2.14      0.00
   -2   21    1     -1.26      0.00
   -3   21    1      2.01      0.00
   -4   21    1      1.45      0.00
   -5   21    1     -2.76      0.00
   -6   21    1      0.30      0.00
   -7   21    1     -2.93      0.00
   -8   21    1     -4.14      0.00
   -9   21    1      1.02      0.00
  -10   21    1      1.52      0.00
    4   22    1     -5.29      0.00
    3   22    1      2.31      0.00
    2   22    1      0.02      0.00
    1   22    1     -4.54      0.00
    0   22    1      2.42      0.00
   -1   22    1      2.30      0.00
   -2   22    1     -5.42      0.00
   -3   22    1      1.08      0.00
   -4   22    1      4.41      0.00
   -5   22    1      0.98      0.00
   -6   22    1     -3.27      0.00
   -7   22    1     -4.58      0.00
   -8   22    1      0.35      0.00
   -9   22    1     -3.05      0.00
  -10   22    1     -5.60      0.00
  -11   22    1     -5.31      0.00
    2   23    1     -0.92      0.00
    1   23    1      3.43      0.00
    0   23    1     -3.63      0.00
   -1   23    1     -9.18      0.00
   -2   23    1     -1.64      0.00
   -3   23    1     -5.78      0.00
   -4   23    1      9.65      0.00
   -5   23    1     -1.62      0.00
   -6   23    1      1.88      0.00
   -7   23    1      4.97      0.00
   -8   23    1      3.25      0.00
   -9   23    1     -0.95      0.00
  -10   23    1     -0.08      0.00
  -11   23    1      3.11      0.00
    0   24    1     -0.48      0.00
   -1   24    1     -3.88      0.00
   -2   24    1     -7.42      0.00
   -3   24    1     -4.55      0.00
   -4   24    1      4.44      0.00
   -5   24    1      5.41      0.00
   -6   24    1     -2.60      0.00
   -7   24    1     -0.77      0.00
   -8   24    1     -1.75      0.00
   -9   24    1     -1.13      0.00
  -10   24    1      1.21      0.00
  -11   24    1      3.92      0.00
  -12   24    1      6.38      0.00
   -2   25    1    -11.54      0.00
   -3   25    1      5.08      0.00
   -4   25    1      4.60      0.00
   -5   25    1      3.95      0.00
   -6   25    1      2.85      0.00
   -7   25    1      0.53      0.00
   -8   25    1     -0.83      0.00
   -9   25    1     -4.31      0.00
  -10   25    1      4.93      0.00
  -11   25    1      2.55      0.00
  -12   25    1      0.96      0.00
   -4   26    1      4.81      0.00
   -5   26    1      3.79      0.00
   -6   26    1      1.33      0.00
   -7   26    1     -4.13      0.00
   -8   26    1      0.86      0.00
   -9   26    1      7.34      0.00
  -10   26    1     -0.69      0.00
  -11   26    1     -0.72      0.00
  -12   26    1      2.61      0.00
  -13   26    1      1.81      0.00
   -8   27    1      1.79      0.00
   -9   27    1      1.07      0.00
  -10   27    1     -2.78      0.00
  -11   27    1     -3.93      0.00
  -12   27    1      8.74      0.00
  -13   27    1      5.28      0.00
    0    0    2    222.09      0.00
    0    1    2    -18.04      0.00
    1    1    2    -50.51      0.00
    1    2    2     25.09      0.00
    0    2    2    -34.01      0.00
   -1    2    2     -7.60      0.00
    2    2    2    -12.20      0.00
    2    3    2     27.66      0.00
    1    3    2     10.16      0.00
    0    3    2    -28.15      0.00
   -1    3    2     12.53      0.00
    3    3    2     15.32      0.00
    3    4    2     14.02      0.00
    2    4    2     21.97      0.00
    1    4    2     -7.73      0.00
    0    4    2      0.63      0.00
   -1    4    2     17.63      0.00
   -2    4    2     -1.52      0.00
    4    4    2     14.87      0.00
    4    5    2      4.61      0.00
    3    5    2    -20.78      0.00
    2    5    2     12.17      0.00
    1    5    2     34.85      0.00
    0    5    2     -6.85      0.00
   -1    5    2    -12.62      0.00
   -2    5    2     19.63      0.00
    5    5    2     -4.57      0.00
    5    6    2     -3.55      0.00
    4    6    2      0.54      0.00
    3    6    2    -16.59      0.00
    2    6    2      8.34      0.00
    1    6    2     11.16      0.00
    0    6    2     14.15      0.00
   -1    6    2     23.65      0.00
   -2    6    2     10.64      0.00
   -3    6    2     61.27      0.00
    6    6    2     -8.59      0.00
    6    7    2      3.11      0.00
    5    7    2      2.11      0.00
    4    7    2      2.21      0.00
    3    7    2    -14.21      0.00
    2    7    2     12.23      0.00
    1    7    2      1.80      0.00
    0    7    2     25.20      0.00
   -1    7    2     16.12      0.00
   -2    7    2      7.57      0.00
   -3    7    2      4.33      0.00
    7    7    2     16.36      0.00
    7    8    2      1.42      0.00
    6    8    2     -4.11      0.00
    5    8    2      9.61      0.00
    4    8    2     10.01      0.00
    3    8    2     -4.33      0.00
    2    8    2      5.02      0.00
    1    8    2     13.49      0.00
    0    8    2      8.14      0.00
   -1    8    2     28.14      0.00
   -2    8    2      4.11      0.00
   -3    8    2    -12.98      0.00
   -4    8    2     18.83      0.00
    8    8    2      2.44      0.00
    8    9    2     -1.53      0.00
    7    9    2     -1.14      0.00
    6    9    2     -7.44      0.00
    5    9    2     -4.24      0.00
    4    9    2     -3.52      0.00
    3    9    2    -23.58      0.00
    2    9    2     -5.51      0.00
    1    9    2    -16.64      0.00
    0    9    2      1.38      0.00
   -1    9    2     -1.14      0.00
   -2    9    2     11.12      0.00
   -3    9    2    -23.37      0.00
   -4    9    2     -8.83      0.00
    9    9    2    -10.02      0.00
    9   10    2     -3.08      0.00
    8   10    2     -0.34      0.00
    7   10    2     -2.11      0.00
    6   10    2     -4.48      0.00
    5   10    2      7.47      0.00
    4   10    2      0.53      0.00
    3   10    2      3.26      0.00
    2   10    2      0.88      0.00
    1   10    2     -1.67      0.00
    0   10    2    -10.00      0.00
   -1   10    2      2.52      0.00
   -2   10    2     -7.79      0.00
   -3   10    2     -6.55      0.00
   -4   10    2      6.97      0.00
   -5   10    2     -2.42      0.00
   10   10    2      4.83      0.00
   10   11    2     -0.25      0.00
    9   11    2      2.48      0.00
    8   11    2      2.80      0.00
    7   11    2     -5.47      0.00
    6   11    2     -1.97      0.00
    5   11    2     -4.74      0.00
    4   11    2      3.28      0.00
    3   11    2     -5.11      0.00
    2   11    2      6.07      0.00
    1   11    2      3.55      0.00
    0   11    2      0.52      0.00
   -1   11    2      3.05      0.00
   -2   11    2    -10.75      0.00
   -3   11    2     -6.77      0.00
   -4   11    2      9.45      0.00
   -5   11    2    -14.16      0.00
   11   11    2     -0.40      0.00
   11   12    2      6.58      0.00
   10   12    2      2.88      0.00
    9   12    2      3.27      0.00
    8   12    2      8.75      0.00
    7   12    2     -2.20      0.00
    6   12    2      4.25      0.00
    5   12    2     -4.61      0.00
    4   12    2     -2.87      0.00
    3   12    2     -7.77      0.00
    2   12    2      2.18      0.00
    1   12    2      6.41      0.00
    0   12    2      3.57      0.00
   -1   12    2     10.65      0.00
   -2   12    2    -11.94      0.00
   -3   12    2    -14.46      0.00
   -4   12    2      6.22      0.00
   -5   12    2      1.97      0.00
   -6   12    2    -20.12      0.00
   12   12    2      3.15      0.00
   12   13    2     -1.21      0.00
   11   13    2     -2.63      0.00
   10   13    2     -4.43      0.00
    9   13    2      3.16      0.00
    8   13    2     -0.43      0.00
    7   13    2      4.14      0.00
    6   13    2      5.69      0.00
    5   13    2     -1.83      0.00
    4   13    2      0.44      0.00
    3   13    2     -9.25      0.00
    2   13    2      5.72      0.00
    1   13    2      2.28      0.00
    0   13    2      1.82      0.00
   -1   13    2      9.60      0.00
   -2   13    2     -1.90      0.00
   -3   13    2     -4.57      0.00
   -4   13    2      0.63      0.00
   -5   13    2      6.15      0.00
   -6   13    2      3.13      0.00
   13   13    2     -8.35      0.00
   13   14    2      3.84      0.00
   12   14    2      3.18      0.00
   11   14    2     -2.88      0.00
   10   14    2     -1.59      0.00
    9   14    2     -0.85      0.00
    8   14    2     -5.42      0.00
    7   14    2     -1.65      0.00
    6   14    2      1.30      0.00
    5   14    2      2.69      0.00
    4   14    2     -3.61      0.00
    3   14    2     -2.49      0.00
    2   14    2      3.18      0.00
    1   14    2      5.81      0.00
    0   14    2      2.70      0.00
   -1   14    2     12.50      0.00
   -2   14    2      0.42      0.00
   -3   14    2      2.66      0.00
   -4   14    2      3.48      0.00
   -5   14    2      1.36      0.00
   -6   14    2      0.92      0.00
   -7   14    2     31.68      0.00
   12   15    2     10.46      0.00
   11   15    2      8.68      0.00
   10   15    2      2.35      0.00
    9   15    2     -5.12      0.00
    8   15    2     -0.67      0.00
    7   15    2     -4.41      0.00
    6   15    2     -1.07      0.00
    5   15    2      3.62      0.00
    4   15    2     -5.04      0.00
    3   15    2     -5.26      0.00
    2   15    2      5.08      0.00
    1   15    2     -3.53      0.00
    0   15    2     -3.75      0.00
   -1   15    2      4.66      0.00
   -2   15    2      0.51      0.00
   -3   15    2     -6.55      0.00
   -4   15    2      2.41      0.00
   -5   15    2     -1.49      0.00
   -6   15    2     -6.53      0.00
   -7   15    2      1.63      0.00
   11   16    2     -2.35      0.00
   10   16    2      5.72      0.00
    9   16    2      2.22      0.00
    8   16    2     -2.07      0.00
    7   16    2      0.93      0.00
    6   16    2      4.48      0.00
    5   16    2      8.94      0.00
    4   16    2      1.17      0.00
    3   16    2     -3.55      0.00
    2   16    2      1.71      0.00
    1   16    2     -0.56      0.00
    0   16    2     -7.41      0.00
   -1   16    2      3.80      0.00
   -2   16    2     -1.64      0.00
   -3   16    2     -5.51      0.00
   -4   16    2      1.74      0.00
   -5   16    2     -2.36      0.00
   -6   16    2     -6.45      0.00
   -7   16    2      2.47      0.00
   -8   16    2     -9.09      0.00
   10   17    2     -0.32      0.00
    9   17    2      6.84      0.00
    8   17    2      2.61      0.00
    7   17    2     -3.09      0.00
    6   17    2      5.72      0.00
    5   17    2      5.88      0.00
    4   17    2      2.66      0.00
    3   17    2      3.96      0.00
    2   17    2      3.34      0.00
    1   17    2     -2.58      0.00
    0   17    2     -3.71      0.00
   -1   17    2      0.39      0.00
   -2   17    2      4.55      0.00
   -3   17    2     -3.68      0.00
   -4   17    2      0.14      0.00
   -5   17    2     -3.39      0.00
   -6   17    2     -2.27      0.00
   -7   17    2      1.04      0.00
   -8   17    2      1.61      0.00
    9   18    2      7.82      0.00
    8   18    2      1.69      0.00
    7   18    2     -3.17      0.00
    6   18    2     -1.78      0.00
    5   18    2      5.90      0.00
    4   18    2      3.28      0.00
    3   18    2     -1.74      0.00
    2   18    2     10.89      0.00
    1   18    2     -2.05      0.00
    0   18    2     -5.80      0.00
   -1   18    2      1.77      0.00
   -2   18    2      3.69      0.00
   -3   18    2     -3.21      0.00
   -4   18    2     -1.64      0.00
   -5   18    2     -1.67      0.00
   -6   18    2      1.96      0.00
   -7   18    2      4.50      0.00
   -8   18    2     -5.14      0.00
   -9   18    2     -3.31      0.00
    8   19    2     -3.03      0.00
    7   19    2     -4.41      0.00
    6   19    2     -2.18      0.00
    5   19    2     -2.76      0.00
    4   19    2     -0.66      0.00
    3   19    2     -0.24      0.00
    2   19    2      6.35      0.00
    1   19    2      2.92      0.00
    0   19    2     -3.47      0.00
   -1   19    2     -2.48      0.00
   -2   19    2      4.36      0.00
   -3   19    2     -2.21      0.00
   -4   19    2      3.77      0.00
   -5   19    2      2.36      0.00
   -6   19    2      3.77      0.00
   -7   19    2     -4.55      0.00
   -8   19    2      1.64      0.00
   -9   19    2     -1.79      0.00
    6   20    2     -1.22      0.00
    5   20    2      4.58      0.00
    4   20    2     -3.93      0.00
    3   20    2     -7.36      0.00
    2   20    2      4.83      0.00
    1   20    2      4.40      0.00
    0   20    2     -0.63      0.00
   -1   20    2      1.58      0.00
   -2   20    2      7.43      0.00
   -3   20    2      1.68      0.00
   -4   20    2     -0.15      0.00
   -5   20    2      3.31      0.00
   -6   20    2      1.10      0.00
   -7   20    2      3.80      0.00
   -8   20    2      1.92      0.00
   -9   20    2      4.41      0.00
  -10   20    2      1.70      0.00
    5   21    2      1.65      0.00
    4   21    2      2.22      0.00
    3   21    2     -5.93      0.00
    2   21    2     -5.57      0.00
    1   21    2     -1.65      0.00
    0   21    2     -1.10      0.00
   -1   21    2      3.07      0.00
   -2   21    2      2.26      0.00
   -3   21    2     -2.51      0.00
   -4   21    2      5.76      0.00
   -5   21    2     -0.95      0.00
   -6   21    2     -2.10      0.00
   -7   21    2      0.68      0.00
   -8   21    2     -0.24      0.00
   -9   21    2      5.72      0.00
  -10   21    2      7.78      0.00
    3   22    2     -2.15      0.00
    2   22    2     -1.11      0.00
    1   22    2      1.03      0.00
    0   22    2     -8.25      0.00
   -1   22    2     -1.08      0.00
   -2   22    2     -3.03      0.00
   -3   22    2     -0.37      0.00
   -4   22    2     -0.23      0.00
   -5   22    2      2.43      0.00
   -6   22    2     -4.95      0.00
   -7   22    2      2.57      0.00
   -8   22    2      2.09      0.00
   -9   22    2      2.94      0.00
  -10   22    2      0.07      0.00
  -11   22    2     -0.33      0.00
    2   23    2      0.48      0.00
    1   23    2      0.36      0.00
    0   23    2     -2.02      0.00
   -1   23    2     -1.48      0.00
   -2   23    2     -6.78      0.00
   -3   23    2    -11.90      0.00
   -4   23    2     -0.47      0.00
   -5   23    2      1.22      0.00
   -6   23    2      0.15      0.00
   -7   23    2     -0.09      0.00
   -8   23    2      1.43      0.00
   -9   23    2      7.63      0.00
  -10   23    2      1.23      0.00
  -11   23    2      5.33      0.00
    0   24    2     -0.36      0.00
   -1   24    2      0.37      0.00
   -2   24    2     -3.46      0.00
   -3   24    2     -5.24      0.00
   -4   24    2     -4.96      0.00
   -5   24    2      0.83      0.00
   -6   24    2     -5.18      0.00
   -7   24    2     -1.99      0.00
   -8   24    2     -2.40      0.00
   -9   24    2     -0.05      0.00
  -10   24    2      3.84      0.00
  -11   24    2     -0.96      0.00
  -12   24    2     -2.76      0.00
   -2   25    2     -1.20      0.00
   -3   25    2     -7.00      0.00
   -4   25    2      2.08      0.00
   -5   25    2      0.98      0.00
   -6   25    2     -4.12      0.00
   -7   25    2     -5.02      0.00
   -8   25    2      3.42      0.00
   -9   25    2      2.62      0.00
  -10   25    2      7.47      0.00
  -11   25    2     -2.06      0.00
  -12   25    2     -2.31      0.00
   -5   26    2     -4.37      0.00
   -6   26    2      1.45      0.00
   -7   26    2     -8.70      0.00
   -8   26    2      0.74      0.00
   -9   26    2     10.33      0.00
  -10   26    2      1.85      0.00
  -11   26    2     11.99      0.00
  -12   26    2      3.22      0.00
  -13   26    2     -2.25      0.00
   -8   27    2     -1.68      0.00
   -9   27    2      2.89      0.00
  -10   27    2      1.09      0.00
  -11   27    2     -2.12      0.00
  -12   27    2      6.21      0.00
  -13   27    2     11.89      0.00
    0    0    3     -8.14      0.00
    0    1    3     -9.37      0.00
    1    1    3     22.98      0.00
    1    2    3     12.97      0.00
    0    2    3    -16.27      0.00
   -1    2    3    -28.09      0.00
    2    2    3     -5.86      0.00
    2    3    3    -28.83      0.00
    1    3    3     -1.70      0.00
    0    3    3     53.42      0.00
   -1    3    3      3.37      0.00
    3    3    3    -11.53      0.00
    3    4    3     10.56      0.00
    2    4    3     17.61      0.00
    1    4    3     28.65      0.00
    0    4    3    -22.79      0.00
   -1    4    3      8.84      0.00
   -2    4    3     40.83      0.00
    4    4    3     -1.45      0.00
    4    5    3      4.40      0.00
    3    5    3    -10.29      0.00
    2    5    3    -16.41      0.00
    1    5    3     -2.34      0.00
    0    5    3      8.88      0.00
   -1    5    3    -29.56      0.00
   -2    5    3    -12.60      0.00
    5    5    3      7.73      0.00
    5    6    3      5.59      0.00
    4    6    3     11.04      0.00
    3    6    3      1.02      0.00
    2    6    3     -9.98      0.00
    1    6    3     14.92      0.00
    0    6    3     -4.15      0.00
   -1    6    3     -4.99      0.00
   -2    6    3     12.10      0.00
   -3    6    3     -4.09      0.00
    6    6    3     -7.68      0.00
    6    7    3      0.18      0.00
    5    7    3     -3.24      0.00
    4    7    3     17.32      0.00
    3    7    3      3.62      0.00
    2    7    3     -5.03      0.00
    1    7    3     -3.84      0.00
    0    7    3    -15.62      0.00
   -1    7    3     14.91      0.00
   -2    7    3      9.76      0.00
   -3    7    3      4.27      0.00
    7    7    3     -7.41      0.00
    7    8    3     -6.08      0.00
    6    8    3     -4.91      0.00
    5    8    3     -6.92      0.00
    4    8    3      3.45      0.00
    3    8    3      0.46      0.00
    2    8    3     -0.62      0.00
    1    8    3      1.70      0.00
    0    8    3    -21.72      0.00
   -1    8    3      7.40      0.00
   -2    8    3     17.02      0.00
   -3    8    3      5.09      0.00
   -4    8    3    -11.86      0.00
    8    8    3     -3.10      0.00
    8    9    3      5.92      0.00
    7    9    3      2.29      0.00
    6    9    3      0.41      0.00
    5    9    3     -9.74      0.00
    4    9    3      3.87      0.00
    3    9    3      3.43      0.00
    2    9    3      4.76      0.00
    1    9    3      3.84      0.00
    0    9    3    -13.75      0.00
   -1    9    3     -5.09      0.00
   -2    9    3      2.60      0.00
   -3    9    3     -6.05      0.00
   -4    9    3      3.88      0.00
    9    9    3      2.97      0.00
    9   10    3     -4.93      0.00
    8   10    3      0.67      0.00
    7   10    3      9.57      0.00
    6   10    3      9.03      0.00
    5   10    3      7.22      0.00
    4   10    3     11.40      0.00
    3   10    3      3.64      0.00
    2   10    3     18.79      0.00
    1   10    3     13.55      0.00
    0   10    3      3.87      0.00
   -1   10    3     11.89      0.00
   -2   10    3      6.96      0.00
   -3   10    3      6.46      0.00
   -4   10    3      0.48      0.00
   -5   10    3     32.22      0.00
   10   10    3     -3.76      0.00
   10   11    3     -2.96      0.00
    9   11    3     -0.06      0.00
    8   11    3     -4.69      0.00
    7   11    3      3.40      0.00
    6   11    3     -2.05      0.00
    5   11    3      1.27      0.00
    4   11    3      2.07      0.00
    3   11    3     -7.73      0.00
    2   11    3      6.12      0.00
    1   11    3     11.25      0.00
    0   11    3      5.19      0.00
   -1   11    3     -1.12      0.00
   -2   11    3      9.81      0.00
   -3   11    3     -3.16      0.00
   -4   11    3      5.32      0.00
   -5   11    3      4.95      0.00
   11   11    3     -2.36      0.00
   11   12    3      1.11      0.00
   10   12    3      1.70      0.00
    9   12    3      2.12      0.00
    8   12    3      1.13      0.00
    7   12    3      2.27      0.00
    6   12    3      3.75      0.00
    5   12    3      3.90      0.00
    4   12    3      9.47      0.00
    3   12    3      0.11      0.00
    2   12    3     -3.70      0.00
    1   12    3      4.01      0.00
    0   12    3     -9.02      0.00
   -1   12    3      5.31      0.00
   -2   12    3      4.52      0.00
   -3   12    3      0.63      0.00
   -4   12    3      5.76      0.00
   -5   12    3      7.67      0.00
   -6   12    3    -22.25      0.00
   12   12    3     10.54      0.00
   12   13    3     -2.12      0.00
   11   13    3     -1.17      0.00
   10   13    3     -3.56      0.00
    9   13    3     -5.99      0.00
    8   13    3      0.90      0.00
    7   13    3     -3.91      0.00
    6   13    3      1.08      0.00
    5   13    3      5.74      0.00
    4   13    3      5.92      0.00
    3   13    3      1.49      0.00
    2   13    3     -1.46      0.00
    1   13    3     -2.16      0.00
    0   13    3     -6.71      0.00
   -1   13    3     -5.91      0.00
   -2   13    3      0.40      0.00
   -3   13    3     -8.58      0.00
   -4   13    3     -2.14      0.00
   -5   13    3      1.46      0.00
   -6   13    3    -13.24      0.00
   13   13    3     -6.64      0.00
   13   14    3     -5.93      0.00
   12   14    3     -0.91      0.00
   11   14    3      1.78      0.00
   10   14    3     -9.88      0.00
    9   14    3     -7.77      0.00
    8   14    3     -4.16      0.00
    7   14    3     -7.09      0.00
    6   14    3      2.52      0.00
    5   14    3     -5.61      0.00
    4   14    3      5.12      0.00
    3   14    3     -1.12      0.00
    2   14    3     -1.15      0.00
    1   14    3      3.93      0.00
    0   14    3     -7.45      0.00
   -1   14    3     -5.28      0.00
   -2   14    3     -0.79      0.00
   -3   14    3     -5.75      0.00
   -4   14    3     -0.31      0.00
   -5   14    3      3.35      0.00
   -6   14    3     -7.28      0.00
   -7   14    3     -6.04      0.00
   12   15    3     -2.72      0.00
   11   15    3      0.80      0.00
   10   15    3     -3.46      0.00
    9   15    3     -5.24      0.00
    8   15    3     -4.26      0.00
    7   15    3     -2.11      0.00
    6   15    3     -4.09      0.00
    5   15    3     -2.64      0.00
    4   15    3     -4.12      0.00
    3   15    3     -2.25      0.00
    2   15    3     -3.22      0.00
    1   15    3     -1.10      0.00
    0   15    3     -2.72      0.00
   -1   15    3    -10.68      0.00
   -2   15    3     -6.76      0.00
   -3   15    3     -5.09      0.00
   -4   15    3     -1.52      0.00
   -5   15    3      2.68      0.00
   -6   15    3     -5.29      0.00
   -7   15    3     -7.93      0.00
   11   16    3     -6.62      0.00
   10   16    3     -0.43      0.00
    9   16    3     -4.94      0.00
    8   16    3     -8.16      0.00
    7   16    3      4.47      0.00
    6   16    3      1.90      0.00
    5   16    3     -0.78      0.00
    4   16    3      1.09      0.00
    3   16    3     -1.88      0.00
    2   16    3      2.15      0.00
    1   16    3      7.54      0.00
    0   16    3      1.89      0.00
   -1   16    3     -0.83      0.00
   -2   16    3     -2.63      0.00
   -3   16    3     -2.69      0.00
   -4   16    3      3.18      0.00
   -5   16    3     11.20      0.00
   -6   16    3      3.50      0.00
   -7   16    3      4.54      0.00
   -8   16    3      2.03      0.00
   10   17    3      3.21      0.00
    9   17    3     -1.39      0.00
    8   17    3     -5.48      0.00
    7   17    3     -0.33      0.00
    6   17    3      2.45      0.00
    5   17    3     -1.61      0.00
    4   17    3     -4.56      0.00
    3   17    3     -2.53      0.00
    2   17    3      0.68      0.00
    1   17    3      6.56      0.00
    0   17    3      3.32      0.00
   -1   17    3      3.07      0.00
   -2   17    3      5.10      0.00
   -3   17    3     -5.89      0.00
   -4   17    3      0.90      0.00
   -5   17    3      5.23      0.00
   -6   17    3      3.66      0.00
   -7   17    3      5.36      0.00
   -8   17    3      5.02      0.00
    9   18    3     -3.37      0.00
    8   18    3      0.11      0.00
    7   18    3      0.66      0.00
    6   18    3      1.77      0.00
    5   18    3     -1.90      0.00
    4   18    3     -1.46      0.00
    3   18    3     -6.08      0.00
    2   18    3     -2.83      0.00
    1   18    3      4.88      0.00
    0   18    3     -0.01      0.00
   -1   18    3      1.44      0.00
   -2   18    3      4.41      0.00
   -3   18    3      2.70      0.00
   -4   18    3     -6.07      0.00
   -5   18    3      4.40      0.00
   -6   18    3     -0.09      0.00
   -7   18    3      4.14      0.00
   -8   18    3     -0.73      0.00
   -9   18    3      3.57      0.00
    8   19    3     -9.16      0.00
    7   19    3      4.45      0.00
    6   19    3      3.01      0.00
    5   19    3     -0.30      0.00
    4   19    3     -1.32      0.00
    3   19    3     -4.22      0.00
    2   19    3     -1.17      0.00
    1   19    3      5.79      0.00
    0   19    3     -0.08      0.00
   -1   19    3     -0.06      0.00
   -2   19    3      4.06      0.00
   -3   19    3     -1.88      0.00
   -4   19    3     -0.24      0.00
   -5   19    3     -2.32      0.00
   -6   19    3      1.33      0.00
   -7   19    3      4.75      0.00
   -8   19    3     -3.91      0.00
   -9   19    3     -8.25      0.00
    6   20    3      4.24      0.00
    5   20    3     -0.23      0.00
    4   20    3     -4.02      0.00
    3   20    3     -0.29      0.00
    2   20    3     -1.26      0.00
    1   20    3      3.74      0.00
    0   20    3      5.04      0.00
   -1   20    3      2.92      0.00
   -2   20    3     -2.27      0.00
   -3   20    3     -0.22      0.00
   -4   20    3     -5.72      0.00
   -5   20    3      4.78      0.00
   -6   20    3     -1.17      0.00
   -7   20    3     -6.71      0.00
   -8   20    3     -1.53      0.00
   -9   20    3      4.84      0.00
  -10   20    3     -1.13      0.00
    5   21    3     -1.75      0.00
    4   21    3     -1.61      0.00
    3   21    3     -5.60      0.00
    2   21    3      2.14      0.00
    1   21    3     -0.75      0.00
    0   21    3     -1.04      0.00
   -1   21    3     -0.91      0.00
   -2   21    3      1.43      0.00
   -3   21    3     -0.39      0.00
   -4   21    3     -3.93      0.00
   -5   21    3     -0.94      0.00
   -6   21    3     -6.55      0.00
   -7   21    3     -2.50      0.00
   -8   21    3     -3.07      0.00
   -9   21    3      0.84      0.00
  -10   21    3     -3.70      0.00
    3   22    3      3.97      0.00
    2   22    3      5.77      0.00
    1   22    3      4.14      0.00
    0   22    3     -2.39      0.00
   -1   22    3     -0.31      0.00
   -2   22    3      2.61      0.00
   -3   22    3     -2.05      0.00
   -4   22    3      6.75      0.00
   -5   22    3      2.19      0.00
   -6   22    3     -0.27      0.00
   -7   22    3     -3.59      0.00
   -8   22    3     -2.84      0.00
   -9   22    3     -2.74      0.00
  -10   22    3     -3.50      0.00
  -11   22    3      0.86      0.00
    1   23    3      4.29      0.00
    0   23    3     -4.28      0.00
   -1   23    3     -2.83      0.00
   -2   23    3      3.44      0.00
   -3   23    3     -4.46      0.00
   -4   23    3      0.41      0.00
   -5   23    3      2.96      0.00
   -6   23    3      0.83      0.00
   -7   23    3     -1.62      0.00
   -8   23    3     -1.42      0.00
   -9   23    3     -5.02      0.00
  -10   23    3      1.66      0.00
  -11   23    3     -0.52      0.00
    2   23    3      4.65      0.00
    0   24    3      2.57      0.00
   -1   24    3     -4.65      0.00
   -2   24    3      0.44      0.00
   -3   24    3     -5.01      0.00
   -4   24    3      0.40      0.00
   -5   24    3      5.12      0.00
   -6   24    3      3.95      0.00
   -7   24    3      3.36      0.00
   -8   24    3    -11.77      0.00
   -9   24    3     -6.24      0.00
  -10   24    3     -8.80      0.00
  -11   24    3      2.84      0.00
  -12   24    3      6.17      0.00
   -3   25    3     -1.77      0.00
   -4   25    3     -6.93      0.00
   -5   25    3      2.54      0.00
   -6   25    3      4.12      0.00
   -7   25    3     -0.27      0.00
   -8   25    3      3.94      0.00
   -9   25    3     -1.70      0.00
  -10   25    3     -0.79      0.00
  -11   25    3      4.38      0.00
  -12   25    3      1.52      0.00
   -5   26    3      6.80      0.00
   -6   26    3     -0.20      0.00
   -7   26    3     -4.24      0.00
   -8   26    3      3.46      0.00
   -9   26    3      8.18      0.00
  -10   26    3     -0.67      0.00
  -11   26    3      4.01      0.00
  -12   26    3      6.06      0.00
  -13   26    3      9.39      0.00
   -8   27    3    -11.07      0.00
   -9   27    3      2.54      0.00
  -10   27    3      0.85      0.00
  -11   27    3     -4.22      0.00
  -12   27    3      2.58      0.00
  -13   27    3      1.57      0.00
    0    0    4     56.26      0.00
    0    1    4      3.20      0.00
    1    1    4    -13.63      0.00
    1    2    4     11.72      0.00
    0    2    4    -16.65      0.00
   -1    2    4    -52.84      0.00
    2    2    4    -47.85      0.00
    2    3    4    -13.18      0.00
    1    3    4      2.79      0.00
    0    3    4      7.65      0.00
   -1    3    4     19.12      0.00
    3    3    4     21.18      0.00
    3    4    4      6.42      0.00
    2    4    4    -23.76      0.00
    1    4    4      6.89      0.00
    0    4    4     -4.21      0.00
   -1    4    4     -7.52      0.00
   -2    4    4     -6.85      0.00
    4    4    4     16.33      0.00
    4    5    4     -6.70      0.00
    3    5    4      2.91      0.00
    2    5    4     -1.65      0.00
    1    5    4      3.50      0.00
    0    5    4    -10.85      0.00
   -1    5    4    -36.09      0.00
   -2    5    4    -12.10      0.00
    5    5    4     -1.52      0.00
    5    6    4     -3.05      0.00
    4    6    4     -1.42      0.00
    3    6    4      4.80      0.00
    2    6    4      3.63      0.00
    1    6    4     12.22      0.00
    0    6    4     20.76      0.00
   -1    6    4      5.28      0.00
   -2    6    4     -6.20      0.00
   -3    6    4     38.45      0.00
    6    6    4      6.54      0.00
    6    7    4      6.08      0.00
    5    7    4     -1.16      0.00
    4    7    4     -3.59      0.00
    3    7    4    -14.53      0.00
    2    7    4     -1.59      0.00
    1    7    4     16.87      0.00
    0    7    4      6.03      0.00
   -1    7    4      1.61      0.00
   -2    7    4     24.21      0.00
   -3    7    4     22.16      0.00
    7    7    4      6.16      0.00
    7    8    4     -4.02      0.00
    6    8    4      4.89      0.00
    5    8    4     -0.56      0.00
    4    8    4     -1.27      0.00
    3    8    4     -0.69      0.00
    2    8    4    -10.49      0.00
    1    8    4     10.96      0.00
    0    8    4      5.61      0.00
   -1    8    4      0.29      0.00
   -2    8    4     11.49      0.00
   -3    8    4     15.87      0.00
   -4    8    4      1.15      0.00
    8    8    4      0.49      0.00
    8    9    4      0.11      0.00
    7    9    4      3.78      0.00
    6    9    4      7.76      0.00
    5    9    4      7.40      0.00
    4    9    4      4.60      0.00
    3    9    4     -1.17      0.00
    2    9    4    -10.95      0.00
    1    9    4      1.25      0.00
    0    9    4      4.40      0.00
   -1    9    4     -2.95      0.00
   -2    9    4      7.32      0.00
   -3    9    4      2.19      0.00
   -4    9    4     -4.78      0.00
    9    9    4      0.30      0.00
    9   10    4     -3.96      0.00
    8   10    4      1.35      0.00
    7   10    4     -3.28      0.00
    6   10    4      3.59      0.00
    5   10    4      2.61      0.00
    4   10    4      5.68      0.00
    3   10    4      4.77      0.00
    2   10    4     -9.89      0.00
    1   10    4     -1.17      0.00
    0   10    4     -7.32      0.00
   -1   10    4     -3.40      0.00
   -2   10    4      4.97      0.00
   -3   10    4     -7.48      0.00
   -4   10    4    -12.62      0.00
   -5   10    4      7.21      0.00
   10   10    4     -3.13      0.00
   10   11    4      0.17      0.00
    9   11    4      0.33      0.00
    8   11    4     -4.15      0.00
    7   11    4     -8.40      0.00
    6   11    4     -3.90      0.00
    5   11    4     -0.02      0.00
    4   11    4     11.70      0.00
    3   11    4      0.38      0.00
    2   11    4     -9.17      0.00
    1   11    4     -5.71      0.00
    0   11    4    -10.17      0.00
   -1   11    4    -10.95      0.00
   -2   11    4     -5.00      0.00
   -3   11    4     -3.71      0.00
   -4   11    4    -14.50      0.00
   -5   11    4     -5.87      0.00
   11   11    4      3.90      0.00
   11   12    4      1.43      0.00
   10   12    4      0.87      0.00
    9   12    4      5.85      0.00
    8   12    4      0.88      0.00
    7   12    4     -2.84      0.00
    6   12    4      0.34      0.00
    5   12    4     -4.94      0.00
    4   12    4     10.70      0.00
    3   12    4      9.88      0.00
    2   12    4     -1.21      0.00
    1   12    4      4.91      0.00
    0   12    4      4.49      0.00
   -1   12    4     -7.98      0.00
   -2   12    4      0.35      0.00
   -3   12    4      6.98      0.00
   -4   12    4     -6.51      0.00
   -5   12    4      4.40      0.00
   -6   12    4     -0.37      0.00
   12   12    4      2.28      0.00
   12   13    4     -1.55      0.00
   11   13    4     -5.20      0.00
   10   13    4     -6.04      0.00
    9   13    4      1.24      0.00
    8   13    4     -2.47      0.00
    7   13    4      2.64      0.00
    6   13    4     -3.97      0.00
    5   13    4     -4.01      0.00
    4   13    4     -2.02      0.00
    3   13    4      9.60      0.00
    2   13    4      1.06      0.00
    1   13    4      4.03      0.00
    0   13    4      2.54      0.00
   -1   13    4     -2.55      0.00
   -2   13    4     -0.58      0.00
   -3   13    4     -1.74      0.00
   -4   13    4     -3.06      0.00
   -5   13    4      3.42      0.00
   -6   13    4      2.39      0.00
   13   13    4      0.22      0.00
   13   14    4     -1.49      0.00
   12   14    4      3.52      0.00
   11   14    4      0.39      0.00
   10   14    4     -1.82      0.00
    9   14    4     -5.80      0.00
    8   14    4     -0.91      0.00
    7   14    4      1.68      0.00
    6   14    4      2.20      0.00
    5   14    4      1.46      0.00
    4   14    4      0.64      0.00
    3   14    4      4.87      0.00
    2   14    4     -0.39      0.00
    1   14    4      1.01      0.00
    0   14    4      2.86      0.00
   -1   14    4      7.26      0.00
   -2   14    4      2.02      0.00
   -3   14    4      3.12      0.00
   -4   14    4     -3.53      0.00
   -5   14    4     12.02      0.00
   -6   14    4      3.97      0.00
   -7   14    4      4.26      0.00
   12   15    4      3.13      0.00
   11   15    4      1.27      0.00
   10   15    4      4.88      0.00
    9   15    4     -0.54      0.00
    8   15    4      0.07      0.00
    7   15    4     -1.00      0.00
    6   15    4      2.67      0.00
    5   15    4     -1.31      0.00
    4   15    4      3.36      0.00
    3   15    4      5.62      0.00
    2   15    4     -6.09      0.00
    1   15    4      1.15      0.00
    0   15    4     -4.05      0.00
   -1   15    4     -1.22      0.00
   -2   15    4      2.94      0.00
   -3   15    4     -1.41      0.00
   -4   15    4     -3.77      0.00
   -5   15    4      5.10      0.00
   -6   15    4      5.18      0.00
   -7   15    4     -1.01      0.00
   11   16    4     -8.30      0.00
   10   16    4     -0.16      0.00
    9   16    4     -1.56      0.00
    8   16    4     -0.06      0.00
    7   16    4      0.74      0.00
    6   16    4     -0.40      0.00
    5   16    4     -3.24      0.00
    4   16    4      5.35      0.00
    3   16    4      5.43      0.00
    2   16    4     -3.80      0.00
    1   16    4     -2.96      0.00
    0   16    4      1.84      0.00
   -1   16    4      0.42      0.00
   -2   16    4      0.02      0.00
   -3   16    4      9.27      0.00
   -4   16    4     -5.09      0.00
   -5   16    4     -3.17      0.00
   -6   16    4      3.62      0.00
   -7   16    4      5.39      0.00
   -8   16    4     -0.45      0.00
   10   17    4    -13.51      0.00
    9   17    4      4.14      0.00
    8   17    4     -5.22      0.00
    7   17    4      2.22      0.00
    6   17    4      1.41      0.00
    5   17    4     -6.22      0.00
    4   17    4     -3.52      0.00
    3   17    4      4.34      0.00
    2   17    4     -1.11      0.00
    1   17    4     -6.52      0.00
    0   17    4     -1.76      0.00
   -1   17    4     -2.39      0.00
   -2   17    4     -2.07      0.00
   -3   17    4      1.50      0.00
   -4   17    4     -7.24      0.00
   -5   17    4     -4.70      0.00
   -6   17    4     -9.21      0.00
   -7   17    4     -5.34      0.00
   -8   17    4     -1.25      0.00
    9   18    4     -7.70      0.00
    8   18    4     -2.02      0.00
    7   18    4      6.89      0.00
    6   18    4      5.96      0.00
    5   18    4     -0.02      0.00
    4   18    4     -4.69      0.00
    3   18    4      2.90      0.00
    2   18    4      2.52      0.00
    1   18    4     -4.55      0.00
    0   18    4      1.45      0.00
   -1   18    4     -1.24      0.00
   -2   18    4     -2.26      0.00
   -3   18    4     -0.41      0.00
   -4   18    4     -6.14      0.00
   -5   18    4      0.77      0.00
   -6   18    4      0.47      0.00
   -7   18    4     -8.76      0.00
   -8   18    4     -4.28      0.00
   -9   18    4     -2.15      0.00
    7   19    4      1.09      0.00
    6   19    4      4.03      0.00
    5   19    4     -0.89      0.00
    4   19    4     -1.19      0.00
    3   19    4      3.53      0.00
    2   19    4     -0.68      0.00
    1   19    4      3.04      0.00
    0   19    4      5.08      0.00
   -1   19    4      0.68      0.00
   -2   19    4     -2.51      0.00
   -3   19    4     -2.62      0.00
   -4   19    4     -7.39      0.00
   -5   19    4      2.35      0.00
   -6   19    4     -1.30      0.00
   -7   19    4     -4.62      0.00
   -8   19    4     -5.74      0.00
   -9   19    4     -2.62      0.00
    6   20    4      4.95      0.00
    5   20    4     -3.46      0.00
    4   20    4     -0.57      0.00
    3   20    4      0.29      0.00
    2   20    4      4.82      0.00
    1   20    4     -1.82      0.00
    0   20    4      4.87      0.00
   -1   20    4      1.85      0.00
   -2   20    4      2.88      0.00
   -3   20    4     -5.96      0.00
   -4   20    4     -0.63      0.00
   -5   20    4     -4.93      0.00
   -6   20    4     -1.15      0.00
   -7   20    4      7.08      0.00
   -8   20    4      1.01      0.00
   -9   20    4      5.03      0.00
  -10   20    4     -0.84      0.00
    4   21    4      1.01      0.00
    3   21    4      4.17      0.00
    2   21    4     -1.27      0.00
    1   21    4     -3.12      0.00
    0   21    4     -2.58      0.00
   -1   21    4      2.79      0.00
   -2   21    4      4.97      0.00
   -3   21    4      0.06      0.00
   -4   21    4     -1.04      0.00
   -5   21    4      0.99      0.00
   -6   21    4      1.15      0.00
   -7   21    4     -5.85      0.00
   -8   21    4      2.95      0.00
   -9   21    4      3.94      0.00
  -10   21    4      4.23      0.00
    3   22    4      4.83      0.00
    2   22    4      7.72      0.00
    1   22    4      0.50      0.00
    0   22    4     -3.24      0.00
   -1   22    4      1.43      0.00
   -2   22    4      0.90      0.00
   -3   22    4      3.28      0.00
   -4   22    4     -1.03      0.00
   -5   22    4      4.92      0.00
   -6   22    4      1.83      0.00
   -7   22    4      7.64      0.00
   -8   22    4      0.21      0.00
   -9   22    4      8.23      0.00
  -10   22    4      0.83      0.00
  -11   22    4      2.44      0.00
    1   23    4      2.63      0.00
    0   23    4      0.41      0.00
   -1   23    4      4.40      0.00
   -2   23    4      1.36      0.00
   -3   23    4     -2.24      0.00
   -4   23    4     -1.98      0.00
   -5   23    4     -2.10      0.00
   -6   23    4     -2.86      0.00
   -7   23    4     -1.28      0.00
   -8   23    4     -0.84      0.00
   -9   23    4     -1.01      0.00
  -10   23    4     -0.28      0.00
  -11   23    4      4.60      0.00
   -1   24    4      3.78      0.00
   -2   24    4      7.56      0.00
   -3   24    4      0.18      0.00
   -4   24    4     -5.18      0.00
   -5   24    4     -0.76      0.00
   -6   24    4     -4.32      0.00
   -7   24    4     -3.72      0.00
   -8   24    4     -1.29      0.00
   -9   24    4     -1.86      0.00
  -10   24    4     -1.82      0.00
  -11   24    4     -3.88      0.00
  -12   24    4     -2.91      0.00
   -3   25    4      0.42      0.00
   -4   25    4     -3.83      0.00
   -5   25    4     -3.76      0.00
   -6   25    4     -5.45      0.00
   -7   25    4     -0.57      0.00
   -8   25    4      1.39      0.00
   -9   25    4      1.82      0.00
  -10   25    4      0.45      0.00
  -11   25    4      1.37      0.00
  -12   25    4     -5.59      0.00
   -6   26    4      0.98      0.00
   -7   26    4     -1.55      0.00
   -8   26    4      3.40      0.00
   -9   26    4      9.03      0.00
  -10   26    4      2.99      0.00
  -11   26    4      3.64      0.00
  -12   26    4     -2.08      0.00
  -13   26    4      0.33      0.00
   -9   27    4     11.01      0.00
  -10   27    4     -4.91      0.00
  -11   27    4     -5.67      0.00
  -12   27    4      1.02      0.00
  -13   27    4     -4.71      0.00
    0    0    5    -22.16      0.00
    0    1    5    -21.00      0.00
    1    1    5    -19.93      0.00
    1    2    5      6.03      0.00
    0    2    5    -10.07      0.00
   -1    2    5    -17.93      0.00
    2    2    5     -2.38      0.00
    2    3    5      8.87      0.00
    1    3    5     27.27      0.00
    0    3    5     46.55      0.00
   -1    3    5     16.10      0.00
    3    3    5      3.37      0.00
    3    4    5     -0.95      0.00
    2    4    5     -8.62      0.00
    1    4    5      5.14      0.00
    0    4    5     27.62      0.00
   -1    4    5     10.97      0.00
   -2    4    5    -10.69      0.00
    4    4    5    -14.58      0.00
    4    5    5      8.89      0.00
    3    5    5     10.38      0.00
    2    5    5    -18.88      0.00
    1    5    5      9.48      0.00
    0    5    5     26.65      0.00
   -1    5    5     -3.07      0.00
   -2    5    5     -6.99      0.00
    5    5    5     -1.52      0.00
    5    6    5      8.57      0.00
    4    6    5     -0.48      0.00
    3    6    5     -5.14      0.00
    2    6    5     -4.19      0.00
    1    6    5    -19.66      0.00
    0    6    5     -6.36      0.00
   -1    6    5      6.05      0.00
   -2    6    5     -8.56      0.00
   -3    6    5      8.62      0.00
    6    6    5      3.18      0.00
    6    7    5     -0.43      0.00
    5    7    5     -1.24      0.00
    4    7    5      0.13      0.00
    3    7    5      7.11      0.00
    2    7    5     -7.65      0.00
    1    7    5     -5.92      0.00
    0    7    5    -16.45      0.00
   -1    7    5    -18.91      0.00
   -2    7    5    -14.67      0.00
   -3    7    5      5.73      0.00
    7    7    5     -3.95      0.00
    7    8    5     -5.31      0.00
    6    8    5      1.02      0.00
    5    8    5     -5.35      0.00
    4    8    5      3.36      0.00
    3    8    5      6.61      0.00
    2    8    5     -3.61      0.00
    1    8    5      6.60      0.00
    0    8    5     -0.74      0.00
   -1    8    5    -15.27      0.00
   -2    8    5    -11.38      0.00
   -3    8    5      2.59      0.00
   -4    8    5     -6.09      0.00
    8    8    5      0.38      0.00
    8    9    5      6.84      0.00
    7    9    5      4.67      0.00
    6    9    5     -0.08      0.00
    5    9    5     -4.89      0.00
    4    9    5    -10.46      0.00
    3    9    5      6.00      0.00
    2    9    5     -7.06      0.00
    1    9    5     -0.28      0.00
    0    9    5     16.28      0.00
   -1    9    5     -0.36      0.00
   -2    9    5    -12.07      0.00
   -3    9    5      3.68      0.00
   -4    9    5      6.51      0.00
    9    9    5      4.35      0.00
    9   10    5      0.22      0.00
    8   10    5      0.22      0.00
    7   10    5      0.45      0.00
    6   10    5      2.17      0.00
    5   10    5      2.16      0.00
    4   10    5     -1.17      0.00
    3   10    5      0.89      0.00
    2   10    5     -4.99      0.00
    1   10    5     -1.62      0.00
    0   10    5     -0.70      0.00
   -1   10    5     -3.17      0.00
   -2   10    5     -6.47      0.00
   -3   10    5      7.61      0.00
   -4   10    5      3.60      0.00
   -5   10    5      1.37      0.00
   10   10    5     -1.60      0.00
   10   11    5     -6.41      0.00
    9   11    5      1.25      0.00
    8   11    5      3.62      0.00
    7   11    5      5.02      0.00
    6   11    5     -0.45      0.00
    5   11    5      4.63      0.00
    4   11    5     -2.71      0.00
    3   11    5     10.78      0.00
    2   11    5     -2.68      0.00
    1   11    5      0.96      0.00
    0   11    5      4.89      0.00
   -1   11    5     -0.67      0.00
   -2   11    5      0.83      0.00
   -3   11    5      7.39      0.00
   -4   11    5     -1.12      0.00
   -5   11    5      4.57      0.00
   11   11    5     -4.19      0.00
   11   12    5      0.02      0.00
   10   12    5     -0.63      0.00
    9   12    5     -2.85      0.00
    8   12    5      3.30      0.00
    7   12    5      3.58      0.00
    6   12    5      0.86      0.00
    5   12    5     -2.25      0.00
    4   12    5      1.76      0.00
    3   12    5      5.25      0.00
    2   12    5     -3.39      0.00
    1   12    5     -1.93      0.00
    0   12    5      1.34      0.00
   -1   12    5      7.63      0.00
   -2   12    5     -2.27      0.00
   -3   12    5      8.15      0.00
   -4   12    5      6.04      0.00
   -5   12    5     -0.75      0.00
   -6   12    5      0.98      0.00
   12   12    5      4.85      0.00
   12   13    5      3.56      0.00
   11   13    5      3.71      0.00
   10   13    5     -4.63      0.00
    9   13    5     -4.16      0.00
    8   13    5      0.10      0.00
    7   13    5      0.29      0.00
    6   13    5      7.73      0.00
    5   13    5     -3.03      0.00
    4   13    5     -4.90      0.00
    3   13    5     -0.34      0.00
    2   13    5     -8.66      0.00
    1   13    5     -7.07      0.00
    0   13    5     -3.32      0.00
   -1   13    5     -0.44      0.00
   -2   13    5     -8.57      0.00
   -3   13    5      1.56      0.00
   -4   13    5     -7.64      0.00
   -5   13    5     -4.12      0.00
   -6   13    5     -3.94      0.00
   13   13    5      5.74      0.00
   13   14    5      9.90      0.00
   12   14    5     11.21      0.00
   11   14    5      2.02      0.00
   10   14    5     -1.35      0.00
    9   14    5      3.43      0.00
    8   14    5     -1.03      0.00
    7   14    5      0.86      0.00
    6   14    5      5.71      0.00
    5   14    5      1.44      0.00
    4   14    5     -0.03      0.00
    3   14    5     -1.11      0.00
    2   14    5      1.46      0.00
    1   14    5    -10.66      0.00
    0   14    5      2.75      0.00
   -1   14    5     -2.14      0.00
   -2   14    5     -5.73      0.00
   -3   14    5      1.84      0.00
   -4   14    5     -5.20      0.00
   -5   14    5     -5.98      0.00
   -6   14    5     -3.60      0.00
   -7   14    5      0.81      0.00
   12   15    5      3.59      0.00
   11   15    5      7.67      0.00
   10   15    5      1.85      0.00
    9   15    5      4.16      0.00
    8   15    5      3.40      0.00
    7   15    5      2.56      0.00
    6   15    5      0.62      0.00
    5   15    5      5.16      0.00
    4   15    5     -5.90      0.00
    3   15    5      1.91      0.00
    2   15    5      1.00      0.00
    1   15    5     -3.77      0.00
    0   15    5     -2.61      0.00
   -1   15    5     -1.32      0.00
   -2   15    5     -5.73      0.00
   -3   15    5      0.89      0.00
   -4   15    5     -3.92      0.00
   -5   15    5     -0.07      0.00
   -6   15    5     -2.80      0.00
   -7   15    5     -5.12      0.00
   11   16    5     -5.14      0.00
   10   16    5      2.23      0.00
    9   16    5      3.51      0.00
    8   16    5      2.48      0.00
    7   16    5      2.00      0.00
    6   16    5      1.16      0.00
    5   16    5     -1.18      0.00
    4   16    5     -1.58      0.00
    3   16    5      0.65      0.00
    2   16    5      0.96      0.00
    1   16    5     -0.90      0.00
    0   16    5      3.74      0.00
   -1   16    5     -0.95      0.00
   -2   16    5     -0.12      0.00
   -3   16    5     -4.41      0.00
   -4   16    5     -1.94      0.00
   -5   16    5      3.82      0.00
   -6   16    5     -1.17      0.00
   -7   16    5      0.58      0.00
   -8   16    5     -2.25      0.00
   10   17    5      3.36      0.00
    9   17    5     -1.64      0.00
    8   17    5      3.63      0.00
    7   17    5      5.31      0.00
    6   17    5      1.66      0.00
    5   17    5      3.84      0.00
    4   17    5     -0.06      0.00
    3   17    5      1.87      0.00
    2   17    5     -3.49      0.00
    1   17    5     -1.13      0.00
    0   17    5      2.81      0.00
   -1   17    5      0.96      0.00
   -2   17    5     -8.30      0.00
   -3   17    5      3.64      0.00
   -4   17    5     -0.55      0.00
   -5   17    5     -3.57      0.00
   -6   17    5     -0.92      0.00
   -7   17    5      0.57      0.00
   -8   17    5      1.14      0.00
    8   18    5      6.22      0.00
    7   18    5     -0.06      0.00
    6   18    5      8.23      0.00
    5   18    5      1.80      0.00
    4   18    5      3.58      0.00
    3   18    5      0.45      0.00
    2   18    5      0.46      0.00
    1   18    5      2.85      0.00
    0   18    5      0.82      0.00
   -1   18    5      4.65      0.00
   -2   18    5     -0.73      0.00
   -3   18    5     -1.65      0.00
   -4   18    5     -0.70      0.00
   -5   18    5      2.08      0.00
   -6   18    5      4.24      0.00
   -7   18    5      4.76      0.00
   -8   18    5      2.98      0.00
   -9   18    5     10.96      0.00
    7   19    5      6.29      0.00
    6   19    5     -0.91      0.00
    5   19    5      0.84      0.00
    4   19    5     -3.17      0.00
    3   19    5      2.54      0.00
    2   19    5      3.17      0.00
    1   19    5     -2.40      0.00
    0   19    5     -2.15      0.00
   -1   19    5      2.23      0.00
   -2   19    5      0.44      0.00
   -3   19    5     -0.49      0.00
   -4   19    5     -4.89      0.00
   -5   19    5     -5.01      0.00
   -6   19    5      9.07      0.00
   -7   19    5     -0.52      0.00
   -8   19    5     -1.80      0.00
   -9   19    5      2.17      0.00
    6   20    5     -8.92      0.00
    5   20    5      0.31      0.00
    4   20    5     -1.05      0.00
    3   20    5      3.40      0.00
    2   20    5      3.62      0.00
    1   20    5      0.01      0.00
    0   20    5      2.41      0.00
   -1   20    5      5.98      0.00
   -2   20    5     -5.73      0.00
   -3   20    5      0.21      0.00
   -4   20    5     -5.27      0.00
   -5   20    5      0.48      0.00
   -6   20    5      1.01      0.00
   -7   20    5     -0.78      0.00
   -8   20    5     -1.91      0.00
   -9   20    5      1.55      0.00
  -10   20    5      6.20      0.00
    4   21    5     -1.07      0.00
    3   21    5      1.03      0.00
    2   21    5      3.41      0.00
    1   21    5      1.82      0.00
    0   21    5     -4.45      0.00
   -1   21    5      3.12      0.00
   -2   21    5     -0.11      0.00
   -3   21    5      0.44      0.00
   -4   21    5     -2.51      0.00
   -5   21    5     -0.97      0.00
   -6   21    5     -4.47      0.00
   -7   21    5     -1.24      0.00
   -8   21    5     -4.25      0.00
   -9   21    5     -4.14      0.00
  -10   21    5     -5.47      0.00
    3   22    5     -2.79      0.00
    2   22    5     -0.40      0.00
    1   22    5     -5.28      0.00
    0   22    5      2.22      0.00
   -1   22    5      0.15      0.00
   -2   22    5      4.68      0.00
   -3   22    5      1.16      0.00
   -4   22    5      0.25      0.00
   -5   22    5     -0.42      0.00
   -6   22    5      0.73      0.00
   -7   22    5     -5.66      0.00
   -8   22    5      2.74      0.00
   -9   22    5     -3.13      0.00
  -10   22    5     -2.31      0.00
  -11   22    5     -3.24      0.00
    1   23    5     -5.51      0.00
    0   23    5     -1.37      0.00
   -1   23    5      3.88      0.00
   -2   23    5     -0.74      0.00
   -3   23    5      2.63      0.00
   -4   23    5      2.77      0.00
   -5   23    5      1.66      0.00
   -6   23    5     -1.08      0.00
   -7   23    5      3.71      0.00
   -8   23    5     -6.40      0.00
   -9   23    5     -1.41      0.00
  -10   23    5     -1.79      0.00
  -11   23    5     -1.49      0.00
   -1   24    5     -4.37      0.00
   -2   24    5     -0.89      0.00
   -3   24    5     -9.70      0.00
   -4   24    5     -2.51      0.00
   -5   24    5      7.74      0.00
   -6   24    5      2.20      0.00
   -7   24    5      1.59      0.00
   -8   24    5      0.17      0.00
   -9   24    5      0.75      0.00
  -10   24    5     -4.59      0.00
  -11   24    5      6.55      0.00
  -12   24    5     -3.41      0.00
   -3   25    5    -11.43      0.00
   -4   25    5    -15.15      0.00
   -5   25    5     -0.32      0.00
   -6   25    5      1.11      0.00
   -7   25    5      2.54      0.00
   -8   25    5     -0.17      0.00
   -9   25    5      3.13      0.00
  -10   25    5     -0.30      0.00
  -11   25    5      0.50      0.00
  -12   25    5      4.83      0.00
   -6   26    5      1.08      0.00
   -7   26    5     -1.67      0.00
   -8   26    5     -0.44      0.00
   -9   26    5      2.30      0.00
  -10   26    5     -7.21      0.00
  -11   26    5      2.76      0.00
  -12   26    5      9.16      0.00
  -13   26    5      0.89      0.00
  -10   27    5     -6.81      0.00
  -11   27    5     -9.90      0.00
  -12   27    5     -9.52      0.00
  -13   27    5      2.01      0.00
    0    0    6     48.60      0.00
    0    1    6     17.74      0.00
    1    1    6     -3.73      0.00
    1    2    6     -5.92      0.00
    0    2    6     -8.98      0.00
   -1    2    6     10.91      0.00
    2    2    6     -2.00      0.00
    2    3    6    -13.06      0.00
    1    3    6     -5.28      0.00
    0    3    6      0.52      0.00
   -1    3    6     -1.04      0.00
    3    3    6      2.26      0.00
    3    4    6     -3.60      0.00
    2    4    6     -0.25      0.00
    1    4    6    -13.11      0.00
    0    4    6    -12.53      0.00
   -1    4    6     -6.36      0.00
   -2    4    6    -12.79      0.00
    4    4    6      0.63      0.00
    4    5    6     -7.22      0.00
    3    5    6      2.38      0.00
    2    5    6      5.47      0.00
    1    5    6     -3.34      0.00
    0    5    6      6.62      0.00
   -1    5    6      3.59      0.00
   -2    5    6     -9.07      0.00
    5    5    6      7.78      0.00
    5    6    6     -9.70      0.00
    4    6    6    -14.22      0.00
    3    6    6     -2.30      0.00
    2    6    6     -5.54      0.00
    1    6    6      2.36      0.00
    0    6    6      4.27      0.00
   -1    6    6     -8.01      0.00
   -2    6    6     -5.01      0.00
   -3    6    6      8.56      0.00
    6    6    6      1.54      0.00
    6    7    6      5.99      0.00
    5    7    6      9.14      0.00
    4    7    6     -0.54      0.00
    3    7    6     -1.07      0.00
    2    7    6      4.45      0.00
    1    7    6      3.46      0.00
    0    7    6      8.99      0.00
   -1    7    6     23.50      0.00
   -2    7    6     -3.35      0.00
   -3    7    6     10.58      0.00
    7    7    6      3.39      0.00
    7    8    6     -1.59      0.00
    6    8    6      7.20      0.00
    5    8    6     -2.28      0.00
    4    8    6     -5.87      0.00
    3    8    6      2.69      0.00
    2    8    6     -8.45      0.00
    1    8    6      5.59      0.00
    0    8    6     14.78      0.00
   -1    8    6      7.57      0.00
   -2    8    6     -1.33      0.00
   -3    8    6     -2.56      0.00
   -4    8    6      2.77      0.00
    8    8    6      1.16      0.00
    8    9    6      2.93      0.00
    7    9    6     -0.90      0.00
    6    9    6      2.48      0.00
    5    9    6      7.29      0.00
    4    9    6     -6.08      0.00
    3    9    6      2.10      0.00
    2    9    6     -8.84      0.00
    1    9    6    -14.23      0.00
    0    9    6    -15.58      0.00
   -1    9    6     10.67      0.00
   -2    9    6      0.98      0.00
   -3    9    6     -0.95      0.00
   -4    9    6     -7.49      0.00
    9    9    6     -1.34      0.00
    9   10    6     -0.43      0.00
    8   10    6     -2.20      0.00
    7   10    6     -0.89      0.00
    6   10    6      1.15      0.00
    5   10    6     -3.75      0.00
    4   10    6     -2.85      0.00
    3   10    6      0.16      0.00
    2   10    6      1.18      0.00
    1   10    6    -12.11      0.00
    0   10    6     -7.92      0.00
   -1   10    6     -3.93      0.00
   -2   10    6    -12.38      0.00
   -3   10    6     -7.71      0.00
   -4   10    6     -4.30      0.00
   -5   10    6     -5.75      0.00
   10   10    6     -0.85      0.00
   10   11    6      1.86      0.00
    9   11    6      4.37      0.00
    8   11    6     -2.25      0.00
    7   11    6     -5.58      0.00
    6   11    6     -4.75      0.00
    5   11    6      0.50      0.00
    4   11    6      0.60      0.00
    3   11    6      0.34      0.00
    2   11    6     -2.47      0.00
    1   11    6      3.28      0.00
    0   11    6      0.41      0.00
   -1   11    6     -3.51      0.00
   -2   11    6    -12.51      0.00
   -3   11    6      2.76      0.00
   -4   11    6      3.61      0.00
   -5   11    6     -5.64      0.00
   11   11    6     -2.21      0.00
   11   12    6      2.10      0.00
   10   12    6     -2.27      0.00
    9   12    6      1.35      0.00
    8   12    6      1.62      0.00
    7   12    6     -3.54      0.00
    6   12    6     -1.91      0.00
    5   12    6      1.54      0.00
    4   12    6     -7.92      0.00
    3   12    6     -6.31      0.00
    2   12    6      3.26      0.00
    1   12    6     -9.81      0.00
    0   12    6      3.81      0.00
   -1   12    6     -0.84      0.00
   -2   12    6    -12.26      0.00
   -3   12    6     -7.83      0.00
   -4   12    6     -3.30      0.00
   -5   12    6     -0.70      0.00
   -6   12    6     -7.60      0.00
   12   12    6     -2.84      0.00
   12   13    6     -8.79      0.00
   11   13    6     -4.21      0.00
   10   13    6     -0.15      0.00
    9   13    6      4.05      0.00
    8   13    6     -2.48      0.00
    7   13    6      1.72      0.00
    6   13    6     -5.47      0.00
    5   13    6      6.01      0.00
    4   13    6     -6.20      0.00
    3   13    6     -1.66      0.00
    2   13    6      2.05      0.00
    1   13    6      2.33      0.00
    0   13    6     -2.61      0.00
   -1   13    6      0.81      0.00
   -2   13    6     -7.59      0.00
   -3   13    6    -22.69      0.00
   -4   13    6     -3.24      0.00
   -5   13    6      1.18      0.00
   -6   13    6      1.72      0.00
   13   13    6     -1.79      0.00
   12   14    6     -5.38      0.00
   11   14    6     -6.64      0.00
   10   14    6      0.73      0.00
    9   14    6     -1.79      0.00
    8   14    6      4.64      0.00
    7   14    6     -1.75      0.00
    6   14    6     -0.56      0.00
    5   14    6      4.14      0.00
    4   14    6      3.09      0.00
    3   14    6      4.26      0.00
    2   14    6     -0.79      0.00
    1   14    6      2.79      0.00
    0   14    6      0.33      0.00
   -1   14    6      3.17      0.00
   -2   14    6      0.11      0.00
   -3   14    6     -6.83      0.00
   -4   14    6     -6.84      0.00
   -5   14    6     -0.01      0.00
   -6   14    6      4.25      0.00
   -7   14    6      0.23      0.00
   11   15    6     -5.85      0.00
   10   15    6     -4.02      0.00
    9   15    6      2.19      0.00
    8   15    6      1.21      0.00
    7   15    6      0.01      0.00
    6   15    6     -4.75      0.00
    5   15    6      2.86      0.00
    4   15    6     16.45      0.00
    3   15    6      5.67      0.00
    2   15    6      0.91      0.00
    1   15    6      1.58      0.00
    0   15    6     -1.15      0.00
   -1   15    6      8.94      0.00
   -2   15    6    -10.32      0.00
   -3   15    6      3.37      0.00
   -4   15    6      9.98      0.00
   -5   15    6     -0.06      0.00
   -6   15    6      0.70      0.00
   -7   15    6      3.97      0.00
   10   16    6      0.13      0.00
    9   16    6     -3.04      0.00
    8   16    6      0.55      0.00
    7   16    6     -1.31      0.00
    6   16    6     -7.64      0.00
    5   16    6      0.69      0.00
    4   16    6      2.19      0.00
    3   16    6      3.19      0.00
    2   16    6      2.54      0.00
    1   16    6      1.56      0.00
    0   16    6     -0.64      0.00
   -1   16    6      2.75      0.00
   -2   16    6     -0.73      0.00
   -3   16    6      0.09      0.00
   -4   16    6      4.77      0.00
   -5   16    6     -0.10      0.00
   -6   16    6     -2.09      0.00
   -7   16    6     -0.18      0.00
   -8   16    6      6.48      0.00
    9   17    6      7.10      0.00
    8   17    6     -2.74      0.00
    7   17    6     -0.54      0.00
    6   17    6     -2.70      0.00
    5   17    6     -1.99      0.00
    4   17    6     -0.84      0.00
    3   17    6     -1.45      0.00
    2   17    6     -0.33      0.00
    1   17    6     -0.06      0.00
    0   17    6     -5.62      0.00
   -1   17    6     -0.91      0.00
   -2   17    6      2.16      0.00
   -3   17    6      5.44      0.00
   -4   17    6     -4.53      0.00
   -5   17    6      5.09      0.00
   -6   17    6     -2.63      0.00
   -7   17    6     -6.45      0.00
   -8   17    6      1.49      0.00
    8   18    6      0.30      0.00
    7   18    6      4.68      0.00
    6   18    6      0.14      0.00
    5   18    6     -1.17      0.00
    4   18    6     -1.61      0.00
    3   18    6     -3.48      0.00
    2   18    6      2.39      0.00
    1   18    6     -0.82      0.00
    0   18    6     -0.50      0.00
   -1   18    6      1.24      0.00
   -2   18    6     -3.71      0.00
   -3   18    6      4.58      0.00
   -4   18    6      2.86      0.00
   -5   18    6     -4.94      0.00
   -6   18    6      2.62      0.00
   -7   18    6     -6.50      0.00
   -8   18    6     -0.76      0.00
   -9   18    6     -1.55      0.00
    7   19    6     -2.26      0.00
    6   19    6     -0.56      0.00
    5   19    6      0.54      0.00
    4   19    6     -3.65      0.00
    3   19    6      1.13      0.00
    2   19    6     -1.32      0.00
    1   19    6      8.13      0.00
    0   19    6      2.58      0.00
   -1   19    6     -1.26      0.00
   -2   19    6     -5.21      0.00
   -3   19    6      3.54      0.00
   -4   19    6      0.70      0.00
   -5   19    6      0.53      0.00
   -6   19    6     -6.20      0.00
   -7   19    6     -1.32      0.00
   -8   19    6     -3.41      0.00
   -9   19    6     -0.60      0.00
    5   20    6      0.58      0.00
    4   20    6      2.26      0.00
    3   20    6     -3.36      0.00
    2   20    6      9.86      0.00
    1   20    6      4.40      0.00
    0   20    6      6.54      0.00
   -1   20    6     -0.58      0.00
   -2   20    6      2.80      0.00
   -3   20    6      1.24      0.00
   -4   20    6      3.58      0.00
   -5   20    6     -2.06      0.00
   -6   20    6      4.07      0.00
   -7   20    6      1.80      0.00
   -8   20    6      0.43      0.00
   -9   20    6      4.10      0.00
  -10   20    6      3.53      0.00
    4   21    6      5.83      0.00
    3   21    6      0.49      0.00
    2   21    6     -3.48      0.00
    1   21    6     -0.72      0.00
    0   21    6     -0.09      0.00
   -1   21    6      6.76      0.00
   -2   21    6      6.76      0.00
   -3   21    6     -1.50      0.00
   -4   21    6     -0.14      0.00
   -5   21    6     -2.02      0.00
   -6   21    6     -3.83      0.00
   -7   21    6      2.93      0.00
   -8   21    6      1.06      0.00
   -9   21    6      1.52      0.00
  -10   21    6      6.35      0.00
    2   22    6     -2.30      0.00
    1   22    6     -0.90      0.00
    0   22    6     -0.57      0.00
   -1   22    6     -0.66      0.00
   -2   22    6      5.49      0.00
   -3   22    6      5.77      0.00
   -4   22    6     -2.20      0.00
   -5   22    6      0.52      0.00
   -6   22    6     -0.96      0.00
   -7   22    6      3.90      0.00
   -8   22    6     -1.62      0.00
   -9   22    6      6.94      0.00
  -10   22    6     -0.50      0.00
  -11   22    6      8.81      0.00
    0   23    6     -2.28      0.00
   -1   23    6      3.98      0.00
   -2   23    6     -0.91      0.00
   -3   23    6      4.45      0.00
   -4   23    6      1.11      0.00
   -5   23    6     -0.77      0.00
   -6   23    6     -2.88      0.00
   -7   23    6     -7.38      0.00
   -8   23    6      1.62      0.00
   -9   23    6      5.94      0.00
  -10   23    6     -0.13      0.00
  -11   23    6     -0.24      0.00
   -2   24    6    -12.55      0.00
   -3   24    6    -13.55      0.00
   -4   24    6     -5.76      0.00
   -5   24    6     -6.10      0.00
   -6   24    6      4.27      0.00
   -7   24    6     -2.60      0.00
   -8   24    6     -0.76      0.00
   -9   24    6      2.04      0.00
  -10   24    6      9.77      0.00
  -11   24    6     -3.18      0.00
  -12   24    6     -3.12      0.00
   -4   25    6    -15.05      0.00
   -5   25    6     -3.71      0.00
   -6   25    6     -4.47      0.00
   -7   25    6     -1.26      0.00
   -8   25    6     -1.44      0.00
   -9   25    6      2.99      0.00
  -10   25    6      7.61      0.00
  -11   25    6     10.87      0.00
  -12   25    6     -4.39      0.00
   -7   26    6     -0.47      0.00
   -8   26    6     -1.55      0.00
   -9   26    6     -0.64      0.00
  -10   26    6      2.87      0.00
  -11   26    6      4.78      0.00
  -12   26    6      6.95      0.00
  -13   26    6      4.77      0.00
  -13   27    6     -6.89      0.00
    0    0    7    -16.84      0.00
    0    1    7     -9.32      0.00
    1    1    7    -12.19      0.00
    1    2    7      3.26      0.00
    0    2    7     -6.20      0.00
   -1    2    7     -5.16      0.00
    2    2    7     14.87      0.00
    2    3    7     -3.90      0.00
    1    3    7     13.79      0.00
    0    3    7      5.48      0.00
   -1    3    7      1.28      0.00
    3    3    7      3.78      0.00
    3    4    7      2.77      0.00
    2    4    7      1.25      0.00
    1    4    7      3.54      0.00
    0    4    7     17.88      0.00
   -1    4    7      9.10      0.00
   -2    4    7     -1.61      0.00
    4    4    7      1.07      0.00
    4    5    7      9.70      0.00
    3    5    7     -0.83      0.00
    2    5    7     12.06      0.00
    1    5    7      6.88      0.00
    0    5    7    -10.46      0.00
   -1    5    7      5.11      0.00
   -2    5    7      3.11      0.00
    5    5    7      8.65      0.00
    5    6    7      3.38      0.00
    4    6    7     10.68      0.00
    3    6    7     -1.00      0.00
    2    6    7     -3.41      0.00
    1    6    7     -9.70      0.00
    0    6    7     -7.95      0.00
   -1    6    7     -5.56      0.00
   -2    6    7      2.09      0.00
   -3    6    7      5.87      0.00
    6    6    7      2.90      0.00
    6    7    7     -4.89      0.00
    5    7    7     -0.56      0.00
    4    7    7      7.09      0.00
    3    7    7     18.76      0.00
    2    7    7     12.46      0.00
    1    7    7     14.19      0.00
    0    7    7     -4.16      0.00
   -1    7    7     -6.06      0.00
   -2    7    7     -3.43      0.00
   -3    7    7     11.09      0.00
    7    7    7     -6.70      0.00
    7    8    7    -13.75      0.00
    6    8    7     -6.75      0.00
    5    8    7     -1.02      0.00
    4    8    7      1.84      0.00
    3    8    7     -0.09      0.00
    2    8    7     11.72      0.00
    1    8    7     -6.77      0.00
    0    8    7    -11.20      0.00
   -1    8    7     13.31      0.00
   -2    8    7     -2.66      0.00
   -3    8    7     -8.23      0.00
   -4    8    7      4.41      0.00
    8    8    7     -8.10      0.00
    8    9    7      1.22      0.00
    7    9    7     -1.79      0.00
    6    9    7     -3.56      0.00
    5    9    7      1.86      0.00
    4    9    7     -4.08      0.00
    3    9    7      2.91      0.00
    2    9    7      0.84      0.00
    1    9    7      2.23      0.00
    0    9    7      1.54      0.00
   -1    9    7     -0.48      0.00
   -2    9    7     11.57      0.00
   -3    9    7      7.69      0.00
   -4    9    7      8.86      0.00
    9    9    7     -0.19      0.00
    9   10    7     -9.72      0.00
    8   10    7     -2.54      0.00
    7   10    7     -4.35      0.00
    6   10    7    -10.55      0.00
    5   10    7      7.54      0.00
    4   10    7      1.72      0.00
    3   10    7     -1.02      0.00
    2   10    7      5.00      0.00
    1   10    7      4.25      0.00
    0   10    7     -6.31      0.00
   -1   10    7     -1.82      0.00
   -2   10    7     16.13      0.00
   -3   10    7     14.44      0.00
   -4   10    7     12.97      0.00
   -5   10    7      1.79      0.00
   10   10    7     -0.75      0.00
   10   11    7     -2.77      0.00
    9   11    7     -2.57      0.00
    8   11    7     -2.15      0.00
    7   11    7      1.78      0.00
    6   11    7     -1.91      0.00
    5   11    7      1.99      0.00
    4   11    7      0.16      0.00
    3   11    7      3.73      0.00
    2   11    7     -1.46      0.00
    1   11    7      7.36      0.00
    0   11    7     -1.39      0.00
   -1   11    7      6.80      0.00
   -2   11    7     10.19      0.00
   -3   11    7      3.90      0.00
   -4   11    7      9.80      0.00
   -5   11    7      4.22      0.00
   11   11    7      2.14      0.00
   11   12    7     -1.15      0.00
   10   12    7     -2.17      0.00
    9   12    7      1.56      0.00
    8   12    7     -0.25      0.00
    7   12    7      3.11      0.00
    6   12    7     -1.78      0.00
    5   12    7     -0.21      0.00
    4   12    7      2.78      0.00
    3   12    7      4.28      0.00
    2   12    7     -1.31      0.00
    1   12    7     -2.55      0.00
    0   12    7     -5.38      0.00
   -1   12    7      2.10      0.00
   -2   12    7      2.84      0.00
   -3   12    7     -2.83      0.00
   -4   12    7      2.08      0.00
   -5   12    7    -11.98      0.00
   -6   12    7     -2.38      0.00
   12   12    7      4.53      0.00
   12   13    7      0.94      0.00
   11   13    7      5.65      0.00
   10   13    7      0.12      0.00
    9   13    7     -2.49      0.00
    8   13    7      0.59      0.00
    7   13    7      1.62      0.00
    6   13    7      0.27      0.00
    5   13    7     -2.94      0.00
    4   13    7      3.27      0.00
    3   13    7      1.57      0.00
    2   13    7      4.19      0.00
    1   13    7      2.34      0.00
    0   13    7     -9.40      0.00
   -1   13    7      8.38      0.00
   -2   13    7     -3.07      0.00
   -3   13    7     -0.35      0.00
   -4   13    7     -4.73      0.00
   -5   13    7     -0.68      0.00
   -6   13    7     -3.18      0.00
   13   13    7      1.68      0.00
   12   14    7     -3.40      0.00
   11   14    7     -2.94      0.00
   10   14    7     -1.35      0.00
    9   14    7      2.03      0.00
    8   14    7      1.26      0.00
    7   14    7      3.89      0.00
    6   14    7     -3.54      0.00
    5   14    7      1.51      0.00
    4   14    7      4.78      0.00
    3   14    7     -5.85      0.00
    2   14    7      3.20      0.00
    1   14    7      1.97      0.00
    0   14    7     -5.35      0.00
   -1   14    7     -7.78      0.00
   -2   14    7      4.96      0.00
   -3   14    7     -2.12      0.00
   -4   14    7     -4.00      0.00
   -5   14    7     -3.07      0.00
   -6   14    7     -5.18      0.00
   -7   14    7     -6.83      0.00
   11   15    7     -7.33      0.00
   10   15    7     -3.66      0.00
    9   15    7     -3.54      0.00
    8   15    7      0.81      0.00
    7   15    7      5.11      0.00
    6   15    7      0.06      0.00
    5   15    7      3.32      0.00
    4   15    7      4.27      0.00
    3   15    7      8.38      0.00
    2   15    7      3.82      0.00
    1   15    7      3.73      0.00
    0   15    7      1.15      0.00
   -1   15    7     -5.18      0.00
   -2   15    7     -2.47      0.00
   -3   15    7      4.04      0.00
   -4   15    7     -1.88      0.00
   -5   15    7      1.68      0.00
   -6   15    7      0.54      0.00
   -7   15    7     -1.41      0.00
   10   16    7      0.78      0.00
    9   16    7     -1.18      0.00
    8   16    7     -0.88      0.00
    7   16    7     -3.17      0.00
    6   16    7     -2.87      0.00
    5   16    7     -8.65      0.00
    4   16    7      4.59      0.00
    3   16    7      3.02      0.00
    2   16    7     -0.07      0.00
    1   16    7     -0.23      0.00
    0   16    7      4.19      0.00
   -1   16    7      3.06      0.00
   -2   16    7     -3.92      0.00
   -3   16    7    -12.30      0.00
   -4   16    7      5.14      0.00
   -5   16    7     -0.93      0.00
   -6   16    7     -6.20      0.00
   -7   16    7      1.47      0.00
   -8   16    7      1.47      0.00
    9   17    7     -1.45      0.00
    8   17    7     -5.82      0.00
    7   17    7      0.84      0.00
    6   17    7     -0.26      0.00
    5   17    7     -1.30      0.00
    4   17    7     -1.90      0.00
    3   17    7     -0.61      0.00
    2   17    7     -1.61      0.00
    1   17    7      2.75      0.00
    0   17    7      0.00      0.00
   -1   17    7      1.73      0.00
   -2   17    7      1.61      0.00
   -3   17    7     -1.16      0.00
   -4   17    7     -1.76      0.00
   -5   17    7      5.29      0.00
   -6   17    7     -2.90      0.00
   -7   17    7     -3.27      0.00
   -8   17    7      6.01      0.00
    7   18    7     -0.30      0.00
    6   18    7     -0.88      0.00
    5   18    7     -2.65      0.00
    4   18    7      1.05      0.00
    3   18    7      1.27      0.00
    2   18    7      0.58      0.00
    1   18    7      7.22      0.00
    0   18    7      1.03      0.00
   -1   18    7     -2.94      0.00
   -2   18    7      1.44      0.00
   -3   18    7      1.28      0.00
   -4   18    7     -5.72      0.00
   -5   18    7     -3.78      0.00
   -6   18    7      5.47      0.00
   -7   18    7     -2.88      0.00
   -8   18    7     -4.28      0.00
   -9   18    7      2.44      0.00
    6   19    7      8.36      0.00
    5   19    7      2.22      0.00
    4   19    7     -7.93      0.00
    3   19    7     -1.50      0.00
    2   19    7      1.73      0.00
    1   19    7      3.03      0.00
    0   19    7     -3.60      0.00
   -1   19    7     -3.52      0.00
   -2   19    7      3.41      0.00
   -3   19    7      1.50      0.00
   -4   19    7      2.15      0.00
   -5   19    7     -9.46      0.00
   -6   19    7      3.01      0.00
   -7   19    7      4.87      0.00
   -8   19    7     -4.96      0.00
   -9   19    7     -5.08      0.00
    5   20    7      2.92      0.00
    4   20    7     -8.34      0.00
    3   20    7     -5.33      0.00
    2   20    7     -1.28      0.00
    1   20    7      3.64      0.00
    0   20    7     -2.75      0.00
   -1   20    7     -0.75      0.00
   -2   20    7     -4.98      0.00
   -3   20    7      0.42      0.00
   -4   20    7      5.72      0.00
   -5   20    7      2.96      0.00
   -6   20    7     -1.90      0.00
   -7   20    7      0.02      0.00
   -8   20    7      4.26      0.00
   -9   20    7     -4.17      0.00
  -10   20    7     -7.36      0.00
    3   21    7     -7.53      0.00
    2   21    7     -2.34      0.00
    1   21    7      2.59      0.00
    0   21    7     -1.75      0.00
   -1   21    7      3.46      0.00
   -2   21    7     -5.66      0.00
   -3   21    7      0.51      0.00
   -4   21    7     -1.56      0.00
   -5   21    7     -0.28      0.00
   -6   21    7      3.32      0.00
   -7   21    7      2.84      0.00
   -8   21    7      0.53      0.00
   -9   21    7      0.71      0.00
  -10   21    7     -0.15      0.00
    1   22    7      3.60      0.00
    0   22    7     11.84      0.00
   -1   22    7      2.11      0.00
   -2   22    7      5.55      0.00
   -3   22    7     -1.00      0.00
   -4   22    7     -3.00      0.00
   -5   22    7     -4.88      0.00
   -6   22    7     -0.83      0.00
   -7   22    7     -3.13      0.00
   -8   22    7      9.81      0.00
   -9   22    7     -3.41      0.00
  -10   22    7      5.54      0.00
  -11   22    7      3.29      0.00
    0   23    7      9.76      0.00
   -1   23    7      5.15      0.00
   -2   23    7     -2.02      0.00
   -3   23    7     -0.77      0.00
   -4   23    7    -12.34      0.00
   -5   23    7      1.05      0.00
   -6   23    7     -1.97      0.00
   -7   23    7     -0.95      0.00
   -8   23    7     -3.96      0.00
   -9   23    7     -2.60      0.00
  -10   23    7     -0.69      0.00
  -11   23    7      6.62      0.00
   -2   24    7     -5.22      0.00
   -3   24    7    -12.46      0.00
   -4   24    7     -9.42      0.00
   -5   24    7     -0.26      0.00
   -6   24    7      0.14      0.00
   -7   24    7      2.89      0.00
   -8   24    7     -4.03      0.00
   -9   24    7      2.51      0.00
  -10   24    7     -4.54      0.00
  -11   24    7     -1.01      0.00
  -12   24    7      1.26      0.00
   -5   25    7     -8.64      0.00
   -6   25    7     11.84      0.00
   -7   25    7     15.98      0.00
   -8   25    7     -1.99      0.00
   -9   25    7     -3.11      0.00
  -10   25    7     -5.73      0.00
  -11   25    7     -0.18      0.00
  -12   25    7     -0.81      0.00
   -8   26    7     10.54      0.00
   -9   26    7     -8.19      0.00
  -10   26    7     -4.90      0.00
  -11   26    7      2.59      0.00
  -12   26    7      4.33      0.00
  -13   26    7     -5.66      0.00
    0    0    8     25.72      0.00
    0    1    8     13.11      0.00
    1    1    8      2.42      0.00
    1    2    8     -4.21      0.00
    0    2    8     -2.59      0.00
   -1    2    8      2.56      0.00
    2    2    8      0.16      0.00
    2    3    8     -4.70      0.00
    1    3    8     -1.09      0.00
    0    3    8     -9.06      0.00
   -1    3    8     -2.51      0.00
    3    3    8     -8.43      0.00
    3    4    8      2.90      0.00
    2    4    8      2.65      0.00
    1    4    8     -5.37      0.00
    0    4    8     -2.53      0.00
   -1    4    8     -8.75      0.00
   -2    4    8      3.94      0.00
    4    4    8      0.92      0.00
    4    5    8     -4.28      0.00
    3    5    8     -6.37      0.00
    2    5    8     -1.46      0.00
    1    5    8     -3.38      0.00
    0    5    8     -5.46      0.00
   -1    5    8      4.14      0.00
   -2    5    8      4.97      0.00
    5    5    8      1.02      0.00
    5    6    8     -8.24      0.00
    4    6    8      1.07      0.00
    3    6    8     -7.92      0.00
    2    6    8      2.90      0.00
    1    6    8     12.39      0.00
    0    6    8     -2.46      0.00
   -1    6    8     -2.01      0.00
   -2    6    8     16.39      0.00
   -3    6    8     21.72      0.00
    6    6    8     -7.94      0.00
    6    7    8      6.26      0.00
    5    7    8      0.61      0.00
    4    7    8     -1.97      0.00
    3    7    8      3.80      0.00
    2    7    8     -1.07      0.00
    1    7    8      5.77      0.00
    0    7    8     16.06      0.00
   -1    7    8      4.60      0.00
   -2    7    8      5.36      0.00
   -3    7    8      8.30      0.00
    7    7    8      3.78      0.00
    7    8    8      1.95      0.00
    6    8    8      2.65      0.00
    5    8    8      3.36      0.00
    4    8    8     -3.75      0.00
    3    8    8     -3.98      0.00
    2    8    8     -2.43      0.00
    1    8    8      3.31      0.00
    0    8    8      6.13      0.00
   -1    8    8      2.67      0.00
   -2    8    8      2.22      0.00
   -3    8    8    -10.40      0.00
   -4    8    8      8.06      0.00
    8    8    8      0.72      0.00
    8    9    8     -1.29      0.00
    7    9    8     -0.06      0.00
    6    9    8      1.25      0.00
    5    9    8      6.15      0.00
    4    9    8      9.47      0.00
    3    9    8      3.00      0.00
    2    9    8     -6.18      0.00
    1    9    8      4.77      0.00
    0    9    8    -13.08      0.00
   -1    9    8      6.00      0.00
   -2    9    8     10.42      0.00
   -3    9    8     -2.83      0.00
   -4    9    8     -2.84      0.00
    9    9    8      3.36      0.00
    9   10    8      1.97      0.00
    8   10    8      0.62      0.00
    7   10    8     -1.54      0.00
    6   10    8     -2.90      0.00
    5   10    8     -7.36      0.00
    4   10    8      3.15      0.00
    3   10    8     -0.10      0.00
    2   10    8     -3.35      0.00
    1   10    8      0.08      0.00
    0   10    8      1.36      0.00
   -1   10    8    -10.70      0.00
   -2   10    8     -3.57      0.00
   -3   10    8      0.87      0.00
   -4   10    8     -2.71      0.00
   -5   10    8     -7.25      0.00
   10   10    8      1.08      0.00
   10   11    8      8.19      0.00
    9   11    8      4.35      0.00
    8   11    8      0.33      0.00
    7   11    8     -1.93      0.00
    6   11    8     -6.85      0.00
    5   11    8     -2.79      0.00
    4   11    8      2.92      0.00
    3   11    8     -4.50      0.00
    2   11    8     -2.76      0.00
    1   11    8     -2.49      0.00
    0   11    8     -3.48      0.00
   -1   11    8      2.55      0.00
   -2   11    8     -5.10      0.00
   -3   11    8     -1.13      0.00
   -4   11    8      0.64      0.00
   -5   11    8     -3.67      0.00
   11   11    8      1.95      0.00
   11   12    8      0.82      0.00
   10   12    8      2.30      0.00
    9   12    8     -0.48      0.00
    8   12    8     -1.12      0.00
    7   12    8      0.99      0.00
    6   12    8     -1.03      0.00
    5   12    8     -3.59      0.00
    4   12    8     -2.00      0.00
    3   12    8     -4.09      0.00
    2   12    8     -2.63      0.00
    1   12    8     -0.73      0.00
    0   12    8     -1.79      0.00
   -1   12    8     -6.95      0.00
   -2   12    8      8.26      0.00
   -3   12    8     -2.88      0.00
   -4   12    8     -4.41      0.00
   -5   12    8      2.66      0.00
   -6   12    8     -0.92      0.00
   12   12    8     -2.42      0.00
   12   13    8     -5.54      0.00
   11   13    8     -1.84      0.00
   10   13    8     -1.69      0.00
    9   13    8      4.04      0.00
    8   13    8      3.30      0.00
    7   13    8      2.09      0.00
    6   13    8      1.02      0.00
    5   13    8     -0.40      0.00
    4   13    8     -3.61      0.00
    3   13    8      1.12      0.00
    2   13    8      3.10      0.00
    1   13    8      2.65      0.00
    0   13    8      2.63      0.00
   -1   13    8     -4.82      0.00
   -2   13    8      7.14      0.00
   -3   13    8      3.78      0.00
   -4   13    8      1.66      0.00
   -5   13    8     -1.47      0.00
   -6   13    8     10.16      0.00
   13   13    8     -4.72      0.00
   12   14    8    -10.07      0.00
   11   14    8     -5.10      0.00
   10   14    8     -4.73      0.00
    9   14    8     -3.19      0.00
    8   14    8      4.43      0.00
    7   14    8      8.78      0.00
    6   14    8      5.35      0.00
    5   14    8     -1.39      0.00
    4   14    8     -2.10      0.00
    3   14    8      3.19      0.00
    2   14    8      0.31      0.00
    1   14    8     -1.84      0.00
    0   14    8     -4.09      0.00
   -1   14    8      0.10      0.00
   -2   14    8      3.13      0.00
   -3   14    8     -5.19      0.00
   -4   14    8      3.67      0.00
   -5   14    8     -5.13      0.00
   -6   14    8      0.65      0.00
   -7   14    8      6.85      0.00
   11   15    8     -5.06      0.00
   10   15    8     -4.84      0.00
    9   15    8     -3.24      0.00
    8   15    8     -0.43      0.00
    7   15    8      6.00      0.00
    6   15    8      4.87      0.00
    5   15    8      3.77      0.00
    4   15    8      9.99      0.00
    3   15    8      4.13      0.00
    2   15    8     -3.95      0.00
    1   15    8      3.93      0.00
    0   15    8     -0.02      0.00
   -1   15    8     -4.34      0.00
   -2   15    8      0.12      0.00
   -3   15    8      2.51      0.00
   -4   15    8      3.12      0.00
   -5   15    8      1.42      0.00
   -6   15    8      3.75      0.00
   -7   15    8      3.44      0.00
    9   16    8      2.12      0.00
    8   16    8     -2.87      0.00
    7   16    8      6.84      0.00
    6   16    8      7.13      0.00
    5   16    8     -0.24      0.00
    4   16    8     -4.17      0.00
    3   16    8      0.56      0.00
    2   16    8     -4.93      0.00
    1   16    8     -1.86      0.00
    0   16    8     -4.25      0.00
   -1   16    8     -3.12      0.00
   -2   16    8     -1.91      0.00
   -3   16    8     -2.25      0.00
   -4   16    8     -6.10      0.00
   -5   16    8     -8.01      0.00
   -6   16    8      5.57      0.00
   -7   16    8      3.10      0.00
   -8   16    8      3.53      0.00
    8   17    8      1.06      0.00
    7   17    8     -0.62      0.00
    6   17    8      4.48      0.00
    5   17    8      7.48      0.00
    4   17    8     -0.04      0.00
    3   17    8     -1.66      0.00
    2   17    8     -2.08      0.00
    1   17    8     -5.25      0.00
    0   17    8     -6.50      0.00
   -1   17    8     -3.33      0.00
   -2   17    8      0.61      0.00
   -3   17    8     -0.22      0.00
   -4   17    8      1.87      0.00
   -5   17    8      2.52      0.00
   -6   17    8     -4.38      0.00
   -7   17    8      5.91      0.00
   -8   17    8      4.91      0.00
    7   18    8     -5.51      0.00
    6   18    8      6.25      0.00
    5   18    8      2.79      0.00
    4   18    8     -3.51      0.00
    3   18    8     -0.55      0.00
    2   18    8      0.63      0.00
    1   18    8     -1.51      0.00
    0   18    8     -2.01      0.00
   -1   18    8     -4.51      0.00
   -2   18    8     -1.44      0.00
   -3   18    8     -2.51      0.00
   -4   18    8     -4.59      0.00
   -5   18    8     -2.06      0.00
   -6   18    8      2.68      0.00
   -7   18    8     -7.38      0.00
   -8   18    8      3.93      0.00
   -9   18    8      2.93      0.00
    6   19    8      4.82      0.00
    5   19    8     -2.61      0.00
    4   19    8     -8.02      0.00
    3   19    8     -2.07      0.00
    2   19    8      1.60      0.00
    1   19    8      0.22      0.00
    0   19    8     -3.21      0.00
   -1   19    8     -2.08      0.00
   -2   19    8     -6.65      0.00
   -3   19    8      2.08      0.00
   -4   19    8      1.06      0.00
   -5   19    8      0.82      0.00
   -6   19    8     -2.49      0.00
   -7   19    8      0.87      0.00
   -8   19    8     -1.98      0.00
   -9   19    8      1.25      0.00
    4   20    8     -9.50      0.00
    3   20    8     -8.68      0.00
    2   20    8     -2.40      0.00
    1   20    8     -1.85      0.00
    0   20    8      3.04      0.00
   -1   20    8     -7.69      0.00
   -2   20    8      1.19      0.00
   -3   20    8     -1.00      0.00
   -4   20    8      3.32      0.00
   -5   20    8     -1.12      0.00
   -6   20    8     -2.14      0.00
   -7   20    8      1.66      0.00
   -8   20    8     -1.14      0.00
   -9   20    8     -6.12      0.00
  -10   20    8     -2.34      0.00
    3   21    8     -8.60      0.00
    2   21    8     -5.25      0.00
    1   21    8      0.33      0.00
    0   21    8      0.96      0.00
   -1   21    8     -1.60      0.00
   -2   21    8      6.47      0.00
   -3   21    8     -5.95      0.00
   -4   21    8     -3.52      0.00
   -5   21    8      3.32      0.00
   -6   21    8     -6.69      0.00
   -7   21    8     -2.92      0.00
   -8   21    8      5.65      0.00
   -9   21    8      2.59      0.00
  -10   21    8     -0.34      0.00
    1   22    8     -1.52      0.00
    0   22    8     -4.84      0.00
   -1   22    8      2.08      0.00
   -2   22    8      0.89      0.00
   -3   22    8     -8.14      0.00
   -4   22    8     -8.70      0.00
   -5   22    8     -0.69      0.00
   -6   22    8     -2.49      0.00
   -7   22    8      0.31      0.00
   -8   22    8     -3.00      0.00
   -9   22    8      4.28      0.00
  -10   22    8      0.62      0.00
  -11   22    8      3.72      0.00
   -1   23    8     -0.87      0.00
   -2   23    8     -9.76      0.00
   -3   23    8     -7.56      0.00
   -4   23    8     -5.67      0.00
   -5   23    8     -6.86      0.00
   -6   23    8     -1.25      0.00
   -7   23    8     -0.75      0.00
   -8   23    8      7.20      0.00
   -9   23    8      6.96      0.00
  -10   23    8      0.47      0.00
  -11   23    8      2.47      0.00
   -3   24    8     -6.66      0.00
   -4   24    8    -10.13      0.00
   -5   24    8     -5.54      0.00
   -6   24    8     13.97      0.00
   -7   24    8      1.16      0.00
   -8   24    8     15.39      0.00
   -9   24    8      3.93      0.00
  -10   24    8     -0.49      0.00
  -11   24    8     -8.17      0.00
  -12   24    8     -2.16      0.00
   -6   25    8     -0.24      0.00
   -7   25    8      7.11      0.00
   -8   25    8      6.33      0.00
   -9   25    8      7.16      0.00
  -10   25    8     -1.14      0.00
  -11   25    8    -13.56      0.00
  -12   25    8     -6.08      0.00
  -11   26    8     -6.08      0.00
  -12   26    8     -3.60      0.00
    0    0    9    -10.86      0.00
    0    1    9     -8.64      0.00
    1    1    9      1.55      0.00
    1    2    9      1.90      0.00
    0    2    9      3.08      0.00
   -1    2    9    -10.93      0.00
    2    2    9      5.88      0.00
    2    3    9      5.18      0.00
    1    3    9      2.32      0.00
    0    3    9      1.28      0.00
   -1    3    9     -5.49      0.00
    3    3    9      3.80      0.00
    3    4    9     -0.07      0.00
    2    4    9      3.47      0.00
    1    4    9      5.16      0.00
    0    4    9      0.00      0.00
   -1    4    9     -3.31      0.00
   -2    4    9      5.13      0.00
    4    4    9      3.71      0.00
    4    5    9     -2.87      0.00
    3    5    9      3.15      0.00
    2    5    9     -0.54      0.00
    1    5    9     -0.41      0.00
    0    5    9      1.99      0.00
   -1    5    9     -5.26      0.00
   -2    5    9      7.53      0.00
    5    5    9     -3.98      0.00
    5    6    9     -1.14      0.00
    4    6    9      3.17      0.00
    3    6    9     -2.08      0.00
    2    6    9      0.43      0.00
    1    6    9     -4.91      0.00
    0    6    9     -4.07      0.00
   -1    6    9      0.77      0.00
   -2    6    9     12.44      0.00
   -3    6    9      2.76      0.00
    6    6    9      3.57      0.00
    6    7    9      5.33      0.00
    5    7    9     -4.30      0.00
    4    7    9      4.22      0.00
    3    7    9      4.55      0.00
    2    7    9      0.20      0.00
    1    7    9      2.62      0.00
    0    7    9     -5.64      0.00
   -1    7    9     -9.00      0.00
   -2    7    9     -2.65      0.00
   -3    7    9     -0.02      0.00
    7    7    9     -0.41      0.00
    7    8    9     -6.18      0.00
    6    8    9     -2.38      0.00
    5    8    9     -0.99      0.00
    4    8    9      2.83      0.00
    3    8    9      4.02      0.00
    2    8    9      3.26      0.00
    1    8    9     -7.23      0.00
    0    8    9      1.75      0.00
   -1    8    9      1.36      0.00
   -2    8    9     -1.94      0.00
   -3    8    9      2.31      0.00
   -4    8    9     -2.57      0.00
    8    8    9     -1.60      0.00
    8    9    9      3.89      0.00
    7    9    9      3.67      0.00
    6    9    9     -4.62      0.00
    5    9    9     -3.82      0.00
    4    9    9      8.60      0.00
    3    9    9     -0.37      0.00
    2    9    9      5.62      0.00
    1    9    9      1.37      0.00
    0    9    9     -2.18      0.00
   -1    9    9      0.19      0.00
   -2    9    9      7.14      0.00
   -3    9    9     -4.01      0.00
   -4    9    9      3.91      0.00
    9    9    9      1.16      0.00
    9   10    9      2.76      0.00
    8   10    9      2.65      0.00
    7   10    9      0.84      0.00
    6   10    9      3.15      0.00
    5   10    9     -0.92      0.00
    4   10    9      0.74      0.00
    3   10    9      3.99      0.00
    2   10    9     -2.09      0.00
    1   10    9      1.78      0.00
    0   10    9      4.30      0.00
   -1   10    9     -5.84      0.00
   -2   10    9      8.04      0.00
   -3   10    9      0.72      0.00
   -4   10    9      1.12      0.00
   -5   10    9      1.11      0.00
   10   10    9     -4.70      0.00
   10   11    9     -2.31      0.00
    9   11    9     -3.33      0.00
    8   11    9     -1.61      0.00
    7   11    9      1.28      0.00
    6   11    9     -1.30      0.00
    5   11    9     -0.22      0.00
    4   11    9     -3.49      0.00
    3   11    9      4.75      0.00
    2   11    9      2.49      0.00
    1   11    9      0.13      0.00
    0   11    9      5.07      0.00
   -1   11    9     -0.76      0.00
   -2   11    9     -2.28      0.00
   -3   11    9      3.51      0.00
   -4   11    9      5.48      0.00
   -5   11    9      0.04      0.00
   11   11    9      2.66      0.00
   11   12    9      4.44      0.00
   10   12    9     -0.47      0.00
    9   12    9     -1.64      0.00
    8   12    9     -3.38      0.00
    7   12    9      2.47      0.00
    6   12    9      0.09      0.00
    5   12    9     -0.62      0.00
    4   12    9     -1.43      0.00
    3   12    9     -3.07      0.00
    2   12    9     -0.96      0.00
    1   12    9      5.23      0.00
    0   12    9     -1.37      0.00
   -1   12    9      1.68      0.00
   -2   12    9      4.64      0.00
   -3   12    9     -7.08      0.00
   -4   12    9      4.01      0.00
   -5   12    9     -2.95      0.00
   -6   12    9     -1.94      0.00
   12   12    9      2.37      0.00
   12   13    9      5.66      0.00
   11   13    9      6.03      0.00
   10   13    9      6.02      0.00
    9   13    9      1.29      0.00
    8   13    9     -1.13      0.00
    7   13    9      1.20      0.00
    6   13    9      5.50      0.00
    5   13    9     -0.43      0.00
    4   13    9      2.02      0.00
    3   13    9      2.41      0.00
    2   13    9     -2.80      0.00
    1   13    9      0.64      0.00
    0   13    9      1.82      0.00
   -1   13    9     -2.16      0.00
   -2   13    9     -0.70      0.00
   -3   13    9      4.61      0.00
   -4   13    9     -3.88      0.00
   -5   13    9     -2.88      0.00
   -6   13    9     -1.50      0.00
   11   14    9      0.97      0.00
   10   14    9     -2.79      0.00
    9   14    9     -1.51      0.00
    8   14    9      1.03      0.00
    7   14    9     -5.59      0.00
    6   14    9      2.32      0.00
    5   14    9      7.24      0.00
    4   14    9     -2.20      0.00
    3   14    9     -2.26      0.00
    2   14    9     -2.91      0.00
    1   14    9     -5.08      0.00
    0   14    9     -1.28      0.00
   -1   14    9     -4.37      0.00
   -2   14    9     -3.22      0.00
   -3   14    9      4.75      0.00
   -4   14    9      4.49      0.00
   -5   14    9     -8.02      0.00
   -6   14    9     -4.48      0.00
   -7   14    9      1.01      0.00
   10   15    9     -4.89      0.00
    9   15    9     -8.90      0.00
    8   15    9     -3.37      0.00
    7   15    9     -1.84      0.00
    6   15    9      1.41      0.00
    5   15    9      4.68      0.00
    4   15    9      2.87      0.00
    3   15    9      2.38      0.00
    2   15    9      8.20      0.00
    1   15    9      2.88      0.00
    0   15    9      0.35      0.00
   -1   15    9      1.01      0.00
   -2   15    9      3.02      0.00
   -3   15    9     -7.22      0.00
   -4   15    9      5.81      0.00
   -5   15    9      7.07      0.00
   -6   15    9     -5.23      0.00
   -7   15    9      2.36      0.00
    9   16    9     -3.16      0.00
    8   16    9      0.43      0.00
    7   16    9     -3.51      0.00
    6   16    9      2.04      0.00
    5   16    9      2.38      0.00
    4   16    9      2.52      0.00
    3   16    9      3.52      0.00
    2   16    9      2.60      0.00
    1   16    9     -0.50      0.00
    0   16    9      8.47      0.00
   -1   16    9     -0.53      0.00
   -2   16    9      1.99      0.00
   -3   16    9     -2.71      0.00
   -4   16    9     -2.62      0.00
   -5   16    9      2.46      0.00
   -6   16    9      1.67      0.00
   -7   16    9     -2.32      0.00
   -8   16    9     -3.21      0.00
    8   17    9     -3.70      0.00
    7   17    9     -4.34      0.00
    6   17    9      3.61      0.00
    5   17    9      2.90      0.00
    4   17    9     -1.28      0.00
    3   17    9      0.77      0.00
    2   17    9      0.96      0.00
    1   17    9      4.22      0.00
    0   17    9      5.49      0.00
   -1   17    9      1.23      0.00
   -2   17    9      4.92      0.00
   -3   17    9      1.84      0.00
   -4   17    9     -4.24      0.00
   -5   17    9     -1.44      0.00
   -6   17    9      1.73      0.00
   -7   17    9      4.10      0.00
   -8   17    9     -2.28      0.00
    6   18    9     -7.90      0.00
    5   18    9      1.35      0.00
    4   18    9      0.61      0.00
    3   18    9      1.88      0.00
    2   18    9      0.93      0.00
    1   18    9      4.04      0.00
    0   18    9      5.41      0.00
   -1   18    9      0.68      0.00
   -2   18    9      0.70      0.00
   -3   18    9     -1.94      0.00
   -4   18    9     -2.55      0.00
   -5   18    9     -0.35      0.00
   -6   18    9     -6.20      0.00
   -7   18    9     -2.26      0.00
   -8   18    9      0.49      0.00
   -9   18    9     -2.10      0.00
    5   19    9      4.25      0.00
    4   19    9     -1.01      0.00
    3   19    9     -1.27      0.00
    2   19    9      3.95      0.00
    1   19    9      2.03      0.00
    0   19    9      2.51      0.00
   -1   19    9      2.16      0.00
   -2   19    9      7.70      0.00
   -3   19    9     -0.12      0.00
   -4   19    9     -0.66      0.00
   -5   19    9     -1.08      0.00
   -6   19    9      2.25      0.00
   -7   19    9      0.53      0.00
   -8   19    9      1.22      0.00
   -9   19    9     -2.80      0.00
    3   20    9      0.58      0.00
    2   20    9      5.33      0.00
    1   20    9      6.71      0.00
    0   20    9     -2.29      0.00
   -1   20    9      0.94      0.00
   -2   20    9      1.61      0.00
   -3   20    9      0.63      0.00
   -4   20    9      3.57      0.00
   -5   20    9      2.87      0.00
   -6   20    9     -1.77      0.00
   -7   20    9     -0.92      0.00
   -8   20    9      0.87      0.00
   -9   20    9     -3.34      0.00
  -10   20    9     -0.62      0.00
    2   21    9      5.18      0.00
    1   21    9      1.36      0.00
    0   21    9      3.71      0.00
   -1   21    9      2.43      0.00
   -2   21    9     -0.49      0.00
   -3   21    9      0.75      0.00
   -4   21    9      0.48      0.00
   -5   21    9      0.99      0.00
   -6   21    9     -3.69      0.00
   -7   21    9      2.09      0.00
   -8   21    9      6.97      0.00
   -9   21    9     -0.11      0.00
  -10   21    9      2.34      0.00
    0   22    9      6.39      0.00
   -1   22    9     -1.76      0.00
   -2   22    9      1.19      0.00
   -3   22    9     -1.77      0.00
   -4   22    9     -5.15      0.00
   -5   22    9      2.33      0.00
   -6   22    9     -1.35      0.00
   -7   22    9    -16.16      0.00
   -8   22    9      8.16      0.00
   -9   22    9      4.94      0.00
  -10   22    9      2.81      0.00
  -11   22    9     -2.34      0.00
   -2   23    9      2.63      0.00
   -3   23    9     -3.53      0.00
   -4   23    9     -5.87      0.00
   -5   23    9      6.96      0.00
   -6   23    9      2.91      0.00
   -7   23    9     -3.21      0.00
   -8   23    9     -0.96      0.00
   -9   23    9      9.15      0.00
  -10   23    9     12.17      0.00
  -11   23    9     -1.69      0.00
   -5   24    9      9.23      0.00
   -6   24    9      0.76      0.00
   -7   24    9     -2.02      0.00
   -8   24    9      1.26      0.00
   -9   24    9      7.95      0.00
  -10   24    9      2.85      0.00
  -11   24    9      0.23      0.00
  -12   24    9     -4.61      0.00
   -8   25    9     -3.06      0.00
   -9   25    9      1.42      0.00
  -10   25    9     -0.77      0.00
  -11   25    9     -1.90      0.00
  -12   25    9     -1.04      0.00
    0    0   10     30.59      0.00
    0    1   10      4.26      0.00
    1    1   10      3.10      0.00
    1    2   10     -0.80      0.00
    0    2   10      2.01      0.00
   -1    2   10     -6.76      0.00
    2    2   10    -12.37      0.00
    2    3   10      0.80      0.00
    1    3   10     -8.14      0.00
    0    3   10     -1.26      0.00
   -1    3   10     -4.37      0.00
    3    3   10      1.52      0.00
    3    4   10     -8.87      0.00
    2    4   10      5.94      0.00
    1    4   10      1.79      0.00
    0    4   10     -1.27      0.00
   -1    4   10     -5.90      0.00
   -2    4   10     -4.19      0.00
    4    4   10      2.50      0.00
    4    5   10      3.07      0.00
    3    5   10     -2.90      0.00
    2    5   10     -4.02      0.00
    1    5   10      2.30      0.00
    0    5   10      6.43      0.00
   -1    5   10     -8.15      0.00
   -2    5   10     -0.76      0.00
    5    5   10     -3.50      0.00
    5    6   10      1.81      0.00
    4    6   10      0.10      0.00
    3    6   10      3.98      0.00
    2    6   10      4.56      0.00
    1    6   10     -3.54      0.00
    0    6   10      6.68      0.00
   -1    6   10     -0.46      0.00
   -2    6   10     -4.68      0.00
   -3    6   10      2.70      0.00
    6    6   10      0.54      0.00
    6    7   10      4.42      0.00
    5    7   10     -3.00      0.00
    4    7   10      2.66      0.00
    3    7   10     -3.14      0.00
    2    7   10      2.58      0.00
    1    7   10      1.88      0.00
    0    7   10      0.45      0.00
   -1    7   10      1.76      0.00
   -2    7   10      4.19      0.00
   -3    7   10    -11.14      0.00
    7    7   10     10.48      0.00
    7    8   10      6.12      0.00
    6    8   10      4.54      0.00
    5    8   10      1.75      0.00
    4    8   10      1.07      0.00
    3    8   10      0.65      0.00
    2    8   10     -0.87      0.00
    1    8   10      2.11      0.00
    0    8   10      8.64      0.00
   -1    8   10     -1.98      0.00
   -2    8   10      6.67      0.00
   -3    8   10      0.55      0.00
   -4    8   10     -4.00      0.00
    8    8   10      3.67      0.00
    8    9   10     -1.61      0.00
    7    9   10      7.99      0.00
    6    9   10      4.94      0.00
    5    9   10      1.13      0.00
    4    9   10      1.04      0.00
    3    9   10     -0.63      0.00
    2    9   10     -1.44      0.00
    1    9   10     -5.43      0.00
    0    9   10      2.11      0.00
   -1    9   10      4.04      0.00
   -2    9   10     -4.23      0.00
   -3    9   10      1.44      0.00
   -4    9   10      0.50      0.00
    9    9   10      3.47      0.00
    9   10   10      3.28      0.00
    8   10   10     -0.50      0.00
    7   10   10      2.04      0.00
    6   10   10      2.13      0.00
    5   10   10     -1.56      0.00
    4   10   10      5.49      0.00
    3   10   10     -1.13      0.00
    2   10   10     -5.91      0.00
    1   10   10     -1.80      0.00
    0   10   10     -3.62      0.00
   -1   10   10     -0.63      0.00
   -2   10   10      3.22      0.00
   -3   10   10     -5.19      0.00
   -4   10   10     -2.96      0.00
   -5   10   10      5.13      0.00
   10   10   10      9.72      0.00
   10   11   10      4.72      0.00
    9   11   10      3.20      0.00
    8   11   10      7.30      0.00
    7   11   10     -6.42      0.00
    6   11   10     -1.10      0.00
    5   11   10     -2.16      0.00
    4   11   10      0.71      0.00
    3   11   10     -2.39      0.00
    2   11   10     -4.56      0.00
    1   11   10     -4.74      0.00
    0   11   10      0.47      0.00
   -1   11   10     -2.93      0.00
   -2   11   10     -0.90      0.00
   -3   11   10     -3.60      0.00
   -4   11   10     -7.03      0.00
   -5   11   10      2.05      0.00
   11   11   10     -0.01      0.00
   11   12   10      2.73      0.00
   10   12   10      0.81      0.00
    9   12   10      0.95      0.00
    8   12   10      5.23      0.00
    7   12   10      0.24      0.00
    6   12   10     -0.49      0.00
    5   12   10      1.40      0.00
    4   12   10      2.58      0.00
    3   12   10      0.96      0.00
    2   12   10      3.94      0.00
    1   12   10     -4.12      0.00
    0   12   10     -4.13      0.00
   -1   12   10      0.72      0.00
   -2   12   10     -4.62      0.00
   -3   12   10     -1.56      0.00
   -4   12   10      0.46      0.00
   -5   12   10     -1.77      0.00
   -6   12   10     -2.01      0.00
   12   12   10     -5.13      0.00
   12   13   10     -4.07      0.00
   11   13   10     -0.06      0.00
   10   13   10      2.63      0.00
    9   13   10      3.25      0.00
    8   13   10      0.43      0.00
    7   13   10     -2.14      0.00
    6   13   10      3.58      0.00
    5   13   10      3.39      0.00
    4   13   10      1.49      0.00
    3   13   10      2.26      0.00
    2   13   10      2.08      0.00
    1   13   10     -1.59      0.00
    0   13   10     -1.14      0.00
   -1   13   10     -4.16      0.00
   -2   13   10      6.50      0.00
   -3   13   10     -3.81      0.00
   -4   13   10      2.47      0.00
   -5   13   10      4.26      0.00
   -6   13   10     -2.46      0.00
   11   14   10     -4.29      0.00
   10   14   10     -0.99      0.00
    9   14   10      1.01      0.00
    8   14   10     -3.61      0.00
    7   14   10     -6.15      0.00
    6   14   10     -3.48      0.00
    5   14   10     -4.04      0.00
    4   14   10     -3.88      0.00
    3   14   10      4.11      0.00
    2   14   10      4.29      0.00
    1   14   10     -1.92      0.00
    0   14   10     -3.92      0.00
   -1   14   10     -2.30      0.00
   -2   14   10      2.02      0.00
   -3   14   10      4.21      0.00
   -4   14   10      1.10      0.00
   -5   14   10      0.32      0.00
   -6   14   10      7.69      0.00
   -7   14   10      4.35      0.00
    9   15   10     -2.16      0.00
    8   15   10      1.50      0.00
    7   15   10     -4.87      0.00
    6   15   10     -8.79      0.00
    5   15   10      0.41      0.00
    4   15   10      3.67      0.00
    3   15   10     -0.45      0.00
    2   15   10      4.05      0.00
    1   15   10      3.88      0.00
    0   15   10      4.82      0.00
   -1   15   10     -0.68      0.00
   -2   15   10      4.67      0.00
   -3   15   10      7.24      0.00
   -4   15   10      1.17      0.00
   -5   15   10     -0.35      0.00
   -6   15   10      2.70      0.00
   -7   15   10      4.50      0.00
    8   16   10      2.78      0.00
    7   16   10      3.77      0.00
    6   16   10     -4.70      0.00
    5   16   10     -4.05      0.00
    4   16   10     -2.24      0.00
    3   16   10      0.74      0.00
    2   16   10     -0.36      0.00
    1   16   10      3.33      0.00
    0   16   10      3.57      0.00
   -1   16   10      1.23      0.00
   -2   16   10      6.71      0.00
   -3   16   10      0.73      0.00
   -4   16   10     -2.50      0.00
   -5   16   10      3.46      0.00
   -6   16   10     -0.15      0.00
   -7   16   10      4.98      0.00
   -8   16   10      6.38      0.00
    7   17   10     -3.14      0.00
    6   17   10     -0.50      0.00
    5   17   10     -1.68      0.00
    4   17   10     -1.20      0.00
    3   17   10      0.11      0.00
    2   17   10     -0.05      0.00
    1   17   10     -3.09      0.00
    0   17   10      0.22      0.00
   -1   17   10     -3.04      0.00
   -2   17   10      5.75      0.00
   -3   17   10      5.67      0.00
   -4   17   10     -0.56      0.00
   -5   17   10     -0.62      0.00
   -6   17   10     -1.32      0.00
   -7   17   10     -2.91      0.00
   -8   17   10      5.33      0.00
    6   18   10      2.39      0.00
    5   18   10      2.22      0.00
    4   18   10      0.05      0.00
    3   18   10      2.58      0.00
    2   18   10      4.96      0.00
    1   18   10     -3.08      0.00
    0   18   10      3.89      0.00
   -1   18   10      0.00      0.00
   -2   18   10     -2.20      0.00
   -3   18   10      2.88      0.00
   -4   18   10      0.82      0.00
   -5   18   10     -2.74      0.00
   -6   18   10      0.00      0.00
   -7   18   10      0.23      0.00
   -8   18   10      2.17      0.00
   -9   18   10     -3.26      0.00
    4   19   10      2.29      0.00
    3   19   10      3.77      0.00
    2   19   10      4.70      0.00
    1   19   10      1.62      0.00
    0   19   10      1.92      0.00
   -1   19   10     -3.12      0.00
   -2   19   10     -3.44      0.00
   -3   19   10      1.98      0.00
   -4   19   10      3.70      0.00
   -5   19   10      6.73      0.00
   -6   19   10     -1.76      0.00
   -7   19   10     -2.06      0.00
   -8   19   10      5.50      0.00
   -9   19   10      1.04      0.00
    3   20   10     -0.62      0.00
    2   20   10     -1.70      0.00
    1   20   10      1.87      0.00
    0   20   10     -2.99      0.00
   -1   20   10     -7.39      0.00
   -2   20   10      1.74      0.00
   -3   20   10      3.23      0.00
   -4   20   10     -1.71      0.00
   -5   20   10      1.55      0.00
   -6   20   10      2.27      0.00
   -7   20   10     -1.19      0.00
   -8   20   10      5.33      0.00
   -9   20   10      3.93      0.00
  -10   20   10      2.06      0.00
    1   21   10     -2.92      0.00
    0   21   10     -1.05      0.00
   -1   21   10     -7.63      0.00
   -2   21   10      4.92      0.00
   -3   21   10      4.20      0.00
   -4   21   10      4.82      0.00
   -5   21   10      4.51      0.00
   -6   21   10     -5.30      0.00
   -7   21   10     -3.76      0.00
   -8   21   10      0.53      0.00
   -9   21   10      0.51      0.00
  -10   21   10     12.86      0.00
   -1   22   10     -3.36      0.00
   -2   22   10     -1.08      0.00
   -3   22   10      5.27      0.00
   -4   22   10      2.25      0.00
   -5   22   10      4.39      0.00
   -6   22   10     -3.96      0.00
   -7   22   10     -6.20      0.00
   -8   22   10     -3.92      0.00
   -9   22   10     -2.14      0.00
  -10   22   10      1.61      0.00
  -11   22   10     11.97      0.00
   -3   23   10     -2.40      0.00
   -4   23   10      0.74      0.00
   -5   23   10      5.00      0.00
   -6   23   10      6.09      0.00
   -7   23   10     -6.98      0.00
   -8   23   10     -4.12      0.00
   -9   23   10      3.74      0.00
  -10   23   10      6.52      0.00
  -11   23   10      7.11      0.00
   -6   24   10      5.29      0.00
   -7   24   10     -1.17      0.00
   -8   24   10      0.22      0.00
   -9   24   10     -0.21      0.00
  -10   24   10      8.88      0.00
  -11   24   10      5.64      0.00
  -12   24   10      2.09      0.00
  -11   25   10      4.72      0.00
  -12   25   10     12.66      0.00
    0    0   11     -7.70      0.00
    0    1   11     -0.83      0.00
    1    1   11     -5.03      0.00
    1    2   11      7.48      0.00
    0    2   11      6.90      0.00
   -1    2   11     -3.22      0.00
    2    2   11      3.98      0.00
    2    3   11      1.05      0.00
    1    3   11     -3.24      0.00
    0    3   11     14.50      0.00
   -1    3   11      2.41      0.00
    3    3   11      6.69      0.00
    3    4   11      2.41      0.00
    2    4   11      6.71      0.00
    1    4   11     -3.24      0.00
    0    4   11      0.34      0.00
   -1    4   11      2.12      0.00
   -2    4   11      1.04      0.00
    4    4   11     -3.45      0.00
    4    5   11      4.50      0.00
    3    5   11      0.00      0.00
    2    5   11     -1.43      0.00
    1    5   11      2.36      0.00
    0    5   11     -3.60      0.00
   -1    5   11     -3.81      0.00
   -2    5   11      3.48      0.00
    5    5   11     -5.75      0.00
    5    6   11     -0.75      0.00
    4    6   11     -0.31      0.00
    3    6   11      5.01      0.00
    2    6   11      1.42      0.00
    1    6   11     -4.86      0.00
    0    6   11      5.47      0.00
   -1    6   11     -1.98      0.00
   -2    6   11      2.40      0.00
   -3    6   11      9.74      0.00
    6    6   11      3.05      0.00
    6    7   11     -1.70      0.00
    5    7   11      1.71      0.00
    4    7   11      2.97      0.00
    3    7   11     -0.21      0.00
    2    7   11      6.70      0.00
    1    7   11     -4.51      0.00
    0    7   11     -2.94      0.00
   -1    7   11     -1.64      0.00
   -2    7   11     -6.39      0.00
   -3    7   11      2.77      0.00
    7    7   11     -4.58      0.00
    7    8   11      1.28      0.00
    6    8   11     -1.61      0.00
    5    8   11     -3.53      0.00
    4    8   11      9.79      0.00
    3    8   11      3.73      0.00
    2    8   11      1.38      0.00
    1    8   11      6.80      0.00
    0    8   11     -1.63      0.00
   -1    8   11     -5.30      0.00
   -2    8   11      0.10      0.00
   -3    8   11      2.91      0.00
   -4    8   11     -6.85      0.00
    8    8   11      1.46      0.00
    8    9   11      4.45      0.00
    7    9   11      1.68      0.00
    6    9   11      3.42      0.00
    5    9   11     -0.16      0.00
    4    9   11      8.62      0.00
    3    9   11      3.35      0.00
    2    9   11      2.91      0.00
    1    9   11     -3.50      0.00
    0    9   11      5.06      0.00
   -1    9   11     -4.27      0.00
   -2    9   11     -4.65      0.00
   -3    9   11      4.20      0.00
   -4    9   11     -1.73      0.00
    9    9   11      1.47      0.00
    9   10   11      1.47      0.00
    8   10   11      4.46      0.00
    7   10   11      1.33      0.00
    6   10   11      6.18      0.00
    5   10   11      4.93      0.00
    4   10   11      4.39      0.00
    3   10   11     -2.84      0.00
    2   10   11      0.72      0.00
    1   10   11      1.48      0.00
    0   10   11     -2.14      0.00
   -1   10   11      6.87      0.00
   -2   10   11     -3.43      0.00
   -3   10   11     -2.85      0.00
   -4   10   11      1.44      0.00
   -5   10   11     -2.04      0.00
   10   10   11     -3.19      0.00
   10   11   11     -3.18      0.00
    9   11   11     -0.68      0.00
    8   11   11      1.21      0.00
    7   11   11      1.54      0.00
    6   11   11     -2.62      0.00
    5   11   11      0.77      0.00
    4   11   11      5.67      0.00
    3   11   11     -1.14      0.00
    2   11   11     -2.17      0.00
    1   11   11      1.82      0.00
    0   11   11      0.85      0.00
   -1   11   11     -5.48      0.00
   -2   11   11      1.65      0.00
   -3   11   11      1.10      0.00
   -4   11   11     -3.08      0.00
   -5   11   11      4.96      0.00
   11   11   11     -3.18      0.00
   11   12   11     -5.68      0.00
   10   12   11     -7.06      0.00
    9   12   11     -2.96      0.00
    8   12   11     -0.27      0.00
    7   12   11      5.96      0.00
    6   12   11      4.94      0.00
    5   12   11      3.88      0.00
    4   12   11      1.61      0.00
    3   12   11      1.85      0.00
    2   12   11     -4.29      0.00
    1   12   11     -0.72      0.00
    0   12   11      9.04      0.00
   -1   12   11     -2.21      0.00
   -2   12   11     -5.53      0.00
   -3   12   11      7.46      0.00
   -4   12   11     -1.16      0.00
   -5   12   11     -3.34      0.00
   -6   12   11      8.81      0.00
   12   12   11     -1.50      0.00
   11   13   11     -0.36      0.00
   10   13   11      1.59      0.00
    9   13   11     -9.47      0.00
    8   13   11     -3.88      0.00
    7   13   11      0.07      0.00
    6   13   11      3.34      0.00
    5   13   11      2.92      0.00
    4   13   11      5.48      0.00
    3   13   11      0.20      0.00
    2   13   11     -4.78      0.00
    1   13   11     -6.44      0.00
    0   13   11      0.34      0.00
   -1   13   11      3.20      0.00
   -2   13   11     -2.66      0.00
   -3   13   11      0.13      0.00
   -4   13   11      3.92      0.00
   -5   13   11     -3.78      0.00
   -6   13   11     -0.30      0.00
   10   14   11     -1.94      0.00
    9   14   11     -3.13      0.00
    8   14   11     -6.61      0.00
    7   14   11     -7.20      0.00
    6   14   11     -1.31      0.00
    5   14   11      5.14      0.00
    4   14   11      0.76      0.00
    3   14   11     -1.49      0.00
    2   14   11     -3.49      0.00
    1   14   11     -4.58      0.00
    0   14   11     -4.06      0.00
   -1   14   11     -0.76      0.00
   -2   14   11      5.54      0.00
   -3   14   11      0.14      0.00
   -4   14   11     -1.33      0.00
   -5   14   11      5.09      0.00
   -6   14   11     -4.84      0.00
   -7   14   11     -6.67      0.00
    9   15   11     -0.17      0.00
    8   15   11     -3.09      0.00
    7   15   11     -8.03      0.00
    6   15   11      0.26      0.00
    5   15   11      1.81      0.00
    4   15   11     -2.27      0.00
    3   15   11      4.53      0.00
    2   15   11      0.38      0.00
    1   15   11     -0.88      0.00
    0   15   11      3.95      0.00
   -1   15   11     -6.63      0.00
   -2   15   11     -0.40      0.00
   -3   15   11      2.55      0.00
   -4   15   11      1.05      0.00
   -5   15   11     -5.25      0.00
   -6   15   11      4.20      0.00
   -7   15   11     -5.17      0.00
    7   16   11     -2.00      0.00
    6   16   11      0.81      0.00
    5   16   11     -4.14      0.00
    4   16   11      1.93      0.00
    3   16   11     -0.82      0.00
    2   16   11      0.17      0.00
    1   16   11     -1.39      0.00
    0   16   11      1.42      0.00
   -1   16   11     -1.80      0.00
   -2   16   11     -3.49      0.00
   -3   16   11      4.22      0.00
   -4   16   11      4.40      0.00
   -5   16   11     -0.56      0.00
   -6   16   11      4.44      0.00
   -7   16   11      1.60      0.00
   -8   16   11     -6.00      0.00
    6   17   11     -2.92      0.00
    5   17   11     -4.38      0.00
    4   17   11     -1.70      0.00
    3   17   11      3.65      0.00
    2   17   11     -0.30      0.00
    1   17   11     -3.95      0.00
    0   17   11      4.81      0.00
   -1   17   11      0.45      0.00
   -2   17   11     -2.33      0.00
   -3   17   11      1.91      0.00
   -4   17   11     -1.78      0.00
   -5   17   11      3.02      0.00
   -6   17   11     -1.86      0.00
   -7   17   11     -3.78      0.00
   -8   17   11      0.59      0.00
    5   18   11     -1.24      0.00
    4   18   11     -0.92      0.00
    3   18   11      4.35      0.00
    2   18   11     -2.36      0.00
    1   18   11     -1.19      0.00
    0   18   11      5.03      0.00
   -1   18   11     -0.19      0.00
   -2   18   11     -2.75      0.00
   -3   18   11      6.14      0.00
   -4   18   11     -1.26      0.00
   -5   18   11      2.03      0.00
   -6   18   11      2.24      0.00
   -7   18   11     -4.76      0.00
   -8   18   11     -3.38      0.00
   -9   18   11      5.33      0.00
    3   19   11     -5.75      0.00
    2   19   11      2.04      0.00
    1   19   11     -1.70      0.00
    0   19   11      2.96      0.00
   -1   19   11      4.75      0.00
   -2   19   11     -2.18      0.00
   -3   19   11     -5.40      0.00
   -4   19   11     -1.34      0.00
   -5   19   11     -1.57      0.00
   -6   19   11     -1.03      0.00
   -7   19   11      2.84      0.00
   -8   19   11      1.86      0.00
   -9   19   11     -5.60      0.00
    2   20   11     -2.59      0.00
    1   20   11     -1.92      0.00
    0   20   11      2.65      0.00
   -1   20   11      3.66      0.00
   -2   20   11     -1.15      0.00
   -3   20   11     -2.59      0.00
   -4   20   11     -1.67      0.00
   -5   20   11      1.72      0.00
   -6   20   11     -0.51      0.00
   -7   20   11      1.33      0.00
   -8   20   11      3.78      0.00
   -9   20   11      2.59      0.00
  -10   20   11     -0.52      0.00
    0   21   11      0.81      0.00
   -1   21   11      2.53      0.00
   -2   21   11      4.98      0.00
   -3   21   11      4.98      0.00
   -4   21   11     -5.27      0.00
   -5   21   11     -4.48      0.00
   -6   21   11      8.55      0.00
   -7   21   11      7.73      0.00
   -8   21   11      2.30      0.00
   -9   21   11     -2.58      0.00
  -10   21   11      0.66      0.00
   -2   22   11      6.18      0.00
   -3   22   11      1.63      0.00
   -4   22   11     -8.44      0.00
   -5   22   11     -2.01      0.00
   -6   22   11     -0.23      0.00
   -7   22   11     -0.32      0.00
   -8   22   11      2.02      0.00
   -9   22   11     -3.86      0.00
  -10   22   11     -2.02      0.00
  -11   22   11     -0.68      0.00
   -5   23   11     -8.02      0.00
   -6   23   11     -2.63      0.00
   -7   23   11     -2.00      0.00
   -8   23   11      0.43      0.00
   -9   23   11     -1.84      0.00
  -10   23   11     -5.50      0.00
  -11   23   11     -6.65      0.00
   -9   24   11     -1.70      0.00
  -10   24   11     -0.44      0.00
  -11   24   11     -1.55      0.00
  -12   24   11     -9.78      0.00
    0    0   12     21.24      0.00
    0    1   12      3.78      0.00
    1    1   12     -0.14      0.00
    1    2   12     -2.23      0.00
    0    2   12      0.63      0.00
   -1    2   12      6.63      0.00
    2    2   12     -2.96      0.00
    2    3   12     -7.43      0.00
    1    3   12     -2.54      0.00
    0    3   12     -5.35      0.00
   -1    3   12     -1.77      0.00
    3    3   12     -2.36      0.00
    3    4   12     -3.19      0.00
    2    4   12      0.16      0.00
    1    4   12     -6.75      0.00
    0    4   12     -0.75      0.00
   -1    4   12      0.21      0.00
   -2    4   12    -10.69      0.00
    4    4   12     -5.08      0.00
    4    5   12      2.08      0.00
    3    5   12     -4.26      0.00
    2    5   12      9.60      0.00
    1    5   12      0.08      0.00
    0    5   12      1.61      0.00
   -1    5   12      3.04      0.00
   -2    5   12     -3.37      0.00
    5    5   12      1.76      0.00
    5    6   12     -0.63      0.00
    4    6   12      3.14      0.00
    3    6   12      3.07      0.00
    2    6   12     -1.30      0.00
    1    6   12      7.67      0.00
    0    6   12      3.35      0.00
   -1    6   12      1.56      0.00
   -2    6   12     -2.06      0.00
   -3    6   12      1.98      0.00
    6    6   12      3.66      0.00
    6    7   12      0.92      0.00
    5    7   12     -0.13      0.00
    4    7   12     -6.24      0.00
    3    7   12     -5.60      0.00
    2    7   12      1.76      0.00
    1    7   12     -6.02      0.00
    0    7   12      5.52      0.00
   -1    7   12      1.73      0.00
   -2    7   12     -8.41      0.00
   -3    7   12     -5.06      0.00
    7    7   12     -2.77      0.00
    7    8   12      2.70      0.00
    6    8   12     -2.07      0.00
    5    8   12      3.38      0.00
    4    8   12      2.97      0.00
    3    8   12     -5.48      0.00
    2    8   12     -0.51      0.00
    1    8   12      0.39      0.00
    0    8   12     -0.23      0.00
   -1    8   12      5.15      0.00
   -2    8   12     -0.55      0.00
   -3    8   12     -2.80      0.00
   -4    8   12      3.93      0.00
    8    8   12     -1.58      0.00
    8    9   12     -3.14      0.00
    7    9   12      2.90      0.00
    6    9   12      4.41      0.00
    5    9   12     -1.76      0.00
    4    9   12      1.25      0.00
    3    9   12     -2.48      0.00
    2    9   12     -4.76      0.00
    1    9   12      1.10      0.00
    0    9   12      2.94      0.00
   -1    9   12     -1.10      0.00
   -2    9   12      1.16      0.00
   -3    9   12      4.50      0.00
   -4    9   12     -1.00      0.00
    9    9   12     -0.82      0.00
    9   10   12      1.54      0.00
    8   10   12      1.81      0.00
    7   10   12     -2.93      0.00
    6   10   12     -1.27      0.00
    5   10   12     -0.23      0.00
    4   10   12     -2.27      0.00
    3   10   12     -0.46      0.00
    2   10   12      0.05      0.00
    1   10   12     -4.35      0.00
    0   10   12      0.71      0.00
   -1   10   12      4.23      0.00
   -2   10   12     -5.75      0.00
   -3   10   12      4.75      0.00
   -4   10   12     -0.03      0.00
   -5   10   12    -12.31      0.00
   10   10   12      0.01      0.00
   10   11   12      1.39      0.00
    9   11   12     -1.07      0.00
    8   11   12      6.91      0.00
    7   11   12      1.37      0.00
    6   11   12     -0.97      0.00
    5   11   12     -0.63      0.00
    4   11   12     -0.60      0.00
    3   11   12     -5.08      0.00
    2   11   12     -4.22      0.00
    1   11   12      1.38      0.00
    0   11   12      0.34      0.00
   -1   11   12     -0.46      0.00
   -2   11   12      1.82      0.00
   -3   11   12     -1.40      0.00
   -4   11   12      3.56      0.00
   -5   11   12     -4.71      0.00
   11   11   12     -4.00      0.00
   11   12   12      0.50      0.00
   10   12   12     -3.04      0.00
    9   12   12     -2.25      0.00
    8   12   12      2.87      0.00
    7   12   12      1.42      0.00
    6   12   12      5.30      0.00
    5   12   12      0.29      0.00
    4   12   12      3.94      0.00
    3   12   12      1.93      0.00
    2   12   12     -5.26      0.00
    1   12   12      2.81      0.00
    0   12   12      2.22      0.00
   -1   12   12     -1.35      0.00
   -2   12   12     -4.25      0.00
   -3   12   12      3.68      0.00
   -4   12   12      2.59      0.00
   -5   12   12      3.82      0.00
   -6   12   12     -0.21      0.00
   10   13   12     -3.31      0.00
    9   13   12      1.76      0.00
    8   13   12      4.26      0.00
    7   13   12     -2.49      0.00
    6   13   12     -0.57      0.00
    5   13   12      0.71      0.00
    4   13   12     -2.99      0.00
    3   13   12      1.80      0.00
    2   13   12      2.01      0.00
    1   13   12     -5.93      0.00
    0   13   12      3.25      0.00
   -1   13   12      7.36      0.00
   -2   13   12     -5.91      0.00
   -3   13   12      5.46      0.00
   -4   13   12     15.81      0.00
   -5   13   12     -3.24      0.00
   -6   13   12      4.88      0.00
    9   14   12     -1.57      0.00
    8   14   12      3.86      0.00
    7   14   12      1.07      0.00
    6   14   12     -0.67      0.00
    5   14   12     -5.38      0.00
    4   14   12     -0.28      0.00
    3   14   12      3.16      0.00
    2   14   12      3.49      0.00
    1   14   12      0.57      0.00
    0   14   12      2.23      0.00
   -1   14   12      6.08      0.00
   -2   14   12      1.48      0.00
   -3   14   12      0.88      0.00
   -4   14   12      3.62      0.00
   -5   14   12      0.70      0.00
   -6   14   12      3.17      0.00
   -7   14   12     11.05      0.00
    8   15   12      6.88      0.00
    7   15   12     11.28      0.00
    6   15   12      7.96      0.00
    5   15   12     -3.07      0.00
    4   15   12     -1.01      0.00
    3   15   12      0.35      0.00
    2   15   12     -0.07      0.00
    1   15   12      1.12      0.00
    0   15   12      2.92      0.00
   -1   15   12     -1.04      0.00
   -2   15   12      2.94      0.00
   -3   15   12      3.49      0.00
   -4   15   12     -7.38      0.00
   -5   15   12     -1.33      0.00
   -6   15   12      3.75      0.00
   -7   15   12     -3.20      0.00
    7   16   12     10.50      0.00
    6   16   12     10.57      0.00
    5   16   12      8.19      0.00
    4   16   12     -0.26      0.00
    3   16   12      6.58      0.00
    2   16   12      4.44      0.00
    1   16   12     -4.86      0.00
    0   16   12      2.56      0.00
   -1   16   12      0.90      0.00
   -2   16   12     -5.06      0.00
   -3   16   12      5.96      0.00
   -4   16   12     -0.50      0.00
   -5   16   12     -9.18      0.00
   -6   16   12     -3.53      0.00
   -7   16   12      4.95      0.00
   -8   16   12     -6.14      0.00
    5   17   12      3.74      0.00
    4   17   12      6.03      0.00
    3   17   12      8.45      0.00
    2   17   12      3.97      0.00
    1   17   12      1.11      0.00
    0   17   12      1.78      0.00
   -1   17   12     -2.26      0.00
   -2   17   12      0.15      0.00
   -3   17   12      1.36      0.00
   -4   17   12      4.55      0.00
   -5   17   12     -2.78      0.00
   -6   17   12     -5.37      0.00
   -7   17   12      1.36      0.00
   -8   17   12     -4.08      0.00
    4   18   12      0.77      0.00
    3   18   12      5.83      0.00
    2   18   12      8.27      0.00
    1   18   12      0.27      0.00
    0   18   12      6.49      0.00
   -1   18   12      4.17      0.00
   -2   18   12     -1.40      0.00
   -3   18   12      1.94      0.00
   -4   18   12      4.61      0.00
   -5   18   12      3.89      0.00
   -6   18   12      1.43      0.00
   -7   18   12     -0.32      0.00
   -8   18   12     -0.44      0.00
   -9   18   12     -1.48      0.00
    2   19   12      3.60      0.00
    1   19   12      3.03      0.00
    0   19   12      3.44      0.00
   -1   19   12      9.31      0.00
   -2   19   12      1.74      0.00
   -3   19   12      2.98      0.00
   -4   19   12      4.34      0.00
   -5   19   12     -1.70      0.00
   -6   19   12      0.56      0.00
   -7   19   12      0.29      0.00
   -8   19   12     -4.75      0.00
   -9   19   12     -5.08      0.00
    0   20   12      2.32      0.00
   -1   20   12      3.28      0.00
   -2   20   12      3.79      0.00
   -3   20   12      8.74      0.00
   -4   20   12      6.07      0.00
   -5   20   12      5.70      0.00
   -6   20   12      3.86      0.00
   -7   20   12      4.50      0.00
   -8   20   12     -0.45      0.00
   -9   20   12     -4.63      0.00
  -10   20   12     -3.64      0.00
   -2   21   12      5.38      0.00
   -3   21   12      5.27      0.00
   -4   21   12      9.64      0.00
   -5   21   12      9.36      0.00
   -6   21   12      6.63      0.00
   -7   21   12      3.53      0.00
   -8   21   12      1.43      0.00
   -9   21   12     -1.88      0.00
  -10   21   12     -2.61      0.00
   -4   22   12      0.84      0.00
   -5   22   12     -0.48      0.00
   -6   22   12      7.28      0.00
   -7   22   12     10.41      0.00
   -8   22   12      1.67      0.00
   -9   22   12     -5.12      0.00
  -10   22   12     -1.67      0.00
  -11   22   12      7.07      0.00
   -7   23   12      0.92      0.00
   -8   23   12     -2.31      0.00
   -9   23   12     -6.87      0.00
  -10   23   12     -0.73      0.00
  -11   23   12     -3.79      0.00
    0    0   13    -12.38      0.00
    0    1   13      2.32      0.00
    1    1   13      0.71      0.00
    1    2   13      0.38      0.00
    0    2   13     -0.19      0.00
   -1    2   13      2.51      0.00
    2    2   13      5.94      0.00
    2    3   13      6.82      0.00
    1    3   13     -0.63      0.00
    0    3   13     -2.71      0.00
   -1    3   13      3.56      0.00
    3    3   13     -5.39      0.00
    3    4   13      6.40      0.00
    2    4   13      1.71      0.00
    1    4   13      3.77      0.00
    0    4   13     -0.57      0.00
   -1    4   13     -2.48      0.00
   -2    4   13      6.40      0.00
    4    4   13     -4.30      0.00
    4    5   13     -0.66      0.00
    3    5   13     -2.22      0.00
    2    5   13      4.14      0.00
    1    5   13     -3.57      0.00
    0    5   13     -4.36      0.00
   -1    5   13      4.45      0.00
   -2    5   13     -0.43      0.00
    5    5   13     10.30      0.00
    5    6   13     -0.92      0.00
    4    6   13      2.07      0.00
    3    6   13     -5.92      0.00
    2    6   13     -3.60      0.00
    1    6   13      0.49      0.00
    0    6   13     -9.34      0.00
   -1    6   13     -0.88      0.00
   -2    6   13      5.10      0.00
   -3    6   13     -3.21      0.00
    6    6   13     -3.40      0.00
    6    7   13     -6.07      0.00
    5    7   13     -2.10      0.00
    4    7   13     -0.85      0.00
    3    7   13      0.65      0.00
    2    7   13     -5.11      0.00
    1    7   13     -3.67      0.00
    0    7   13     -1.94      0.00
   -1    7   13     -3.68      0.00
   -2    7   13      0.35      0.00
   -3    7   13      0.35      0.00
    7    7   13     -9.53      0.00
    7    8   13     -4.26      0.00
    6    8   13     -5.01      0.00
    5    8   13      1.62      0.00
    4    8   13     -2.42      0.00
    3    8   13     -1.22      0.00
    2    8   13      7.25      0.00
    1    8   13      2.29      0.00
    0    8   13     -1.26      0.00
   -1    8   13      9.60      0.00
   -2    8   13     -4.68      0.00
   -3    8   13      0.75      0.00
   -4    8   13      6.22      0.00
    8    8   13      3.67      0.00
    8    9   13      1.02      0.00
    7    9   13     -4.26      0.00
    6    9   13     -4.78      0.00
    5    9   13     -4.29      0.00
    4    9   13      5.89      0.00
    3    9   13     -3.83      0.00
    2    9   13      0.02      0.00
    1    9   13      5.94      0.00
    0    9   13      1.28      0.00
   -1    9   13      5.62      0.00
   -2    9   13      3.54      0.00
   -3    9   13     -6.63      0.00
   -4    9   13      2.82      0.00
    9    9   13     -2.02      0.00
    9   10   13     -2.30      0.00
    8   10   13     -0.69      0.00
    7   10   13     -5.61      0.00
    6   10   13     -3.14      0.00
    5   10   13     -5.16      0.00
    4   10   13     -2.77      0.00
    3   10   13     -1.70      0.00
    2   10   13     -2.59      0.00
    1   10   13      4.94      0.00
    0   10   13      5.41      0.00
   -1   10   13      5.25      0.00
   -2   10   13      1.05      0.00
   -3   10   13      0.73      0.00
   -4   10   13     -3.40      0.00
   -5   10   13      3.07      0.00
   10   10   13     -3.44      0.00
   10   11   13      2.23      0.00
    9   11   13     -1.56      0.00
    8   11   13     -1.13      0.00
    7   11   13     -2.12      0.00
    6   11   13     -5.32      0.00
    5   11   13     -1.92      0.00
    4   11   13     -2.15      0.00
    3   11   13     -0.32      0.00
    2   11   13      6.62      0.00
    1   11   13     -0.07      0.00
    0   11   13     -1.91      0.00
   -1   11   13      3.71      0.00
   -2   11   13     -3.66      0.00
   -3   11   13     -4.99      0.00
   -4   11   13      6.15      0.00
   -5   11   13      0.17      0.00
   11   11   13      5.48      0.00
   10   12   13      3.54      0.00
    9   12   13     -0.27      0.00
    8   12   13      4.00      0.00
    7   12   13      5.39      0.00
    6   12   13     -2.67      0.00
    5   12   13     -2.32      0.00
    4   12   13      0.67      0.00
    3   12   13     -0.71      0.00
    2   12   13      1.81      0.00
    1   12   13      1.72      0.00
    0   12   13     -1.52      0.00
   -1   12   13      0.24      0.00
   -2   12   13     -2.53      0.00
   -3   12   13     -3.27      0.00
   -4   12   13     -0.81      0.00
   -5   12   13      2.81      0.00
   -6   12   13     -0.86      0.00
    9   13   13      3.36      0.00
    8   13   13      4.89      0.00
    7   13   13      2.40      0.00
    6   13   13      3.99      0.00
    5   13   13      4.51      0.00
    4   13   13     -0.71      0.00
    3   13   13      3.06      0.00
    2   13   13     -4.52      0.00
    1   13   13     -6.05      0.00
    0   13   13      1.72      0.00
   -1   13   13      1.93      0.00
   -2   13   13     -0.31      0.00
   -3   13   13      0.18      0.00
   -4   13   13     -1.03      0.00
   -5   13   13      1.10      0.00
   -6   13   13      3.42      0.00
    8   14   13      1.50      0.00
    7   14   13      2.92      0.00
    6   14   13     -0.14      0.00
    5   14   13      5.15      0.00
    4   14   13      6.08      0.00
    3   14   13      7.57      0.00
    2   14   13      4.36      0.00
    1   14   13     -1.14      0.00
    0   14   13     -3.76      0.00
   -1   14   13      2.83      0.00
   -2   14   13     -0.44      0.00
   -3   14   13     -2.73      0.00
   -4   14   13      4.36      0.00
   -5   14   13     -2.11      0.00
   -6   14   13     -5.95      0.00
   -7   14   13      6.66      0.00
    7   15   13     -0.65      0.00
    6   15   13      0.48      0.00
    5   15   13     -0.90      0.00
    4   15   13      1.85      0.00
    3   15   13      8.67      0.00
    2   15   13      3.84      0.00
    1   15   13      1.95      0.00
    0   15   13      1.05      0.00
   -1   15   13     -0.78      0.00
   -2   15   13     -0.49      0.00
   -3   15   13     -1.84      0.00
   -4   15   13      2.33      0.00
   -5   15   13     -2.25      0.00
   -6   15   13     -4.11      0.00
   -7   15   13      7.06      0.00
    6   16   13      3.36      0.00
    5   16   13     -4.07      0.00
    4   16   13     -1.81      0.00
    3   16   13      1.69      0.00
    2   16   13      3.43      0.00
    1   16   13      0.33      0.00
    0   16   13      1.18      0.00
   -1   16   13     -0.41      0.00
   -2   16   13      3.46      0.00
   -3   16   13      2.37      0.00
   -4   16   13      1.93      0.00
   -5   16   13      2.29      0.00
   -6   16   13      4.10      0.00
   -7   16   13      1.06      0.00
   -8   16   13     -2.00      0.00
    4   17   13     -2.87      0.00
    3   17   13      1.04      0.00
    2   17   13      1.24      0.00
    1   17   13      1.01      0.00
    0   17   13     -4.19      0.00
   -1   17   13     -0.60      0.00
   -2   17   13     -1.24      0.00
   -3   17   13      6.73      0.00
   -4   17   13      6.58      0.00
   -5   17   13     -0.10      0.00
   -6   17   13     -1.63      0.00
   -7   17   13      4.75      0.00
   -8   17   13      1.22      0.00
    3   18   13      4.55      0.00
    2   18   13     -1.04      0.00
    1   18   13     -3.13      0.00
    0   18   13     -0.08      0.00
   -1   18   13      3.15      0.00
   -2   18   13     -1.64      0.00
   -3   18   13      2.84      0.00
   -4   18   13      4.39      0.00
   -5   18   13      5.24      0.00
   -6   18   13     -4.59      0.00
   -7   18   13     -0.24      0.00
   -8   18   13     -0.21      0.00
   -9   18   13     -3.75      0.00
    1   19   13      1.51      0.00
    0   19   13      4.92      0.00
   -1   19   13      5.02      0.00
   -2   19   13     -0.11      0.00
   -3   19   13     -2.77      0.00
   -4   19   13     -0.03      0.00
   -5   19   13      0.10      0.00
   -6   19   13     -2.32      0.00
   -7   19   13     -2.04      0.00
   -8   19   13     -2.31      0.00
   -9   19   13     -4.40      0.00
   -1   20   13      0.49      0.00
   -2   20   13      5.28      0.00
   -3   20   13     -0.08      0.00
   -4   20   13     -2.26      0.00
   -5   20   13     -4.84      0.00
   -6   20   13     -2.98      0.00
   -7   20   13      3.44      0.00
   -8   20   13      1.03      0.00
   -9   20   13     -0.22      0.00
  -10   20   13     -0.81      0.00
   -3   21   13      0.81      0.00
   -4   21   13     -4.57      0.00
   -5   21   13     -5.23      0.00
   -6   21   13     -3.49      0.00
   -7   21   13      5.79      0.00
   -8   21   13      7.22      0.00
   -9   21   13     -1.35      0.00
  -10   21   13      5.15      0.00
   -6   22   13     -5.17      0.00
   -7   22   13     -0.30      0.00
   -8   22   13      2.01      0.00
   -9   22   13     10.89      0.00
  -10   22   13      9.40      0.00
  -11   22   13      5.97      0.00
    0    0   14     12.89      0.00
    0    1   14     -0.85      0.00
    1    1   14      5.93      0.00
    1    2   14     -2.63      0.00
    0    2   14     -0.11      0.00
   -1    2   14      1.20      0.00
    2    2   14     -6.63      0.00
    2    3   14      4.29      0.00
    1    3   14      3.30      0.00
    0    3   14     -7.85      0.00
   -1    3   14      0.64      0.00
    3    3   14     -2.90      0.00
    3    4   14     -3.90      0.00
    2    4   14     -0.42      0.00
    1    4   14     10.98      0.00
    0    4   14     -4.66      0.00
   -1    4   14     -1.83      0.00
   -2    4   14      3.13      0.00
    4    4   14      3.87      0.00
    4    5   14      3.16      0.00
    3    5   14     -0.79      0.00
    2    5   14      2.58      0.00
    1    5   14      4.07      0.00
    0    5   14      4.50      0.00
   -1    5   14     -3.80      0.00
   -2    5   14      0.95      0.00
    5    5   14      1.80      0.00
    5    6   14      1.80      0.00
    4    6   14      0.75      0.00
    3    6   14     -3.46      0.00
    2    6   14      2.11      0.00
    1    6   14      3.91      0.00
    0    6   14     -1.34      0.00
   -1    6   14      9.07      0.00
   -2    6   14      1.14      0.00
   -3    6   14     -0.13      0.00
    6    6   14     -3.91      0.00
    6    7   14      1.00      0.00
    5    7   14     -3.07      0.00
    4    7   14     -0.12      0.00
    3    7   14     -0.55      0.00
    2    7   14     -6.42      0.00
    1    7   14      4.72      0.00
    0    7   14      5.50      0.00
   -1    7   14     -0.71      0.00
   -2    7   14      7.64      0.00
   -3    7   14     -3.08      0.00
    7    7   14      6.56      0.00
    7    8   14      4.46      0.00
    6    8   14      2.77      0.00
    5    8   14      0.32      0.00
    4    8   14     -1.65      0.00
    3    8   14     -4.15      0.00
    2    8   14     -1.93      0.00
    1    8   14     -2.86      0.00
    0    8   14      0.75      0.00
   -1    8   14     -0.44      0.00
   -2    8   14     -0.64      0.00
   -3    8   14      0.71      0.00
   -4    8   14     -1.99      0.00
    8    8   14     -1.11      0.00
    8    9   14      1.16      0.00
    7    9   14      0.25      0.00
    6    9   14     -4.37      0.00
    5    9   14     -1.07      0.00
    4    9   14     -4.75      0.00
    3    9   14     -8.71      0.00
    2    9   14     -1.84      0.00
    1    9   14      1.97      0.00
    0    9   14     -5.35      0.00
   -1    9   14      1.13      0.00
   -2    9   14      2.83      0.00
   -3    9   14     -5.98      0.00
   -4    9   14      1.56      0.00
    9    9   14      1.13      0.00
    9   10   14      0.13      0.00
    8   10   14      0.68      0.00
    7   10   14      0.85      0.00
    6   10   14     -6.79      0.00
    5   10   14     -5.89      0.00
    4   10   14     -1.97      0.00
    3   10   14      1.22      0.00
    2   10   14     -6.69      0.00
    1   10   14      3.45      0.00
    0   10   14     -1.42      0.00
   -1   10   14     -2.76      0.00
   -2   10   14      6.62      0.00
   -3   10   14     -2.50      0.00
   -4   10   14     -2.11      0.00
   -5   10   14      8.21      0.00
   10   10   14     11.36      0.00
   10   11   14     -4.09      0.00
    9   11   14     -1.94      0.00
    8   11   14      1.52      0.00
    7   11   14     -0.52      0.00
    6   11   14      2.74      0.00
    5   11   14      2.25      0.00
    4   11   14     -1.37      0.00
    3   11   14      1.50      0.00
    2   11   14      2.36      0.00
    1   11   14      2.41      0.00
    0   11   14      1.23      0.00
   -1   11   14     -0.80      0.00
   -2   11   14     -4.77      0.00
   -3   11   14     -2.80      0.00
   -4   11   14     -4.89      0.00
   -5   11   14      1.98      0.00
    9   12   14     -1.99      0.00
    8   12   14     -3.24      0.00
    7   12   14     -3.79      0.00
    6   12   14      4.71      0.00
    5   12   14      5.18      0.00
    4   12   14      1.37      0.00
    3   12   14     -3.49      0.00
    2   12   14      1.25      0.00
    1   12   14      2.48      0.00
    0   12   14      3.70      0.00
   -1   12   14      3.11      0.00
   -2   12   14     -3.49      0.00
   -3   12   14     -4.00      0.00
   -4   12   14      0.95      0.00
   -5   12   14      5.50      0.00
   -6   12   14     -1.63      0.00
    8   13   14      1.91      0.00
    7   13   14      2.64      0.00
    6   13   14      0.01      0.00
    5   13   14     -1.39      0.00
    4   13   14      1.89      0.00
    3   13   14      0.18      0.00
    2   13   14     -7.86      0.00
    1   13   14     -1.43      0.00
    0   13   14     -2.64      0.00
   -1   13   14      1.03      0.00
   -2   13   14      5.21      0.00
   -3   13   14     -2.83      0.00
   -4   13   14     -1.33      0.00
   -5   13   14      4.79      0.00
   -6   13   14     -1.22      0.00
    7   14   14     -0.36      0.00
    6   14   14     -1.27      0.00
    5   14   14      1.56      0.00
    4   14   14      5.28      0.00
    3   14   14      2.72      0.00
    2   14   14      2.87      0.00
    1   14   14     -3.89      0.00
    0   14   14     -1.16      0.00
   -1   14   14      0.95      0.00
   -2   14   14      1.08      0.00
   -3   14   14     -0.16      0.00
   -4   14   14     -6.57      0.00
   -5   14   14     -2.73      0.00
   -6   14   14      0.85      0.00
   -7   14   14     -0.95      0.00
    6   15   14      2.36      0.00
    5   15   14      1.00      0.00
    4   15   14      0.18      0.00
    3   15   14      5.29      0.00
    2   15   14      1.50      0.00
    1   15   14      1.66      0.00
    0   15   14     -0.21      0.00
   -1   15   14      4.42      0.00
   -2   15   14      1.05      0.00
   -3   15   14      2.25      0.00
   -4   15   14      2.91      0.00
   -5   15   14      1.54      0.00
   -6   15   14     -2.70      0.00
   -7   15   14      1.57      0.00
    4   16   14     -1.33      0.00
    3   16   14      2.64      0.00
    2   16   14     -0.11      0.00
    1   16   14      3.78      0.00
    0   16   14     -0.31      0.00
   -1   16   14      0.12      0.00
   -2   16   14      4.19      0.00
   -3   16   14      3.47      0.00
   -4   16   14      0.13      0.00
   -5   16   14      5.03      0.00
   -6   16   14     -3.63      0.00
   -7   16   14     -3.41      0.00
   -8   16   14     -1.11      0.00
    3   17   14     -1.31      0.00
    2   17   14     -0.96      0.00
    1   17   14      1.45      0.00
    0   17   14      3.27      0.00
   -1   17   14     -4.00      0.00
   -2   17   14      0.04      0.00
   -3   17   14      0.12      0.00
   -4   17   14     -2.88      0.00
   -5   17   14      1.94      0.00
   -6   17   14      0.72      0.00
   -7   17   14     -5.72      0.00
   -8   17   14     -4.03      0.00
    1   18   14      3.20      0.00
    0   18   14      7.36      0.00
   -1   18   14     -0.41      0.00
   -2   18   14     -3.94      0.00
   -3   18   14     -3.69      0.00
   -4   18   14      0.67      0.00
   -5   18   14     -0.89      0.00
   -6   18   14     -0.66      0.00
   -7   18   14      0.10      0.00
   -8   18   14     -1.21      0.00
   -9   18   14     -4.12      0.00
   -1   19   14      5.04      0.00
   -2   19   14      2.46      0.00
   -3   19   14     -3.34      0.00
   -4   19   14     -2.16      0.00
   -5   19   14      9.55      0.00
   -6   19   14      3.87      0.00
   -7   19   14     -3.47      0.00
   -8   19   14      5.25      0.00
   -9   19   14      4.55      0.00
   -3   20   14     -7.04      0.00
   -4   20   14     -1.53      0.00
   -5   20   14      6.79      0.00
   -6   20   14      5.56      0.00
   -7   20   14      4.47      0.00
   -8   20   14     -1.14      0.00
   -9   20   14     -1.53      0.00
  -10   20   14      3.47      0.00
   -6   21   14      2.03      0.00
   -7   21   14      4.30      0.00
   -8   21   14      0.20      0.00
   -9   21   14     -0.31      0.00
  -10   21   14     -0.58      0.00
    0    0   15    -12.35      0.00
    0    1   15     -3.01      0.00
    1    1   15     -5.01      0.00
    1    2   15     -0.34      0.00
    0    2   15     -3.75      0.00
   -1    2   15     -6.00      0.00
    2    2   15      1.03      0.00
    2    3   15      9.34      0.00
    1    3   15     -0.92      0.00
    0    3   15      7.21      0.00
   -1    3   15      2.02      0.00
    3    3   15      6.02      0.00
    3    4   15     -8.19      0.00
    2    4   15      5.12      0.00
    1    4   15     15.27      0.00
    0    4   15      1.33      0.00
   -1    4   15     -2.96      0.00
   -2    4   15      1.17      0.00
    4    4   15     -4.81      0.00
    4    5   15      3.06      0.00
    3    5   15     -1.81      0.00
    2    5   15    -10.48      0.00
    1    5   15      2.57      0.00
    0    5   15      2.92      0.00
   -1    5   15     -4.02      0.00
   -2    5   15      4.47      0.00
    5    5   15      2.17      0.00
    5    6   15     -1.21      0.00
    4    6   15      1.29      0.00
    3    6   15      2.04      0.00
    2    6   15     -6.48      0.00
    1    6   15     -1.44      0.00
    0    6   15      0.40      0.00
   -1    6   15     -4.56      0.00
   -2    6   15     -2.69      0.00
   -3    6   15      0.35      0.00
    6    6   15      3.59      0.00
    6    7   15     -0.39      0.00
    5    7   15      2.77      0.00
    4    7   15      1.03      0.00
    3    7   15      1.84      0.00
    2    7   15      1.11      0.00
    1    7   15      0.83      0.00
    0    7   15     -5.60      0.00
   -1    7   15     -4.17      0.00
   -2    7   15     -4.87      0.00
   -3    7   15     -5.07      0.00
    7    7   15      4.95      0.00
    7    8   15      2.58      0.00
    6    8   15      3.55      0.00
    5    8   15      0.17      0.00
    4    8   15      3.84      0.00
    3    8   15      3.62      0.00
    2    8   15     -4.27      0.00
    1    8   15     -1.94      0.00
    0    8   15      2.64      0.00
   -1    8   15     -2.25      0.00
   -2    8   15     -4.06      0.00
   -3    8   15     -1.66      0.00
   -4    8   15     -8.87      0.00
    8    8   15     -6.69      0.00
    8    9   15     -6.49      0.00
    7    9   15     -7.42      0.00
    6    9   15      5.68      0.00
    5    9   15      5.61      0.00
    4    9   15      5.74      0.00
    3    9   15      2.82      0.00
    2    9   15     -6.42      0.00
    1    9   15     -4.37      0.00
    0    9   15      1.15      0.00
   -1    9   15      4.65      0.00
   -2    9   15      0.39      0.00
   -3    9   15      0.86      0.00
   -4    9   15     -0.10      0.00
    9    9   15     -9.04      0.00
    9   10   15    -11.53      0.00
    8   10   15     -7.94      0.00
    7   10   15      0.50      0.00
    6   10   15      4.06      0.00
    5   10   15      4.40      0.00
    4   10   15      5.08      0.00
    3   10   15     -0.23      0.00
    2   10   15     -2.83      0.00
    1   10   15     -5.32      0.00
    0   10   15     -5.33      0.00
   -1   10   15     -5.09      0.00
   -2   10   15      4.00      0.00
   -3   10   15      3.90      0.00
   -4   10   15     -2.58      0.00
   -5   10   15      5.17      0.00
   10   10   15     -6.49      0.00
    9   11   15     -4.61      0.00
    8   11   15    -13.57      0.00
    7   11   15      0.35      0.00
    6   11   15      4.28      0.00
    5   11   15      4.92      0.00
    4   11   15     -0.15      0.00
    3   11   15      3.18      0.00
    2   11   15      3.25      0.00
    1   11   15      2.11      0.00
    0   11   15     -0.37      0.00
   -1   11   15    -13.86      0.00
   -2   11   15     -2.63      0.00
   -3   11   15      2.50      0.00
   -4   11   15     -6.45      0.00
   -5   11   15      1.43      0.00
    8   12   15     -0.48      0.00
    7   12   15     -1.16      0.00
    6   12   15      0.05      0.00
    5   12   15     -0.98      0.00
    4   12   15     -5.63      0.00
    3   12   15     -5.36      0.00
    2   12   15     -1.07      0.00
    1   12   15      6.11      0.00
    0   12   15     -0.08      0.00
   -1   12   15     -1.98      0.00
   -2   12   15     -4.20      0.00
   -3   12   15      2.81      0.00
   -4   12   15      2.52      0.00
   -5   12   15      0.57      0.00
   -6   12   15      7.76      0.00
    7   13   15     -1.72      0.00
    6   13   15     -4.08      0.00
    5   13   15     -0.73      0.00
    4   13   15    -11.84      0.00
    3   13   15    -12.90      0.00
    2   13   15    -11.45      0.00
    1   13   15     -4.97      0.00
    0   13   15     -0.14      0.00
   -1   13   15      1.61      0.00
   -2   13   15    -10.02      0.00
   -3   13   15     -4.79      0.00
   -4   13   15      0.32      0.00
   -5   13   15      2.16      0.00
   -6   13   15     -2.04      0.00
    6   14   15     -4.82      0.00
    5   14   15     -5.57      0.00
    4   14   15     -1.97      0.00
    3   14   15      0.14      0.00
    2   14   15     -8.85      0.00
    1   14   15     -5.21      0.00
    0   14   15     -0.02      0.00
   -1   14   15     -9.70      0.00
   -2   14   15     -6.10      0.00
   -3   14   15     -0.88      0.00
   -4   14   15     -5.26      0.00
   -5   14   15     -0.36      0.00
   -6   14   15      0.50      0.00
   -7   14   15     -5.57      0.00
    5   15   15     -2.43      0.00
    4   15   15      5.46      0.00
    3   15   15      3.29      0.00
    2   15   15      3.74      0.00
    1   15   15     -0.13      0.00
    0   15   15      1.15      0.00
   -1   15   15     -4.46      0.00
   -2   15   15    -11.71      0.00
   -3   15   15     -2.17      0.00
   -4   15   15      0.46      0.00
   -5   15   15      0.57      0.00
   -6   15   15      5.54      0.00
   -7   15   15     -1.89      0.00
    3   16   15      2.83      0.00
    2   16   15      3.20      0.00
    1   16   15      2.28      0.00
    0   16   15      4.23      0.00
   -1   16   15     -2.85      0.00
   -2   16   15     -4.33      0.00
   -3   16   15    -12.43      0.00
   -4   16   15     -1.79      0.00
   -5   16   15      4.24      0.00
   -6   16   15      0.01      0.00
   -7   16   15     -7.17      0.00
   -8   16   15     -4.82      0.00
    1   17   15      2.41      0.00
    0   17   15      2.23      0.00
   -1   17   15     -2.20      0.00
   -2   17   15     -3.14      0.00
   -3   17   15     -5.95      0.00
   -4   17   15    -15.15      0.00
   -5   17   15     -0.54      0.00
   -6   17   15      3.65      0.00
   -7   17   15     -6.49      0.00
   -8   17   15    -10.09      0.00
    0   18   15     -4.81      0.00
   -1   18   15      0.81      0.00
   -2   18   15      0.41      0.00
   -3   18   15     -5.70      0.00
   -4   18   15     -7.96      0.00
   -5   18   15     -0.84      0.00
   -6   18   15      1.99      0.00
   -7   18   15     -4.97      0.00
   -8   18   15     -6.47      0.00
   -9   18   15     -1.45      0.00
   -3   19   15      0.37      0.00
   -4   19   15     -0.71      0.00
   -5   19   15     -1.87      0.00
   -6   19   15      3.73      0.00
   -7   19   15      3.36      0.00
   -8   19   15     -3.65      0.00
   -9   19   15     -4.49      0.00
   -5   20   15     -1.55      0.00
   -6   20   15     -0.58      0.00
   -7   20   15     -7.57      0.00
   -8   20   15     -7.07      0.00
   -9   20   15     -4.84      0.00
  -10   20   15     -9.10      0.00
    0    0   16      9.07      0.00
    0    1   16     -0.98      0.00
    1    1   16     -1.43      0.00
    1    2   16      2.06      0.00
    0    2   16      2.45      0.00
   -1    2   16      5.38      0.00
    2    2   16    -11.51      0.00
    2    3   16     -3.16      0.00
    1    3   16      0.31      0.00
    0    3   16     -0.65      0.00
   -1    3   16     -1.52      0.00
    3    3   16      6.24      0.00
    3    4   16     -3.01      0.00
    2    4   16      3.23      0.00
    1    4   16     -5.19      0.00
    0    4   16     -7.72      0.00
   -1    4   16     -0.64      0.00
   -2    4   16     -5.50      0.00
    4    4   16     -6.89      0.00
    4    5   16     -2.70      0.00
    3    5   16     -7.66      0.00
    2    5   16     -1.62      0.00
    1    5   16      1.78      0.00
    0    5   16     -2.69      0.00
   -1    5   16     -1.06      0.00
   -2    5   16      1.94      0.00
    5    5   16     -6.06      0.00
    5    6   16     -7.17      0.00
    4    6   16     -4.64      0.00
    3    6   16      2.38      0.00
    2    6   16     -3.26      0.00
    1    6   16     -3.99      0.00
    0    6   16      2.91      0.00
   -1    6   16     -1.32      0.00
   -2    6   16     -3.03      0.00
   -3    6   16      8.30      0.00
    6    6   16      1.16      0.00
    6    7   16     -3.90      0.00
    5    7   16      0.48      0.00
    4    7   16     -5.21      0.00
    3    7   16      1.80      0.00
    2    7   16     -0.17      0.00
    1    7   16     -0.78      0.00
    0    7   16      4.69      0.00
   -1    7   16      0.56      0.00
   -2    7   16     -4.23      0.00
   -3    7   16      0.63      0.00
    7    7   16     -4.55      0.00
    7    8   16      5.62      0.00
    6    8   16     -4.31      0.00
    5    8   16     -2.47      0.00
    4    8   16      2.91      0.00
    3    8   16      1.26      0.00
    2    8   16      3.47      0.00
    1    8   16      2.30      0.00
    0    8   16      2.83      0.00
   -1    8   16     -0.78      0.00
   -2    8   16     -4.03      0.00
   -3    8   16     -1.86      0.00
   -4    8   16      4.50      0.00
    8    8   16      2.43      0.00
    8    9   16      4.91      0.00
    7    9   16      4.78      0.00
    6    9   16      0.24      0.00
    5    9   16     -2.60      0.00
    4    9   16      1.85      0.00
    3    9   16      4.02      0.00
    2    9   16     -6.49      0.00
    1    9   16      0.90      0.00
    0    9   16      1.75      0.00
   -1    9   16      1.81      0.00
   -2    9   16      2.05      0.00
   -3    9   16      1.64      0.00
   -4    9   16     -3.79      0.00
    9    9   16     -2.70      0.00
    9   10   16     -7.53      0.00
    8   10   16      0.80      0.00
    7   10   16     -1.87      0.00
    6   10   16     -1.72      0.00
    5   10   16      2.25      0.00
    4   10   16     -2.83      0.00
    3   10   16      3.72      0.00
    2   10   16     -2.91      0.00
    1   10   16     -7.59      0.00
    0   10   16     -0.69      0.00
   -1   10   16     -0.51      0.00
   -2   10   16      0.91      0.00
   -3   10   16      1.30      0.00
   -4   10   16      0.54      0.00
   -5   10   16     -5.38      0.00
    8   11   16     -8.03      0.00
    7   11   16     -0.71      0.00
    6   11   16      1.96      0.00
    5   11   16      5.32      0.00
    4   11   16      5.62      0.00
    3   11   16      1.33      0.00
    2   11   16      3.15      0.00
    1   11   16      0.92      0.00
    0   11   16     -1.94      0.00
   -1   11   16     -2.01      0.00
   -2   11   16     -7.91      0.00
   -3   11   16      2.13      0.00
   -4   11   16     -0.27      0.00
   -5   11   16      0.00      0.00
    7   12   16     -1.99      0.00
    6   12   16      5.86      0.00
    5   12   16      4.65      0.00
    4   12   16      3.34      0.00
    3   12   16      1.28      0.00
    2   12   16      1.88      0.00
    1   12   16     -0.36      0.00
    0   12   16      7.56      0.00
   -1   12   16     -6.79      0.00
   -2   12   16    -13.69      0.00
   -3   12   16      0.45      0.00
   -4   12   16      1.43      0.00
   -5   12   16      2.82      0.00
   -6   12   16      8.33      0.00
    6   13   16     -2.64      0.00
    5   13   16     -3.89      0.00
    4   13   16     -3.84      0.00
    3   13   16     -1.77      0.00
    2   13   16      0.08      0.00
    1   13   16     -2.05      0.00
    0   13   16     -1.22      0.00
   -1   13   16     -1.61      0.00
   -2   13   16     -7.09      0.00
   -3   13   16     -7.37      0.00
   -4   13   16     -3.72      0.00
   -5   13   16     -5.47      0.00
   -6   13   16      2.25      0.00
    4   14   16     -4.02      0.00
    3   14   16     -5.06      0.00
    2   14   16     -0.87      0.00
    1   14   16     -3.18      0.00
    0   14   16      2.35      0.00
   -1   14   16      5.11      0.00
   -2   14   16      2.01      0.00
   -3   14   16     -0.68      0.00
   -4   14   16     -1.81      0.00
   -5   14   16     -4.40      0.00
   -6   14   16     -1.05      0.00
   -7   14   16     -1.76      0.00
    3   15   16      4.87      0.00
    2   15   16     -5.06      0.00
    1   15   16     -2.61      0.00
    0   15   16     -0.44      0.00
   -1   15   16      4.21      0.00
   -2   15   16      0.18      0.00
   -3   15   16      7.30      0.00
   -4   15   16      4.98      0.00
   -5   15   16     -2.36      0.00
   -6   15   16      0.25      0.00
   -7   15   16     -0.83      0.00
    1   16   16     -2.35      0.00
    0   16   16     -3.86      0.00
   -1   16   16      3.05      0.00
   -2   16   16      0.65      0.00
   -3   16   16      2.78      0.00
   -4   16   16      4.16      0.00
   -5   16   16     -2.15      0.00
   -6   16   16      2.78      0.00
   -7   16   16      3.27      0.00
   -8   16   16     -4.44      0.00
   -1   17   16     -1.73      0.00
   -2   17   16     -0.51      0.00
   -3   17   16     -2.17      0.00
   -4   17   16     -2.59      0.00
   -5   17   16     -0.65      0.00
   -6   17   16      0.33      0.00
   -7   17   16     -1.59      0.00
   -8   17   16      4.00      0.00
   -3   18   16      0.99      0.00
   -4   18   16     -7.41      0.00
   -5   18   16     -3.76      0.00
   -6   18   16      6.16      0.00
   -7   18   16      0.20      0.00
   -8   18   16      1.09      0.00
   -9   18   16      1.63      0.00
   -6   19   16      0.14      0.00
   -7   19   16     -2.24      0.00
   -8   19   16     -4.49      0.00
   -9   19   16      2.47      0.00
    0    0   17     -0.28      0.00
    0    1   17      2.50      0.00
    1    1   17      2.33      0.00
    1    2   17      4.21      0.00
    0    2   17      1.06      0.00
   -1    2   17      2.91      0.00
    2    2   17      4.91      0.00
    2    3   17     -0.97      0.00
    1    3   17      2.06      0.00
    0    3   17      4.25      0.00
   -1    3   17      1.17      0.00
    3    3   17      1.06      0.00
    3    4   17      0.97      0.00
    2    4   17     -0.08      0.00
    1    4   17     -1.49      0.00
    0    4   17      2.48      0.00
   -1    4   17     -0.17      0.00
   -2    4   17     -5.66      0.00
    4    4   17     -0.77      0.00
    4    5   17     -0.91      0.00
    3    5   17     -1.79      0.00
    2    5   17     -4.15      0.00
    1    5   17     -1.65      0.00
    0    5   17     -0.43      0.00
   -1    5   17      4.54      0.00
   -2    5   17      2.30      0.00
    5    5   17      5.15      0.00
    5    6   17     -2.53      0.00
    4    6   17      0.78      0.00
    3    6   17     -5.14      0.00
    2    6   17     -5.72      0.00
    1    6   17     -0.59      0.00
    0    6   17     -2.16      0.00
   -1    6   17     -0.31      0.00
   -2    6   17     -0.06      0.00
   -3    6   17     -6.56      0.00
    6    6   17      1.91      0.00
    6    7   17     -0.04      0.00
    5    7   17     -0.60      0.00
    4    7   17     -1.72      0.00
    3    7   17      3.91      0.00
    2    7   17     -7.85      0.00
    1    7   17     -8.53      0.00
    0    7   17      0.40      0.00
   -1    7   17      4.37      0.00
   -2    7   17     -4.42      0.00
   -3    7   17     -4.55      0.00
    7    7   17      2.26      0.00
    7    8   17      2.34      0.00
    6    8   17     -4.56      0.00
    5    8   17     -0.96      0.00
    4    8   17      4.75      0.00
    3    8   17      1.16      0.00
    2    8   17     -1.55      0.00
    1    8   17     -8.56      0.00
    0    8   17     -5.28      0.00
   -1    8   17      3.60      0.00
   -2    8   17     -2.19      0.00
   -3    8   17     -3.55      0.00
   -4    8   17      2.42      0.00
    8    8   17      7.19      0.00
    8    9   17      3.05      0.00
    7    9   17      1.70      0.00
    6    9   17     -2.15      0.00
    5    9   17     -6.11      0.00
    4    9   17      3.67      0.00
    3    9   17      2.05      0.00
    2    9   17     -3.91      0.00
    1    9   17     -6.52      0.00
    0    9   17     -4.22      0.00
   -1    9   17      0.82      0.00
   -2    9   17      0.84      0.00
   -3    9   17     -0.61      0.00
   -4    9   17      3.36      0.00
    9    9   17      6.99      0.00
    8   10   17      3.21      0.00
    7   10   17      5.33      0.00
    6   10   17      0.73      0.00
    5   10   17      0.43      0.00
    4   10   17     -3.79      0.00
    3   10   17      0.73      0.00
    2   10   17     -2.36      0.00
    1   10   17     -2.96      0.00
    0   10   17      0.79      0.00
   -1   10   17     -7.27      0.00
   -2   10   17     -0.47      0.00
   -3   10   17      4.49      0.00
   -4   10   17      1.53      0.00
   -5   10   17      1.72      0.00
    7   11   17      5.72      0.00
    6   11   17      3.02      0.00
    5   11   17      2.90      0.00
    4   11   17     -3.65      0.00
    3   11   17     -6.00      0.00
    2   11   17      4.44      0.00
    1   11   17      1.65      0.00
    0   11   17     -1.31      0.00
   -1   11   17     -2.13      0.00
   -2   11   17     -7.46      0.00
   -3   11   17      0.51      0.00
   -4   11   17      2.50      0.00
   -5   11   17     -1.06      0.00
    5   12   17      2.36      0.00
    4   12   17      0.19      0.00
    3   12   17     -2.17      0.00
    2   12   17     -0.21      0.00
    1   12   17      0.86      0.00
    0   12   17     -5.19      0.00
   -1   12   17     -2.11      0.00
   -2   12   17     -5.78      0.00
   -3   12   17     -4.74      0.00
   -4   12   17      3.53      0.00
   -5   12   17      1.08      0.00
   -6   12   17      5.07      0.00
    4   13   17     -9.36      0.00
    3   13   17     -3.73      0.00
    2   13   17     -1.77      0.00
    1   13   17      0.03      0.00
    0   13   17      2.77      0.00
   -1   13   17      5.96      0.00
   -2   13   17     -2.92      0.00
   -3   13   17      0.56      0.00
   -4   13   17      3.47      0.00
   -5   13   17      0.46      0.00
   -6   13   17      2.59      0.00
    3   14   17     -4.87      0.00
    2   14   17     -0.12      0.00
    1   14   17     -1.84      0.00
    0   14   17     -1.82      0.00
   -1   14   17      5.83      0.00
   -2   14   17      3.88      0.00
   -3   14   17      4.62      0.00
   -4   14   17      6.65      0.00
   -5   14   17     -1.22      0.00
   -6   14   17      1.37      0.00
   -7   14   17      4.97      0.00
    1   15   17     -7.28      0.00
    0   15   17     -3.38      0.00
   -1   15   17     -3.05      0.00
   -2   15   17     -3.50      0.00
   -3   15   17     -0.95      0.00
   -4   15   17      0.49      0.00
   -5   15   17     -1.70      0.00
   -6   15   17      2.42      0.00
   -7   15   17      3.95      0.00
   -1   16   17     -4.34      0.00
   -2   16   17     -0.79      0.00
   -3   16   17     -6.81      0.00
   -4   16   17     -4.45      0.00
   -5   16   17     -4.43      0.00
   -6   16   17      1.46      0.00
   -7   16   17      2.68      0.00
   -8   16   17      5.61      0.00
   -3   17   17     -4.18      0.00
   -4   17   17     -5.21      0.00
   -5   17   17     -4.95      0.00
   -6   17   17     -5.40      0.00
   -7   17   17      2.33      0.00
   -8   17   17     -2.85      0.00
   -7   18   17     -3.10      0.00
   -8   18   17     -3.06      0.00
   -9   18   17      0.54      0.00
    0    0   18      2.85      0.00
    0    1   18      3.08      0.00
    1    1   18     -2.36      0.00
    1    2   18     -1.39      0.00
    0    2   18      2.88      0.00
   -1    2   18      0.18      0.00
    2    2   18     -5.86      0.00
    2    3   18      0.84      0.00
    1    3   18     -0.72      0.00
    0    3   18     -1.95      0.00
   -1    3   18      2.84      0.00
    3    3   18      2.22      0.00
    3    4   18      4.18      0.00
    2    4   18     -1.72      0.00
    1    4   18     -1.81      0.00
    0    4   18     -4.55      0.00
   -1    4   18     -4.00      0.00
   -2    4   18      4.46      0.00
    4    4   18      1.29      0.00
    4    5   18     -3.21      0.00
    3    5   18      5.41      0.00
    2    5   18     -0.54      0.00
    1    5   18     -4.91      0.00
    0    5   18     -6.52      0.00
   -1    5   18      0.35      0.00
   -2    5   18      4.69      0.00
    5    5   18     -8.15      0.00
    5    6   18      1.48      0.00
    4    6   18     -1.22      0.00
    3    6   18     -2.58      0.00
    2    6   18      0.81      0.00
    1    6   18     -2.08      0.00
    0    6   18     -0.66      0.00
   -1    6   18      1.70      0.00
   -2    6   18      1.19      0.00
   -3    6   18     -0.09      0.00
    6    6   18      4.58      0.00
    6    7   18      8.48      0.00
    5    7   18      1.02      0.00
    4    7   18      2.73      0.00
    3    7   18     -0.41      0.00
    2    7   18     -2.72      0.00
    1    7   18      3.74      0.00
    0    7   18     -0.20      0.00
   -1    7   18      0.87      0.00
   -2    7   18      2.04      0.00
   -3    7   18      2.64      0.00
    7    7   18     10.52      0.00
    7    8   18      7.56      0.00
    6    8   18      1.84      0.00
    5    8   18      0.17      0.00
    4    8   18      0.74      0.00
    3    8   18      3.48      0.00
    2    8   18     -0.06      0.00
    1    8   18     -3.76      0.00
    0    8   18      3.57      0.00
   -1    8   18      2.16      0.00
   -2    8   18      2.62      0.00
   -3    8   18      3.07      0.00
   -4    8   18      2.50      0.00
    8    8   18      0.02      0.00
    7    9   18      2.64      0.00
    6    9   18      0.76      0.00
    5    9   18      0.65      0.00
    4    9   18      3.51      0.00
    3    9   18      2.50      0.00
    2    9   18     -3.81      0.00
    1    9   18      2.44      0.00
    0    9   18     -5.13      0.00
   -1    9   18      2.43      0.00
   -2    9   18      5.72      0.00
   -3    9   18      1.48      0.00
   -4    9   18      5.72      0.00
    6   10   18     -3.51      0.00
    5   10   18     -4.42      0.00
    4   10   18      1.19      0.00
    3   10   18      3.97      0.00
    2   10   18      2.30      0.00
    1   10   18     -1.79      0.00
    0   10   18      1.58      0.00
   -1   10   18      0.92      0.00
   -2   10   18      4.48      0.00
   -3   10   18      2.75      0.00
   -4   10   18      2.91      0.00
   -5   10   18      1.56      0.00
    5   11   18     -6.93      0.00
    4   11   18    -10.38      0.00
    3   11   18     -6.16      0.00
    2   11   18      1.22      0.00
    1   11   18      0.65      0.00
    0   11   18      5.64      0.00
   -1   11   18     -0.40      0.00
   -2   11   18     -1.89      0.00
   -3   11   18      2.39      0.00
   -4   11   18     -0.64      0.00
   -5   11   18      4.02      0.00
    4   12   18    -10.10      0.00
    3   12   18    -11.61      0.00
    2   12   18     -0.39      0.00
    1   12   18      3.17      0.00
    0   12   18     -0.68      0.00
   -1   12   18      4.26      0.00
   -2   12   18      0.73      0.00
   -3   12   18      0.12      0.00
   -4   12   18      2.37      0.00
   -5   12   18     -2.92      0.00
   -6   12   18     -1.77      0.00
    2   13   18      4.33      0.00
    1   13   18      3.89      0.00
    0   13   18      1.39      0.00
   -1   13   18      4.41      0.00
   -2   13   18     12.05      0.00
   -3   13   18      9.36      0.00
   -4   13   18      0.61      0.00
   -5   13   18     -2.31      0.00
   -6   13   18     -3.06      0.00
    0   14   18      0.71      0.00
   -1   14   18     -0.36      0.00
   -2   14   18      5.82      0.00
   -3   14   18      8.59      0.00
   -4   14   18      6.96      0.00
   -5   14   18     -1.18      0.00
   -6   14   18     -2.55      0.00
   -7   14   18     -4.20      0.00
   -2   15   18     -5.32      0.00
   -3   15   18     -6.37      0.00
   -4   15   18      2.94      0.00
   -5   15   18      1.53      0.00
   -6   15   18      1.56      0.00
   -7   15   18      2.57      0.00
   -4   16   18     -5.51      0.00
   -5   16   18     -3.49      0.00
   -6   16   18      0.60      0.00
   -7   16   18      3.10      0.00
   -8   16   18      0.13      0.00
    0    0   19      6.99      0.00
    0    1   19     -2.56      0.00
    1    1   19      2.97      0.00
    1    2   19      1.25      0.00
    0    2   19      3.10      0.00
   -1    2   19     -3.23      0.00
    2    2   19      1.60      0.00
    2    3   19      4.09      0.00
    1    3   19      2.70      0.00
    0    3   19      2.77      0.00
   -1    3   19     -0.19      0.00
    3    3   19      1.62      0.00
    3    4   19     -9.56      0.00
    2    4   19     -4.64      0.00
    1    4   19     -0.38      0.00
    0    4   19     -2.09      0.00
   -1    4   19     -4.43      0.00
   -2    4   19     -6.38      0.00
    4    4   19     -0.02      0.00
    4    5   19     -3.13      0.00
    3    5   19     -0.30      0.00
    2    5   19     -7.11      0.00
    1    5   19      0.02      0.00
    0    5   19      1.38      0.00
   -1    5   19     -7.75      0.00
   -2    5   19     -0.64      0.00
    5    5   19      0.36      0.00
    5    6   19      4.97      0.00
    4    6   19     -0.81      0.00
    3    6   19      3.72      0.00
    2    6   19      2.91      0.00
    1    6   19     -0.64      0.00
    0    6   19     -0.41      0.00
   -1    6   19     -2.53      0.00
   -2    6   19     -3.13      0.00
   -3    6   19     -1.89      0.00
    6    6   19     11.64      0.00
    6    7   19      7.38      0.00
    5    7   19      2.25      0.00
    4    7   19     -0.38      0.00
    3    7   19      1.41      0.00
    2    7   19      0.49      0.00
    1    7   19     -2.85      0.00
    0    7   19      1.60      0.00
   -1    7   19      2.16      0.00
   -2    7   19     -3.98      0.00
   -3    7   19     -6.79      0.00
    7    7   19      9.25      0.00
    6    8   19      2.25      0.00
    5    8   19     -5.00      0.00
    4    8   19     -3.81      0.00
    3    8   19      0.39      0.00
    2    8   19     -3.47      0.00
    1    8   19     -0.82      0.00
    0    8   19     -3.05      0.00
   -1    8   19     -3.46      0.00
   -2    8   19      3.55      0.00
   -3    8   19     -2.27      0.00
   -4    8   19     -1.54      0.00
    5    9   19      1.37      0.00
    4    9   19     -1.12      0.00
    3    9   19     -2.57      0.00
    2    9   19     -3.91      0.00
    1    9   19     -8.98      0.00
    0    9   19     -3.12      0.00
   -1    9   19     -4.12      0.00
   -2    9   19     -0.89      0.00
   -3    9   19      2.53      0.00
   -4    9   19      0.16      0.00
    4   10   19      1.14      0.00
    3   10   19     -1.49      0.00
    2   10   19     -4.24      0.00
    1   10   19     -1.07      0.00
    0   10   19     -5.93      0.00
   -1   10   19     -9.38      0.00
   -2   10   19     -1.16      0.00
   -3   10   19      4.86      0.00
   -4   10   19      4.21      0.00
   -5   10   19      4.08      0.00
    3   11   19     -4.04      0.00
    2   11   19     -3.48      0.00
    1   11   19     -3.85      0.00
    0   11   19     -2.96      0.00
   -1   11   19     -1.91      0.00
   -2   11   19     -3.16      0.00
   -3   11   19      6.85      0.00
   -4   11   19      2.54      0.00
   -5   11   19      3.44      0.00
    1   12   19     -3.11      0.00
    0   12   19     -1.97      0.00
   -1   12   19      0.03      0.00
   -2   12   19      0.52      0.00
   -3   12   19      1.28      0.00
   -4   12   19     -1.44      0.00
   -5   12   19     -3.37      0.00
   -6   12   19      2.72      0.00
   -1   13   19      6.91      0.00
   -2   13   19      9.95      0.00
   -3   13   19      5.20      0.00
   -4   13   19      4.90      0.00
   -5   13   19     -4.90      0.00
   -6   13   19     -4.07      0.00
   -3   14   19     12.54      0.00
   -4   14   19      2.11      0.00
   -5   14   19     -2.67      0.00
   -6   14   19      1.79      0.00
   -7   14   19     -0.92      0.00
    0    0   20      2.64      0.00
    0    1   20     -0.49      0.00
    1    1   20      1.67      0.00
    1    2   20      3.73      0.00
    0    2   20      5.61      0.00
   -1    2   20      0.05      0.00
    2    2   20     -1.59      0.00
    2    3   20     -1.96      0.00
    1    3   20     -0.04      0.00
    0    3   20      5.22      0.00
   -1    3   20     -3.27      0.00
    3    3   20     -6.07      0.00
    3    4   20     -7.86      0.00
    2    4   20     -5.60      0.00
    1    4   20     -5.92      0.00
    0    4   20     -3.86      0.00
   -1    4   20     -6.06      0.00
   -2    4   20     -5.20      0.00
    4    4   20    -11.08      0.00
    4    5   20     -3.49      0.00
    3    5   20     -1.95      0.00
    2    5   20     -3.93      0.00
    1    5   20     -4.48      0.00
    0    5   20      0.45      0.00
   -1    5   20     -1.15      0.00
   -2    5   20     -1.98      0.00
    5    5   20     -6.69      0.00
    5    6   20      1.48      0.00
    4    6   20     -6.20      0.00
    3    6   20      1.25      0.00
    2    6   20      0.03      0.00
    1    6   20      0.59      0.00
    0    6   20      8.35      0.00
   -1    6   20     -1.11      0.00
   -2    6   20     -0.26      0.00
   -3    6   20      0.87      0.00
    6    6   20      4.31      0.00
    5    7   20      0.45      0.00
    4    7   20     -5.08      0.00
    3    7   20     -2.71      0.00
    2    7   20      1.87      0.00
    1    7   20      4.57      0.00
    0    7   20      4.42      0.00
   -1    7   20      6.48      0.00
   -2    7   20     -0.94      0.00
   -3    7   20     -2.92      0.00
    4    8   20     -4.26      0.00
    3    8   20     -5.40      0.00
    2    8   20      0.50      0.00
    1    8   20      3.15      0.00
    0    8   20      1.92      0.00
   -1    8   20      9.31      0.00
   -2    8   20     -0.19      0.00
   -3    8   20     -4.23      0.00
   -4    8   20     -0.90      0.00
    3    9   20     -0.11      0.00
    2    9   20     -2.63      0.00
    1    9   20     -3.46      0.00
    0    9   20     -4.07      0.00
   -1    9   20     -5.55      0.00
   -2    9   20     -1.22      0.00
   -3    9   20     -0.80      0.00
   -4    9   20     -8.92      0.00
    1   10   20     -7.64      0.00
    0   10   20     -1.17      0.00
   -1   10   20     -1.37      0.00
   -2   10   20     -2.30      0.00
   -3   10   20     -1.57      0.00
   -4   10   20     -1.13      0.00
   -5   10   20     -3.25      0.00
   -1   11   20     -1.63      0.00
   -2   11   20      1.63      0.00
   -3   11   20      2.87      0.00
   -4   11   20      6.83      0.00
   -5   11   20      4.54      0.00
   -3   12   20      6.35      0.00
   -4   12   20      4.80      0.00
   -5   12   20      0.22      0.00
   -6   12   20      2.61      0.00
    0    0   21     -3.39      0.00
    0    1   21     -2.88      0.00
    1    1   21     -0.75      0.00
    1    2   21      0.04      0.00
    0    2   21      2.89      0.00
   -1    2   21     -0.81      0.00
    2    2   21      1.81      0.00
    2    3   21      0.39      0.00
    1    3   21     -4.06      0.00
    0    3   21      0.41      0.00
   -1    3   21     -0.20      0.00
    3    3   21      2.41      0.00
    3    4   21     -2.22      0.00
    2    4   21     -4.14      0.00
    1    4   21     -1.81      0.00
    0    4   21     -1.68      0.00
   -1    4   21     -4.31      0.00
   -2    4   21     -2.99      0.00
    4    4   21     -1.71      0.00
    4    5   21     -6.77      0.00
    3    5   21     -1.73      0.00
    2    5   21      1.59      0.00
    1    5   21     -1.93      0.00
    0    5   21     -4.29      0.00
   -1    5   21     -0.29      0.00
   -2    5   21      0.36      0.00
    3    6   21     -0.99      0.00
    2    6   21      2.75      0.00
    1    6   21      2.47      0.00
    0    6   21     -2.52      0.00
   -1    6   21     -1.63      0.00
   -2    6   21     -1.06      0.00
   -3    6   21      3.27      0.00
    2    7   21      7.43      0.00
    1    7   21      0.77      0.00
    0    7   21      5.00      0.00
   -1    7   21      0.11      0.00
   -2    7   21     -2.15      0.00
   -3    7   21      2.80      0.00
    0    8   21      1.95      0.00
   -1    8   21      1.22      0.00
   -2    8   21      2.75      0.00
   -3    8   21      0.65      0.00
   -4    8   21      5.90      0.00
   -2    9   21     -1.05      0.00
   -3    9   21     -9.99      0.00
   -4    9   21      2.43      0.00
    0    0   22     -3.07      0.00
    0    1   22     -0.62      0.00
    1    1   22      0.53      0.00
    1    2   22      0.46      0.00
    0    2   22      3.59      0.00
   -1    2   22      2.34      0.00
    2    2   22     -5.15      0.00
    2    3   22     -0.67      0.00
    1    3   22     -1.47      0.00
    0    3   22      3.09      0.00
   -1    3   22      1.98      0.00
    1    4   22     -1.47      0.00
    0    4   22      3.42      0.00
   -1    4   22      3.23      0.00
   -2    4   22      1.00      0.00
   -1    5   22      0.56      0.00
   -2    5   22      1.00      0.00
    0    0    0      0.00      0.00
# SQUEEZE RESULTS
# Note: Data are Listed for all Voids in the P1 Unit Cell
# i.e. Centre of Gravity, Solvent Accessible Volume,
# Recovered number of Electrons in the Void and
# Details about the Squeezed Material
loop_
  _platon_squeeze_void_nr
  _platon_squeeze_void_average_x
  _platon_squeeze_void_average_y
  _platon_squeeze_void_average_z
  _platon_squeeze_void_volume
  _platon_squeeze_void_count_electrons
  _platon_squeeze_void_content
   1  0.000  0.000 -0.007      2501      1149 ' '
   2  0.333  0.667  0.500       459       105 ' '
   3  0.667  0.333  0.500       459       105 ' '
_platon_squeeze_details
(replace by semicolon in column 1 when used as .sqf)
TITL dm in P-31m
CELL   21.0227   21.0227   16.8234     90.00     90.00    120.00
SPGR P-31m
# Solvent Accessible Volume =    3432.2
# Electrons Found in S.A.V. =    1356.9
# Note: Atoms in Void as Cxxx and Qxxx all others
Q101 1.000 0.498 0.109 !       5.57 eA-3
Q102 0.999 0.143 0.500 !       4.70 eA-3
Q103 0.471 0.999 0.405 !       4.66 eA-3
Q104 0.689 0.110 0.356 !       4.48 eA-3
C105 0.657 0.660 0.188 !       4.30 eA-3
C106 0.657 0.995 0.813 !       4.30 eA-3
Q107 0.528 0.533 0.590 !       3.93 eA-3
Q108 0.355 0.060 0.313 !       3.93 eA-3
Q109 0.827 0.562 0.694 !       3.88 eA-3
Q110 0.324 1.006 0.252 !       3.75 eA-3
Q111 0.529 0.716 0.250 !       3.56 eA-3
C112 1.000 1.001 0.906 !       3.47 eA-3
Q113 0.408 0.813-0.007 !       3.35 eA-3
Q114 0.662 0.316 0.032 !       3.08 eA-3
Q115 0.374 0.750 0.013 !       3.05 eA-3
Q116 0.763 0.376 0.999 !       3.05 eA-3
Q117 0.738 0.562 0.691 !       3.05 eA-3
Q118 0.265 0.420 0.201 !       2.99 eA-3
Q119 0.282 0.466 0.257 !       2.97 eA-3
Q120 0.735 0.576 0.209 !       2.96 eA-3
C121 1.000 0.998 0.984 !       2.81 eA-3
Q122 0.136 0.766 0.262 !       2.65 eA-3
Q123 0.896 0.467 0.009 !       2.29 eA-3
Q124 0.129 0.751 0.738 !       2.27 eA-3
Q125 1.001 0.228 0.435 !       2.25 eA-3
Q126 0.769 1.010 0.422 !       2.19 eA-3
Q127 1.000 0.224 0.575 !       2.18 eA-3
Q128 0.642 0.825 0.699 !       2.14 eA-3
Q129 0.671 0.438 0.116 !       2.12 eA-3
Q130 0.444 0.672 0.108 !       2.12 eA-3
Q131 0.771 0.329 0.886 !       2.05 eA-3
C132 0.027 1.002 0.721 !       2.02 eA-3
Q133 0.319 0.999 0.833 !       2.02 eA-3
Q134 0.517 0.208 0.067 !       1.97 eA-3
Q135 0.381 0.467 0.366 !       1.96 eA-3
C136 0.805 0.906 0.495 !       1.95 eA-3
Q137 0.246 0.750 0.801 !       1.92 eA-3
Q138 0.252 1.004 0.812 !       1.90 eA-3
Q139 0.219 0.412 0.658 !       1.88 eA-3
Q140 0.484 0.677 0.941 !       1.86 eA-3
C141 0.027 0.029 0.871 !       1.85 eA-3
Q142 0.215 0.818 0.657 !       1.84 eA-3
Q143 0.312 0.419 0.642 !       1.82 eA-3
C144 0.025 0.316 0.970 !       1.79 eA-3
Q145 0.487 0.745 0.136 !       1.74 eA-3
C146 0.029 0.143 0.685 !       1.73 eA-3
C147 0.937 0.876 0.688 !       1.72 eA-3
C148 0.061 0.937 0.691 !       1.71 eA-3
Q149 0.565 0.119 0.578 !       1.69 eA-3
C150 0.100 0.999 0.684 !       1.68 eA-3
C151 0.948 1.000 0.830 !       1.68 eA-3
C152 0.912 0.950 0.806 !       1.68 eA-3
Q153 0.195 0.533 0.903 !       1.68 eA-3
C154 0.890 0.999 0.359 !       1.68 eA-3
C155 0.153 0.996 0.659 !       1.65 eA-3
C156 0.045 0.075 0.644 !       1.65 eA-3
C157 0.999 0.994 0.436 !       1.65 eA-3
C158 0.154 0.593 0.496 !       1.63 eA-3
C159 0.045 0.045 0.076 !       1.63 eA-3
Q160 0.973 0.484 0.832 !       1.60 eA-3
C161 0.124 0.875 0.001 !       1.60 eA-3
C162 0.053 0.995 0.975 !       1.60 eA-3
C163 0.051 0.923 0.276 !       1.60 eA-3
Q164 0.657 1.004 0.266 !       1.59 eA-3
C165 0.690 0.687 0.002 !       1.59 eA-3
Q166 0.484 0.764 0.906 !       1.58 eA-3
C167 0.143 0.027 0.310 !       1.55 eA-3
Q168 0.544 0.783 0.824 !       1.55 eA-3
C169 1.003 0.957 0.339 !       1.55 eA-3
C170 0.047 0.046 0.141 !       1.55 eA-3
Q171 0.569 0.625 0.327 !       1.53 eA-3
Q172 0.673 0.950 0.495 !       1.53 eA-3
C173 0.049 1.001 0.249 !       1.52 eA-3
C174 0.896 1.002 0.606 !       1.52 eA-3
C175 0.972 0.954 0.073 !       1.51 eA-3
C176 0.282 0.014-0.004 !       1.51 eA-3
C177 0.999 0.812 0.064 !       1.49 eA-3
Q178 0.514 0.027 0.246 !       1.48 eA-3
Q179 0.289 0.763 0.908 !       1.48 eA-3
C180 0.031 1.003 0.547 !       1.46 eA-3
C181 1.002 1.008 0.159 !       1.45 eA-3
C182 0.743 0.266 0.492 !       1.45 eA-3
C183 0.954 0.060 0.407 !       1.44 eA-3
C184 0.656 1.000 0.033 !       1.44 eA-3
Q185 0.062 0.371 0.688 !       1.44 eA-3
C186 0.897 0.971 0.256 !       1.44 eA-3
C187 0.937 0.049 0.594 !       1.44 eA-3
C188 0.765 0.859 0.874 !       1.44 eA-3
C189 0.995 0.910 0.163 !       1.43 eA-3
C190 0.090 0.013 0.769 !       1.42 eA-3
C191 0.950 0.187 0.876 !       1.40 eA-3
Q192 0.343 0.342 0.437 !       1.39 eA-3
C193 0.052 0.968 0.699 !       1.39 eA-3
C194 0.219 0.220 0.782 !       1.37 eA-3
Q195 0.705 0.702 0.548 !       1.37 eA-3
C196 1.004 0.145 0.740 !       1.36 eA-3
C197 0.009 0.069 0.793 !       1.35 eA-3
Q198 0.311 0.981 0.567 !       1.34 eA-3
Q199 0.982 0.701 0.484 !       1.34 eA-3
(replace by semicolon in column 1 when used as .sqf)
;
_shelx_fab_checksum              15277
loop_
_space_group_symop_operation_xyz
'x, y, z'
'-y, x-y, z'
'-x+y, -x, z'
'-y, -x, -z'
'x, x-y, -z'
'-x+y, y, -z'
'-x, -y, -z'
'y, -x+y, -z'
'x-y, x, -z'
'y, x, z'
'-x, -x+y, z'
'x-y, -y, z'
loop_
_atom_site_label
_atom_site_type_symbol
_atom_site_fract_x
_atom_site_fract_y
_atom_site_fract_z
_atom_site_U_iso_or_equiv
_atom_site_adp_type
_atom_site_occupancy
_atom_site_site_symmetry_order
_atom_site_calc_flag
_atom_site_refinement_flags_posn
_atom_site_refinement_flags_adp
_atom_site_refinement_flags_occupancy
Tb1 Tb 0.22128(4) 0.61064(2) 0.0000 0.0235(3) Uani 1 2 d S TU P
O8 O -0.0819(9) 0.2870(9) 0.5873(9) 0.084(4) Uani 1 1 d . U .
In2 In 0.0000 0.33793(7) 0.50015(8) 0.0384(4) Uani 1 2 d S TU P
In3 In 0.0000 0.49999(7) 0.38165(8) 0.0384(4) Uani 1 2 d DS TU P
O1 O 0.1020(6) 0.5510(3) 0.0000 0.039(3) Uani 1 2 d S TU P
O1A O 0.3333 0.6667 0.0000 0.013(3) Uani 1 6 d S TU P
N1 N 0.2826(18) 0.3487(19) 0.304(2) 0.167(13) Uani 1 1 d . U .
H1 H 0.2689 0.3257 0.3482 0.200 Uiso 1 1 calc R U .
O2 O 0.2142(4) 0.5351(4) 0.0915(5) 0.0284(17) Uani 1 1 d . U .
O4 O 0.2145(4) 0.5360(4) -0.0911(5) 0.0268(16) Uani 1 1 d . U .
O10 O 0.0829(8) 0.3670(8) 0.4122(8) 0.071(3) Uani 1 1 d . U .
O12 O 0.0000 0.2402(10) 0.4996(12) 0.076(5) Uani 1 2 d S TU P
O6 O -0.0695(17) 0.5421(19) 0.3459(19) 0.190(12) Uani 1 1 d D U .
C9 C 0.326(2) 0.326(2) 0.253(3) 0.109(8) Uani 1 2 d S TU P
O29 O 0.0000 0.4358(8) 0.4992(10) 0.059(4) Uani 1 2 d S TU P
O53 O 0.0769(13) 0.4553(13) 0.3431(14) 0.132(7) Uani 1 1 d . U .
C5 C 0.2830(9) 0.4558(10) 0.2282(10) 0.056(3) Uani 1 1 d . U .
H5 H 0.3322 0.4799 0.2134 0.067 Uiso 1 1 calc R U .
C8 C 0.2592(5) 0.5181(5) 0.1190(6) 0.0192(19) Uani 1 1 d . U .
C4 C 0.2578(10) 0.4049(11) 0.2915(11) 0.062(4) Uani 1 1 d . U .
H4 H 0.2861 0.4387 0.3345 0.075 Uiso 1 1 calc R U .
C6 C 0.2350(6) 0.4687(6) 0.1899(6) 0.026(2) Uani 1 1 d . U .
C3 C 0.1909(8) 0.3807(8) 0.3207(9) 0.043(3) Uani 1 1 d . U .
H3 H 0.1764 0.3502 0.3650 0.052 Uiso 1 1 calc R U .
O9 O 0.341(2) 0.341(2) 0.188(3) 0.174(13) Uani 1 2 d S TU P
C7 C 0.1651(10) 0.4450(10) 0.2216(10) 0.058(3) Uani 1 1 d . U .
H7 H 0.1345 0.4599 0.1986 0.070 Uiso 1 1 calc R U .
C2 C 0.1417(10) 0.3992(10) 0.2875(11) 0.059(4) Uani 1 1 d . U .
C1 C 0.1021(13) 0.4150(13) 0.3528(14) 0.076(5) Uani 1 1 d . U .
O20 O 0.0000 0.493(2) 0.242(3) 0.177(13) Uani 1 2 d S TU P
loop_
_atom_site_aniso_label
_atom_site_aniso_U_11
_atom_site_aniso_U_22
_atom_site_aniso_U_33
_atom_site_aniso_U_23
_atom_site_aniso_U_13
_atom_site_aniso_U_12
Tb1 0.0254(4) 0.0226(4) 0.0235(5) -0.0002(2) 0.000 0.0127(2)
O8 0.082(8) 0.081(8) 0.076(7) -0.004(6) 0.019(6) 0.031(6)
In2 0.0401(8) 0.0398(6) 0.0355(7) 0.0002(4) 0.000 0.0201(4)
In3 0.0357(7) 0.0436(6) 0.0333(7) 0.0003(5) 0.000 0.0178(4)
O1 0.021(5) 0.039(5) 0.050(6) -0.001(5) 0.000 0.010(2)
O1A 0.013(3) 0.013(3) 0.014(5) 0.000 0.000 0.0064(15)
N1 0.169(14) 0.167(14) 0.169(14) 0.005(5) 0.003(5) 0.088(8)
O2 0.027(3) 0.032(3) 0.030(3) 0.018(3) 0.007(3) 0.018(3)
O4 0.026(3) 0.028(3) 0.028(3) -0.016(3) -0.005(3) 0.014(3)
O10 0.063(5) 0.077(5) 0.069(5) 0.008(4) 0.009(4) 0.033(4)
O12 0.074(8) 0.079(8) 0.072(8) -0.005(7) 0.000 0.037(4)
O6 0.195(15) 0.197(15) 0.182(14) -0.010(9) -0.015(9) 0.100(10)
C9 0.110(8) 0.110(8) 0.109(10) 0.002(4) 0.002(4) 0.056(5)
O29 0.065(5) 0.057(5) 0.058(5) 0.001(4) 0.000 0.032(3)
O53 0.131(9) 0.137(9) 0.136(9) 0.009(5) 0.001(5) 0.073(6)
C5 0.045(5) 0.065(5) 0.055(5) 0.020(4) -0.002(4) 0.025(4)
C8 0.020(4) 0.018(4) 0.018(3) 0.008(3) 0.006(3) 0.008(3)
C4 0.057(5) 0.071(6) 0.060(5) 0.024(4) 0.001(4) 0.033(4)
C6 0.027(4) 0.026(4) 0.022(4) 0.008(3) 0.002(3) 0.013(3)
C3 0.045(4) 0.044(5) 0.042(5) 0.016(4) 0.006(3) 0.022(4)
O9 0.177(13) 0.177(13) 0.177(16) 0.007(7) 0.007(7) 0.095(10)
C7 0.055(5) 0.067(5) 0.059(5) 0.022(4) 0.010(4) 0.035(4)
C2 0.057(5) 0.067(5) 0.059(5) 0.020(4) 0.007(4) 0.035(4)
C1 0.077(7) 0.079(7) 0.078(7) 0.010(5) 0.001(5) 0.044(5)
O20 0.175(14) 0.174(15) 0.182(16) -0.008(10) 0.000 0.088(7)
loop_
_atom_type_symbol
_atom_type_description
_atom_type_scat_dispersion_real
_atom_type_scat_dispersion_imag
_atom_type_scat_source
C C 0.0033 0.0016 'International Tables Vol C Tables 4.2.6.8 and 6.1.1.4'
H H 0.0000 0.0000 'International Tables Vol C Tables 4.2.6.8 and 6.1.1.4'
In In -0.7276 1.3100 'International Tables Vol C Tables 4.2.6.8 and 6.1.1.4'
N N 0.0061 0.0033 'International Tables Vol C Tables 4.2.6.8 and 6.1.1.4'
O O 0.0106 0.0060 'International Tables Vol C Tables 4.2.6.8 and 6.1.1.4'
Tb Tb -0.1723 4.1537 'International Tables Vol C Tables 4.2.6.8 and 6.1.1.4'
loop_
_geom_angle_atom_site_label_1
_geom_angle_atom_site_label_2
_geom_angle_atom_site_label_3
_geom_angle
_geom_angle_site_symmetry_1
_geom_angle_site_symmetry_3
O1A Tb1 O4 93.3(2) . .
O1A Tb1 O4 93.3(2) . 5_565
O4 Tb1 O4 173.4(4) . 5_565
O1A Tb1 O2 93.4(2) . .
O4 Tb1 O2 90.9(3) . .
O4 Tb1 O2 88.7(3) 5_565 .
O1A Tb1 O2 93.4(2) . 5_565
O4 Tb1 O2 88.7(3) . 5_565
O4 Tb1 O2 90.9(3) 5_565 5_565
O2 Tb1 O2 173.2(4) . 5_565
O1A Tb1 O1 180.0(4) . .
O4 Tb1 O1 86.7(2) . .
O4 Tb1 O1 86.7(2) 5_565 .
O2 Tb1 O1 86.6(2) . .
O2 Tb1 O1 86.6(2) 5_565 .
O1A Tb1 Tb1 30.0 . 2_665
O4 Tb1 Tb1 72.6(2) . 2_665
O4 Tb1 Tb1 113.5(2) 5_565 2_665
O2 Tb1 Tb1 72.6(2) . 2_665
O2 Tb1 Tb1 113.7(2) 5_565 2_665
O1 Tb1 Tb1 150.0 . 2_665
O1A Tb1 Tb1 30.0 . 3_565
O4 Tb1 Tb1 113.5(2) . 3_565
O4 Tb1 Tb1 72.6(2) 5_565 3_565
O2 Tb1 Tb1 113.7(2) . 3_565
O2 Tb1 Tb1 72.6(2) 5_565 3_565
O1 Tb1 Tb1 150.000(1) . 3_565
Tb1 Tb1 Tb1 60.0 2_665 3_565
O12 In2 O29 179.3(8) . .
O12 In2 O8 84.5(6) . .
O29 In2 O8 96.0(6) . .
O12 In2 O8 84.5(6) . 11
O29 In2 O8 96.0(6) . 11
O8 In2 O8 90.4(9) . 11
O12 In2 O10 82.8(6) . 11
O29 In2 O10 96.7(5) . 11
O8 In2 O10 88.2(6) . 11
O8 In2 O10 167.3(6) 11 11
O12 In2 O10 82.8(6) . .
O29 In2 O10 96.7(5) . .
O8 In2 O10 167.3(6) . .
O8 In2 O10 88.2(6) 11 .
O10 In2 O10 90.3(8) 11 .
O6 In3 O6 72.6(19) 11 .
O6 In3 O53 147.5(11) 11 11
O6 In3 O53 97.6(12) . 11
O6 In3 O53 97.6(12) 11 .
O6 In3 O53 147.5(11) . .
O53 In3 O53 73.8(12) 11 .
O6 In3 O20 76.7(12) 11 .
O6 In3 O20 76.7(12) . .
O53 In3 O20 70.9(10) 11 .
O53 In3 O20 70.9(10) . .
O6 In3 O29 131.2(9) 11 .
O6 In3 O29 131.2(10) . .
O53 In3 O29 78.9(7) 11 .
O53 In3 O29 78.9(7) . .
O20 In3 O29 141.9(11) . .
O6 In3 O29 79.1(9) 11 7_566
O6 In3 O29 79.1(9) . 7_566
O53 In3 O29 130.5(6) 11 7_566
O53 In3 O29 130.5(6) . 7_566
O20 In3 O29 149.8(11) . 7_566
O29 In3 O29 68.3(7) . 7_566
Tb1 O1A Tb1 120.0 3_565 2_665
Tb1 O1A Tb1 120.0 3_565 .
Tb1 O1A Tb1 120.0 2_665 .
C9 N1 C4 132(3) . .
C9 N1 H1 113.9 . .
C4 N1 H1 113.9 . .
C8 O2 Tb1 133.4(7) . .
C8 O4 Tb1 134.1(7) 6 .
C1 O10 In2 129.3(14) . .
O9 C9 N1 126(2) . 10
O9 C9 N1 126(2) . .
N1 C9 N1 107(5) 10 .
In2 O29 In3 124.8(8) . .
In2 O29 In3 123.5(8) . 7_566
In3 O29 In3 111.7(7) . 7_566
C1 O53 In3 151(2) . .
C6 C5 C4 118.9(15) . .
C6 C5 H5 120.5 . .
C4 C5 H5 120.5 . .
O2 C8 O4 126.7(9) . 6
O2 C8 C6 116.7(9) . .
O4 C8 C6 116.6(9) 6 .
C3 C4 C5 119.6(16) . .
C3 C4 N1 111.1(19) . .
C5 C4 N1 123(2) . .
C3 C4 H4 98.4 . .
C5 C4 H4 98.4 . .
N1 C4 H4 98.4 . .
C5 C6 C7 120.6(12) . .
C5 C6 C8 119.8(11) . .
C7 C6 C8 119.0(11) . .
C4 C3 C2 122.5(14) . .
C4 C3 H3 118.7 . .
C2 C3 H3 118.7 . .
C2 C7 C6 119.8(15) . .
C2 C7 H7 120.1 . .
C6 C7 H7 120.1 . .
C7 C2 C3 117.3(16) . .
C7 C2 C1 118.2(17) . .
C3 C2 C1 109.7(16) . .
O53 C1 O10 124(2) . .
O53 C1 C2 122(2) . .
O10 C1 C2 111.7(18) . .
loop_
_geom_bond_atom_site_label_1
_geom_bond_atom_site_label_2
_geom_bond_distance
_geom_bond_site_symmetry_2
Tb1 O1A 2.0400(7) .
Tb1 O4 2.147(7) .
Tb1 O4 2.147(7) 5_565
Tb1 O2 2.162(7) .
Tb1 O2 2.163(7) 5_565
Tb1 O1 2.171(12) .
Tb1 Tb1 3.5334(13) 2_665
Tb1 Tb1 3.5334(13) 3_565
O8 In2 2.101(14) .
In2 O12 2.05(2) .
In2 O29 2.057(18) .
In2 O8 2.101(14) 11
In2 O10 2.130(13) 11
In2 O10 2.130(13) .
In3 O6 2.139(18) 11
In3 O6 2.139(18) .
In3 O53 2.33(2) 11
In3 O53 2.33(2) .
In3 O20 2.36(5) .
In3 O29 2.395(17) .
In3 O29 2.417(17) 7_566
O1A Tb1 2.0400(7) 3_565
O1A Tb1 2.0400(7) 2_665
N1 C9 1.49(4) .
N1 C4 1.52(4) .
N1 H1 0.8600 .
O2 C8 1.255(13) .
O4 C8 1.258(12) 6
O10 C1 1.33(2) .
C9 O9 1.14(5) .
C9 N1 1.49(4) 10
O29 In3 2.417(17) 7_566
O53 C1 1.21(3) .
C5 C6 1.334(19) .
C5 C4 1.41(2) .
C5 H5 0.9300 .
C8 O4 1.258(12) 6
C8 C6 1.494(13) .
C4 C3 1.33(2) .
C4 H4 0.9800 .
C6 C7 1.40(2) .
C3 C2 1.39(2) .
C3 H3 0.9300 .
C7 C2 1.39(2) .
C7 H7 0.9300 .
C2 C1 1.51(3) .
loop_
_geom_torsion_atom_site_label_1
_geom_torsion_atom_site_label_2
_geom_torsion_atom_site_label_3
_geom_torsion_atom_site_label_4
_geom_torsion
_geom_torsion_site_symmetry_1
_geom_torsion_site_symmetry_4
C4 N1 C9 O9 -11(8) . .
C4 N1 C9 N1 166(2) . 10
Tb1 O2 C8 O4 -10.0(18) . 6
Tb1 O2 C8 C6 173.0(7) . .
C6 C5 C4 C3 -12(3) . .
C6 C5 C4 N1 138(2) . .
C9 N1 C4 C3 142(4) . .
C9 N1 C4 C5 -9(5) . .
C4 C5 C6 C7 14(3) . .
C4 C5 C6 C8 -175.5(16) . .
O2 C8 C6 C5 -171.6(14) . .
O4 C8 C6 C5 11.1(18) 6 .
O2 C8 C6 C7 -0.5(17) . .
O4 C8 C6 C7 -177.8(13) 6 .
C5 C4 C3 C2 5(3) . .
N1 C4 C3 C2 -148(2) . .
C5 C6 C7 C2 -9(3) . .
C8 C6 C7 C2 -179.9(16) . .
C6 C7 C2 C3 2(3) . .
C6 C7 C2 C1 136.9(19) . .
C4 C3 C2 C7 0(3) . .
C4 C3 C2 C1 -139(2) . .
In3 O53 C1 O10 1(6) . .
In3 O53 C1 C2 163(3) . .
In2 O10 C1 O53 6(4) . .
In2 O10 C1 C2 -158.4(13) . .
C7 C2 C1 O53 16(4) . .
C3 C2 C1 O53 154(2) . .
C7 C2 C1 O10 -179.9(18) . .
C3 C2 C1 O10 -42(2) . .
