#------------------------------------------------------------------------------
#$Date: 2019-11-08 00:44:39 +0200 (Fri, 08 Nov 2019) $
#$Revision: 224319 $
#$URL: file:///home/coder/svn-repositories/cod/cif/7/04/88/7048886.cif $
#------------------------------------------------------------------------------
#
# This file is available in the Crystallography Open Database (COD),
# http://www.crystallography.net/
#
# All data on this site have been placed in the public domain by the
# contributors.
#
data_7048886
loop_
_publ_author_name
'Reinares-Fisac, Daniel'
'Aguirre-D\'iaz, Lina M'
'Iglesias, Marta'
'Guti\'errez-Puebla, Enrique'
'G\'andara, Felipe'
'Monge, M \'Angeles'
_publ_section_title
;
 Anionic and neutral 2D indium metal-organic frameworks as catalysts for
 the Ugi one-pot multicomponent reaction.
;
_journal_issue                   9
_journal_name_full
'Dalton transactions (Cambridge, England : 2003)'
_journal_page_first              2988
_journal_page_last               2995
_journal_paper_doi               10.1039/c8dt04977g
_journal_volume                  48
_journal_year                    2019
_chemical_formula_moiety         'C30 H23 In N O8, 2.5(O)'
_chemical_formula_sum            'C30 H18 In N O10.5'
_chemical_formula_weight         675.27
_chemical_name_systematic        InPF-50
_space_group_crystal_system      orthorhombic
_space_group_IT_number           60
_space_group_name_Hall           '-P 2n 2ab'
_space_group_name_H-M_alt        'P b c n'
_symmetry_space_group_name_Hall  '-P 2n 2ab'
_symmetry_space_group_name_H-M   'P b c n'
_atom_sites_solution_hydrogens   mixed
_audit_block_doi                 10.5517/ccdc.csd.cc1lsdvm
_audit_creation_date             2016-03-28
_audit_creation_method
;
Olex2 1.2
(compiled 2015.09.30 svn.r3233 for OlexSys, GUI svn.r5103)
;
_audit_update_record
;
2016-06-02 deposited with the CCDC.
2019-02-05 downloaded from the CCDC.
;
_cell_angle_alpha                90
_cell_angle_beta                 90
_cell_angle_gamma                90
_cell_formula_units_Z            8
_cell_length_a                   17.5574(8)
_cell_length_b                   20.8944(9)
_cell_length_c                   16.8168(8)
_cell_measurement_reflns_used    9989
_cell_measurement_temperature    250
_cell_measurement_theta_max      65.10
_cell_measurement_theta_min      3.29
_cell_volume                     6169.3(5)
_computing_molecular_graphics    'Olex2 (Dolomanov et al., 2009)'
_computing_publication_material  'Olex2 (Dolomanov et al., 2009)'
_computing_structure_refinement  'XL (Sheldrick, 2008)'
_diffrn_ambient_temperature      250
_diffrn_measured_fraction_theta_full 0.981
_diffrn_measured_fraction_theta_max 0.981
_diffrn_measurement_device_type  'Bruker APEX-II CCD'
_diffrn_measurement_method       '\f and \w scans'
_diffrn_radiation_type           CuK\a
_diffrn_radiation_wavelength     1.54178
_diffrn_reflns_av_R_equivalents  0.0600
_diffrn_reflns_av_unetI/netI     0.0389
_diffrn_reflns_Laue_measured_fraction_full 0.981
_diffrn_reflns_Laue_measured_fraction_max 0.981
_diffrn_reflns_limit_h_max       20
_diffrn_reflns_limit_h_min       -20
_diffrn_reflns_limit_k_max       23
_diffrn_reflns_limit_k_min       -24
_diffrn_reflns_limit_l_max       19
_diffrn_reflns_limit_l_min       -19
_diffrn_reflns_number            30660
_diffrn_reflns_point_group_measured_fraction_full 0.981
_diffrn_reflns_point_group_measured_fraction_max 0.981
_diffrn_reflns_theta_full        65.266
_diffrn_reflns_theta_max         65.266
_diffrn_reflns_theta_min         3.288
_diffrn_standards_number         0
_exptl_absorpt_coefficient_mu    6.623
_exptl_absorpt_correction_T_max  0.5192
_exptl_absorpt_correction_T_min  0.2667
_exptl_absorpt_correction_type   multi-scan
_exptl_absorpt_process_details
;
SADABS-2014/5 (Bruker,2014/5) was used for absorption correction.
wR2(int) was 0.1458 before and 0.0815 after correction.
The Ratio of minimum to maximum transmission is 0.5137.
The \l/2 correction factor is Not present.
;
_exptl_crystal_colour            'clear yellowish colourless'
_exptl_crystal_colour_lustre     clear
_exptl_crystal_colour_modifier   yellowish
_exptl_crystal_colour_primary    colourless
_exptl_crystal_density_diffrn    1.454
_exptl_crystal_description       block
_exptl_crystal_F_000             2704
_exptl_crystal_size_max          0.175
_exptl_crystal_size_mid          0.175
_exptl_crystal_size_min          0.075
_refine_diff_density_max         1.172
_refine_diff_density_min         -1.231
_refine_diff_density_rms         0.189
_refine_ls_extinction_method     none
_refine_ls_goodness_of_fit_ref   1.158
_refine_ls_hydrogen_treatment    constr
_refine_ls_matrix_type           full
_refine_ls_number_parameters     378
_refine_ls_number_reflns         5195
_refine_ls_number_restraints     0
_refine_ls_restrained_S_all      1.158
_refine_ls_R_factor_all          0.1008
_refine_ls_R_factor_gt           0.0866
_refine_ls_shift/su_max          0.001
_refine_ls_shift/su_mean         0.000
_refine_ls_structure_factor_coef Fsqd
_refine_ls_weighting_details
'w=1/[\s^2^(Fo^2^)+(0.1244P)^2^+54.3805P] where P=(Fo^2^+2Fc^2^)/3'
_refine_ls_weighting_scheme      calc
_refine_ls_wR_factor_gt          0.2445
_refine_ls_wR_factor_ref         0.2618
_reflns_Friedel_coverage         0.000
_reflns_number_gt                4341
_reflns_number_total             5195
_reflns_threshold_expression     'I > 2\s(I)'
_iucr_refine_instructions_details
;

    version1_a.res created by SHELXL-2014/7

TITL version1_a.res in Pbcn
REM Old TITL version1 in Pbcn
REM SHELXT solution in Pbcn
REM R1 0.200, Rweak 0.006, Alpha 0.086, Orientation as input
REM Formula found by SHELXT: C32 O7 In
CELL 1.54178 17.5574 20.8944 16.8168 90 90 90
ZERR 8 0.0008 0.0009 0.0008 0 0 0
LATT 1
SYMM 0.5-X,0.5-Y,0.5+Z
SYMM -X,+Y,0.5-Z
SYMM 0.5+X,0.5-Y,-Z
SFAC C H In N O
UNIT 240 144 8 8 84
 
L.S. 10
PLAN  20
TEMP -23.15
BOND $H
LIST 6
MORE -1
CONF
fmap 2
ACTA
REM <olex2.extras>
REM <HklSrc "%.\\a1.hkl">
REM </olex2.extras>
 
WGHT    0.124400   54.380501
FVAR       0.04427
IN01  3    0.365009    0.183793    0.461714    11.00000    0.02273    0.02692 =
         0.05696    0.00120   -0.00145    0.00094
O002  5   -0.052894    0.607491    0.997052    11.00000    0.02978    0.03111 =
         0.08485   -0.00377    0.00618    0.00051
O003  5   -0.004932    0.698382    1.036948    11.00000    0.01235    0.04227 =
         0.08564   -0.01227    0.00161    0.00911
O004  5    0.784275    0.616838    0.984724    11.00000    0.02269    0.04920 =
         0.08580   -0.00877   -0.00690    0.00239
O005  5    0.728889    0.692483    1.054634    11.00000    0.03219    0.05618 =
         0.08414   -0.01120   -0.00389   -0.01320
O006  5    0.352206    0.265275    0.535061    11.00000    0.05019    0.07677 =
         0.08607   -0.05017   -0.00592    0.00889
O007  5    0.369295    0.256034    0.366018    11.00000    0.04984    0.08547 =
         0.05324    0.03024   -0.00386    0.00609
C008  1    0.508372    0.571512    0.931212    11.00000    0.01505    0.04053 =
         0.04640    0.00122    0.00599    0.00290
C009  1    0.295781    0.496736    0.848089    11.00000    0.02153    0.04408 =
         0.05054   -0.01422   -0.00750   -0.00003
AFIX  43
H009  2    0.249293    0.480237    0.829418    11.00000   -1.20000
AFIX   0
C00A  1    0.002739    0.643077    1.006904    11.00000    0.01535    0.03143 =
         0.06717    0.00264    0.00461    0.01033
C00B  1    0.081078    0.619548    0.982120    11.00000    0.01627    0.03065 =
         0.06325   -0.00557   -0.00032    0.00469
C00C  1    0.363221    0.469199    0.822464    11.00000    0.03033    0.03548 =
         0.04439   -0.00950    0.00273   -0.00145
C00D  1    0.434177    0.546440    0.902061    11.00000    0.02743    0.03451 =
         0.05124   -0.00967    0.01134   -0.00676
C00E  1    0.221133    0.573824    0.932187    11.00000    0.02166    0.03374 =
         0.05107   -0.00226   -0.00371    0.00032
C00F  1    0.431591    0.493307    0.849909    11.00000    0.02542    0.04344 =
         0.04630   -0.01221    0.00966    0.00248
AFIX  43
H00F  2    0.477373    0.474022    0.833611    11.00000   -1.20000
AFIX   0
C00G  1    0.513709    0.631884    0.967303    11.00000    0.01635    0.04282 =
         0.06564   -0.01124    0.00658    0.00227
AFIX  43
H00G  2    0.469704    0.656996    0.973639    11.00000   -1.20000
AFIX   0
C00H  1    0.294921    0.548088    0.900643    11.00000    0.01562    0.03303 =
         0.04877   -0.00471    0.00016   -0.00155
O00I  5    0.365592    0.123570    0.352054    11.00000    0.09828    0.08218 =
         0.09495   -0.03622    0.00645   -0.00503
AFIX   7
H00A  2    0.415189    0.102432    0.336640    11.00000   -1.50000
H00B  2    0.351774    0.145103    0.300862    11.00000   -1.50000
AFIX   0
C00J  1    0.583874    0.654968    0.993890    11.00000    0.02112    0.03791 =
         0.06649   -0.00450    0.00109   -0.00115
AFIX  43
H00J  2    0.586371    0.695297    1.018523    11.00000   -1.20000
AFIX   0
C00K  1    0.363139    0.413635    0.766905    11.00000    0.02853    0.04082 =
         0.05382   -0.01115    0.01491   -0.00452
C00L  1    0.210141    0.637796    0.949160    11.00000    0.01230    0.03512 =
         0.08501   -0.00687    0.00554   -0.00282
AFIX  43
H00L  2    0.250467    0.666577    0.940611    11.00000   -1.20000
AFIX   0
C00M  1    0.723610    0.645009    1.009806    11.00000    0.02308    0.03198 =
         0.06255    0.01467   -0.00586    0.00299
C00N  1    0.575199    0.536611    0.925482    11.00000    0.03102    0.03179 =
         0.07706   -0.00957    0.00437    0.00583
AFIX  43
H00N  2    0.572821    0.495087    0.904119    11.00000   -1.20000
AFIX   0
C00O  1    0.090262    0.555689    0.966419    11.00000    0.02913    0.02955 =
         0.09198   -0.00673    0.01087   -0.00515
AFIX  43
H00O  2    0.049308    0.527267    0.973423    11.00000   -1.20000
AFIX   0
C00P  1    0.649376    0.619661    0.984621    11.00000    0.02670    0.02989 =
         0.05990    0.00731   -0.00393   -0.00210
C00Q  1    0.365788    0.572334    0.926436    11.00000    0.02450    0.03701 =
         0.04368   -0.00104    0.00369    0.00298
AFIX  43
H00Q  2    0.366390    0.607382    0.961476    11.00000   -1.20000
AFIX   0
C00R  1    0.158939    0.533456    0.940614    11.00000    0.02471    0.02156 =
         0.08216   -0.00324    0.00360   -0.00051
AFIX  43
H00R  2    0.164266    0.489810    0.928258    11.00000   -1.20000
AFIX   0
C00S  1    0.643086    0.559077    0.948872    11.00000    0.03120    0.03454 =
         0.06137    0.00433    0.00028    0.00184
AFIX  43
H00S  2    0.686980    0.534051    0.941290    11.00000   -1.20000
AFIX   0
C00T  1    0.369167    0.311468    0.661196    11.00000    0.04472    0.05280 =
         0.06749   -0.02403    0.01272   -0.01092
O00U  5    0.404251    0.205082    0.625575    11.00000    0.12406    0.05340 =
         0.10680   -0.01470    0.02906   -0.01082
C00V  1    0.376140    0.255692    0.604671    11.00000    0.05686    0.06547 =
         0.06066   -0.02518    0.02465   -0.01434
C00W  1    0.141502    0.661147    0.978462    11.00000    0.03475    0.03068 =
         0.07924   -0.00630    0.00256   -0.00465
AFIX  43
H00W  2    0.136644    0.703885    0.995168    11.00000   -1.20000
AFIX   0
C00X  1    0.323964    0.415119    0.695770    11.00000    0.06883    0.05370 =
         0.04898   -0.01277    0.00069    0.00238
AFIX  43
H00X  2    0.295658    0.451804    0.682597    11.00000   -1.20000
AFIX   0
C00Y  1    0.325177    0.364869    0.644084    11.00000    0.05210    0.07687 =
         0.04761   -0.01669   -0.00068    0.00563
AFIX  43
H00Y  2    0.296321    0.366399    0.597040    11.00000   -1.20000
AFIX   0
C00Z  1    0.402389    0.358272    0.786962    11.00000    0.07717    0.07521 =
         0.06225   -0.02909   -0.01605    0.02510
AFIX  43
H00Z  2    0.426701    0.354695    0.836565    11.00000   -1.20000
AFIX   0
C010  1    0.405232    0.307925    0.732326    11.00000    0.07888    0.06122 =
         0.09425   -0.03422   -0.01573    0.02379
AFIX  43
H010  2    0.432778    0.270765    0.745199    11.00000   -1.20000
AFIX   0
N011  4    0.324414    0.314737    0.264401    11.00000    0.12934    0.15652 =
         0.11867    0.06555   -0.05031   -0.03562
C012  1    0.397644    0.344216    0.247994    11.00000    0.12602    0.13117 =
         0.08294    0.04052    0.01169   -0.04059
AFIX  93
H01A  2    0.440576    0.332853    0.278260    11.00000   -1.20000
H01B  2    0.402116    0.374661    0.207108    11.00000   -1.20000
AFIX   0
C013  1    0.318136    0.271293    0.322780    11.00000    0.08336    0.11995 =
         0.08436    0.02516   -0.00116   -0.02503
AFIX  43
H013  2    0.270565    0.251550    0.330260    11.00000   -1.20000
AFIX   0
PART 2
C5    1    0.255638    0.336236    0.216904    11.00000    0.23875
AFIX 137
H5A   2    0.229895    0.299099    0.195097    11.00000   -1.50000
H5B   2    0.272034    0.363920    0.173881    11.00000   -1.50000
H5C   2    0.220977    0.359447    0.251340    11.00000   -1.50000
AFIX   0
 
PART 0
O1    5    0.133608    0.537874    0.646604    10.50000    0.14818
O3    5    0.055435    0.592362    0.707119    10.50000    0.37319
 
O0AA  5    0.999722    0.453252    0.672161    10.50000    0.16667
O1AA  5    0.629951    0.161870    0.300482    10.50000    0.25699
O2    5    0.568549    0.212148    0.307459    10.50000    0.21540
HKLF 4
 
REM  version1_a.res in Pbcn
REM R1 =  0.0866 for    4341 Fo > 4sig(Fo)  and  0.1008 for all    5195 data
REM    378 parameters refined using      0 restraints
 
END  
     
WGHT      0.1247     54.2149 

REM Highest difference peak  1.172,  deepest hole -1.231,  1-sigma level  0.189
Q1    1   0.3952  0.1821  0.4983  11.00000  0.05    1.17
Q2    1   0.0993  0.5783  0.6748  11.00000  0.05    1.07
Q3    1   0.3664  0.1866  0.3168  11.00000  0.05    1.04
Q4    1   0.3677  0.1740  0.4168  11.00000  0.05    1.02
Q5    1   0.3402  0.1817  0.5044  11.00000  0.05    1.00
Q6    1   0.3634  0.2167  0.5969  11.00000  0.05    0.87
Q7    1   0.4069  0.2001  0.4641  11.00000  0.05    0.85
Q8    1   0.3994  0.1022  0.3089  11.00000  0.05    0.85
Q9    1   0.0127  0.6119  0.7330  11.00000  0.05    0.78
Q10   1   0.1489  0.5809  0.7156  11.00000  0.05    0.75
Q11   1   0.1101  0.6109  0.7651  11.00000  0.05    0.73
Q12   1   0.1680  0.5154  0.6384  11.00000  0.05    0.72
Q13   1   0.9591  0.4776  0.7062  11.00000  0.05    0.68
Q14   1   0.3941  0.2441  0.5014  11.00000  0.05    0.67
Q15   1   0.6366  0.1112  0.2933  11.00000  0.05    0.66
Q16   1   0.1008  0.5109  0.6478  11.00000  0.05    0.65
Q17   1   0.3191  0.2648  0.1742  11.00000  0.05    0.65
Q18   1   0.4129  0.0723  0.2645  11.00000  0.05    0.62
Q19   1   0.6814  0.1457  0.2812  11.00000  0.05    0.60
Q20   1   0.5851  0.2698  0.3250  11.00000  0.05    0.59

  REM The information below was added by Olex2.
  REM
  REM R1 = 0.0866 for 4341 Fo > 4sig(Fo) and 0.1008 for all 32478 data
  REM n/a parameters refined using n/a restraints
  REM Highest difference peak 1.17, deepest hole -1.23
  REM Mean Shift 0, Max Shift 0.001.
  
  REM +++ Tabular Listing of Refinement Information +++
  REM R1_all = 0.1008
  REM R1_gt = 0.0866
  REM wR_ref = 0.2618
  REM GOOF = 1.158
  REM Shift_max = 0.001
  REM Shift_mean = 0
  REM Reflections_all = 32478
  REM Reflections_gt = 4341
  REM Parameters = n/a
  REM Hole = -1.23
  REM Peak = 1.17
  REM Flack = n/a
  
  
;
_cod_data_source_file            c8dt04977g2.cif
_cod_data_source_block           version1_a
_cod_depositor_comments
'Adding full bibliography for 7048886--7048887.cif.'
_cod_original_formula_sum        'C30 H18 In N O10.50'
_cod_database_code               7048886
_shelx_space_group_comment
;
The symmetry employed for this shelxl refinement is uniquely defined
by the following loop, which should always be used as a source of
symmetry information in preference to the above space-group names.
They are only intended as comments.
;
_olex2_refinement_description
;
1. Fixed Uiso
 At 1.2 times of:
  All C(H) groups, All C(H,H) groups
 At 1.5 times of:
  All C(H,H,H) groups, All O(H,H) groups
2. Others
 Fixed Sof: O1(0.5) O3(0.5) O0AA(0.5) O1AA(0.5) O2(0.5)
3.a Rotating group:
 O00I(H00A,H00B)
3.b Aromatic/amide H refined with riding coordinates:
 C009(H009), C00F(H00F), C00G(H00G), C00J(H00J), C00L(H00L), C00N(H00N),
 C00O(H00O), C00Q(H00Q), C00R(H00R), C00S(H00S), C00W(H00W), C00X(H00X),
 C00Y(H00Y), C00Z(H00Z), C010(H010), C013(H013)
3.c X=CH2 refined with riding coordinates:
 C012(H01A,H01B)
3.d Idealised Me refined as rotating group:
 C5(H5A,H5B,H5C)
;
_shelx_shelxl_version_number     2014/7
_olex2_submission_special_instructions 'No special instructions were received'
loop_
_space_group_symop_operation_xyz
'x, y, z'
'-x+1/2, -y+1/2, z+1/2'
'-x, y, -z+1/2'
'x+1/2, -y+1/2, -z'
'-x, -y, -z'
'x-1/2, y-1/2, -z-1/2'
'x, -y, z-1/2'
'-x-1/2, y-1/2, z'
loop_
_atom_site_label
_atom_site_type_symbol
_atom_site_fract_x
_atom_site_fract_y
_atom_site_fract_z
_atom_site_U_iso_or_equiv
_atom_site_adp_type
_atom_site_occupancy
_atom_site_site_symmetry_order
_atom_site_calc_flag
_atom_site_refinement_flags_posn
_atom_site_refinement_flags_occupancy
_atom_site_disorder_assembly
_atom_site_disorder_group
In01 In 0.36501(3) 0.18379(3) 0.46171(4) 0.0355(3) Uani 1 1 d . . . .
O002 O -0.0529(4) 0.6075(3) 0.9971(5) 0.0486(17) Uani 1 1 d . . . .
O003 O -0.0049(4) 0.6984(3) 1.0369(5) 0.0468(18) Uani 1 1 d . . . .
O004 O 0.7843(4) 0.6168(3) 0.9847(5) 0.0526(19) Uani 1 1 d . . . .
O005 O 0.7289(4) 0.6925(4) 1.0546(5) 0.058(2) Uani 1 1 d . . . .
O006 O 0.3522(5) 0.2653(5) 0.5351(6) 0.071(3) Uani 1 1 d . . . .
O007 O 0.3693(4) 0.2560(5) 0.3660(5) 0.063(2) Uani 1 1 d . . . .
C008 C 0.5084(5) 0.5715(4) 0.9312(6) 0.0340(19) Uani 1 1 d . . . .
C009 C 0.2958(5) 0.4967(4) 0.8481(6) 0.039(2) Uani 1 1 d . . . .
H009 H 0.2493 0.4802 0.8294 0.046 Uiso 1 1 calc R . . .
C00A C 0.0027(5) 0.6431(4) 1.0069(6) 0.038(2) Uani 1 1 d . . . .
C00B C 0.0811(5) 0.6195(4) 0.9821(6) 0.037(2) Uani 1 1 d . . . .
C00C C 0.3632(5) 0.4692(4) 0.8225(6) 0.037(2) Uani 1 1 d . . . .
C00D C 0.4342(5) 0.5464(4) 0.9021(6) 0.038(2) Uani 1 1 d . . . .
C00E C 0.2211(5) 0.5738(4) 0.9322(6) 0.035(2) Uani 1 1 d . . . .
C00F C 0.4316(5) 0.4933(4) 0.8499(6) 0.038(2) Uani 1 1 d . . . .
H00F H 0.4774 0.4740 0.8336 0.046 Uiso 1 1 calc R . . .
C00G C 0.5137(5) 0.6319(5) 0.9673(6) 0.042(2) Uani 1 1 d . . . .
H00G H 0.4697 0.6570 0.9736 0.050 Uiso 1 1 calc R . . .
C00H C 0.2949(5) 0.5481(4) 0.9006(5) 0.0325(19) Uani 1 1 d . . . .
O00I O 0.3656(6) 0.1236(5) 0.3521(7) 0.092(3) Uani 1 1 d . . . .
H00A H 0.4152 0.1024 0.3366 0.138 Uiso 1 1 d GR . . .
H00B H 0.3518 0.1451 0.3009 0.138 Uiso 1 1 d GR . . .
C00J C 0.5839(5) 0.6550(5) 0.9939(7) 0.042(2) Uani 1 1 d . . . .
H00J H 0.5864 0.6953 1.0185 0.050 Uiso 1 1 calc R . . .
C00K C 0.3631(5) 0.4136(5) 0.7669(6) 0.041(2) Uani 1 1 d . . . .
C00L C 0.2101(5) 0.6378(5) 0.9492(7) 0.044(2) Uani 1 1 d . . . .
H00L H 0.2505 0.6666 0.9406 0.053 Uiso 1 1 calc R . . .
C00M C 0.7236(5) 0.6450(4) 1.0098(6) 0.039(2) Uani 1 1 d . . . .
C00N C 0.5752(5) 0.5366(5) 0.9255(7) 0.047(3) Uani 1 1 d . . . .
H00N H 0.5728 0.4951 0.9041 0.056 Uiso 1 1 calc R . . .
C00O C 0.0903(6) 0.5557(5) 0.9664(7) 0.050(3) Uani 1 1 d . . . .
H00O H 0.0493 0.5273 0.9734 0.060 Uiso 1 1 calc R . . .
C00P C 0.6494(5) 0.6197(4) 0.9846(6) 0.039(2) Uani 1 1 d . . . .
C00Q C 0.3658(5) 0.5723(5) 0.9264(6) 0.035(2) Uani 1 1 d . . . .
H00Q H 0.3664 0.6074 0.9615 0.042 Uiso 1 1 calc R . . .
C00R C 0.1589(5) 0.5335(4) 0.9406(7) 0.043(2) Uani 1 1 d . . . .
H00R H 0.1643 0.4898 0.9283 0.051 Uiso 1 1 calc R . . .
C00S C 0.6431(6) 0.5591(5) 0.9489(6) 0.042(2) Uani 1 1 d . . . .
H00S H 0.6870 0.5341 0.9413 0.051 Uiso 1 1 calc R . . .
C00T C 0.3692(6) 0.3115(5) 0.6612(8) 0.055(3) Uani 1 1 d . . . .
O00U O 0.4043(8) 0.2051(5) 0.6256(7) 0.095(3) Uani 1 1 d . . . .
C00V C 0.3761(7) 0.2557(7) 0.6047(8) 0.061(3) Uani 1 1 d . . . .
C00W C 0.1415(6) 0.6611(5) 0.9785(7) 0.048(3) Uani 1 1 d . . . .
H00W H 0.1366 0.7039 0.9952 0.058 Uiso 1 1 calc R . . .
C00X C 0.3240(7) 0.4151(5) 0.6958(7) 0.057(3) Uani 1 1 d . . . .
H00X H 0.2957 0.4518 0.6826 0.069 Uiso 1 1 calc R . . .
C00Y C 0.3252(7) 0.3649(6) 0.6441(7) 0.059(3) Uani 1 1 d . . . .
H00Y H 0.2963 0.3664 0.5970 0.071 Uiso 1 1 calc R . . .
C00Z C 0.4024(8) 0.3583(6) 0.7870(8) 0.072(4) Uani 1 1 d . . . .
H00Z H 0.4267 0.3547 0.8366 0.086 Uiso 1 1 calc R . . .
C010 C 0.4052(9) 0.3079(6) 0.7323(9) 0.078(4) Uani 1 1 d . . . .
H010 H 0.4328 0.2708 0.7452 0.094 Uiso 1 1 calc R . . .
N011 N 0.3244(12) 0.3147(9) 0.2644(11) 0.135(7) Uani 1 1 d . . . .
C012 C 0.3976(12) 0.3442(10) 0.2480(11) 0.113(6) Uani 1 1 d . . . .
H01A H 0.4406 0.3329 0.2783 0.136 Uiso 1 1 calc R . . .
H01B H 0.4021 0.3747 0.2071 0.136 Uiso 1 1 calc R . . .
C013 C 0.3181(10) 0.2713(9) 0.3228(10) 0.096(5) Uani 1 1 d . . . .
H013 H 0.2706 0.2515 0.3303 0.115 Uiso 1 1 calc R . . .
C5 C 0.256(2) 0.3362(17) 0.217(2) 0.239(17) Uiso 1 1 d . . A 2
H5A H 0.2299 0.2991 0.1951 0.358 Uiso 1 1 calc GR . A 2
H5B H 0.2720 0.3639 0.1739 0.358 Uiso 1 1 calc GR . A 2
H5C H 0.2210 0.3594 0.2513 0.358 Uiso 1 1 calc GR . A 2
O1 O 0.1336(18) 0.5379(17) 0.647(2) 0.148(12) Uiso 0.5 1 d . P . .
O3 O 0.055(4) 0.592(4) 0.707(5) 0.37(4) Uiso 0.5 1 d . P . .
O0AA O 1.000(2) 0.4533(16) 0.672(2) 0.167(12) Uiso 0.5 1 d . P . .
O1AA O 0.630(3) 0.162(3) 0.300(4) 0.26(3) Uiso 0.5 1 d . P . .
O2 O 0.569(3) 0.212(2) 0.307(3) 0.215(18) Uiso 0.5 1 d . P . .
loop_
_atom_site_aniso_label
_atom_site_aniso_U_11
_atom_site_aniso_U_22
_atom_site_aniso_U_33
_atom_site_aniso_U_23
_atom_site_aniso_U_13
_atom_site_aniso_U_12
In01 0.0227(4) 0.0269(4) 0.0570(5) 0.0012(3) -0.0014(3) 0.0009(2)
O002 0.030(4) 0.031(3) 0.085(5) -0.004(3) 0.006(4) 0.001(3)
O003 0.012(3) 0.042(4) 0.086(5) -0.012(3) 0.002(3) 0.009(3)
O004 0.023(3) 0.049(4) 0.086(5) -0.009(4) -0.007(3) 0.002(3)
O005 0.032(4) 0.056(5) 0.084(6) -0.011(4) -0.004(4) -0.013(3)
O006 0.050(5) 0.077(6) 0.086(7) -0.050(5) -0.006(4) 0.009(4)
O007 0.050(5) 0.085(6) 0.053(5) 0.030(4) -0.004(4) 0.006(4)
C008 0.015(4) 0.041(5) 0.046(5) 0.001(4) 0.006(4) 0.003(4)
C009 0.022(4) 0.044(5) 0.051(5) -0.014(4) -0.007(4) 0.000(4)
C00A 0.015(4) 0.031(5) 0.067(6) 0.003(4) 0.005(4) 0.010(4)
C00B 0.016(4) 0.031(5) 0.063(6) -0.006(4) 0.000(4) 0.005(3)
C00C 0.030(5) 0.035(5) 0.044(5) -0.009(4) 0.003(4) -0.001(4)
C00D 0.027(5) 0.035(5) 0.051(5) -0.010(4) 0.011(4) -0.007(4)
C00E 0.022(4) 0.034(5) 0.051(5) -0.002(4) -0.004(4) 0.000(4)
C00F 0.025(4) 0.043(5) 0.046(5) -0.012(4) 0.010(4) 0.002(4)
C00G 0.016(4) 0.043(5) 0.066(6) -0.011(5) 0.007(4) 0.002(4)
C00H 0.016(4) 0.033(4) 0.049(5) -0.005(4) 0.000(3) -0.002(3)
O00I 0.098(8) 0.082(7) 0.095(7) -0.036(6) 0.006(6) -0.005(6)
C00J 0.021(4) 0.038(5) 0.066(6) -0.004(5) 0.001(4) -0.001(4)
C00K 0.029(5) 0.041(5) 0.054(6) -0.011(4) 0.015(4) -0.005(4)
C00L 0.012(4) 0.035(5) 0.085(8) -0.007(5) 0.006(4) -0.003(4)
C00M 0.023(5) 0.032(5) 0.063(6) 0.015(4) -0.006(4) 0.003(4)
C00N 0.031(5) 0.032(5) 0.077(7) -0.010(5) 0.004(5) 0.006(4)
C00O 0.029(5) 0.030(5) 0.092(8) -0.007(5) 0.011(5) -0.005(4)
C00P 0.027(5) 0.030(5) 0.060(6) 0.007(4) -0.004(4) -0.002(4)
C00Q 0.025(5) 0.037(5) 0.044(5) -0.001(4) 0.004(4) 0.003(4)
C00R 0.025(5) 0.022(4) 0.082(7) -0.003(4) 0.004(5) -0.001(4)
C00S 0.031(5) 0.035(5) 0.061(6) 0.004(4) 0.000(4) 0.002(4)
C00T 0.045(7) 0.053(7) 0.067(7) -0.024(6) 0.013(5) -0.011(5)
O00U 0.124(10) 0.053(5) 0.107(8) -0.015(5) 0.029(7) -0.011(6)
C00V 0.057(7) 0.065(8) 0.061(8) -0.025(6) 0.025(6) -0.014(6)
C00W 0.035(6) 0.031(5) 0.079(8) -0.006(5) 0.003(5) -0.005(4)
C00X 0.069(8) 0.054(6) 0.049(6) -0.013(5) 0.001(6) 0.002(6)
C00Y 0.052(7) 0.077(8) 0.048(6) -0.017(6) -0.001(5) 0.006(6)
C00Z 0.077(9) 0.075(8) 0.062(7) -0.029(6) -0.016(7) 0.025(7)
C010 0.079(10) 0.061(8) 0.094(11) -0.034(7) -0.016(8) 0.024(7)
N011 0.129(16) 0.157(16) 0.119(13) 0.066(12) -0.050(12) -0.036(12)
C012 0.126(16) 0.131(15) 0.083(11) 0.041(11) 0.012(11) -0.041(13)
C013 0.083(11) 0.120(14) 0.084(11) 0.025(10) -0.001(9) -0.025(10)
loop_
_atom_type_symbol
_atom_type_description
_atom_type_scat_dispersion_real
_atom_type_scat_dispersion_imag
_atom_type_scat_source
C C 0.0181 0.0091 'International Tables Vol C Tables 4.2.6.8 and 6.1.1.4'
H H 0.0000 0.0000 'International Tables Vol C Tables 4.2.6.8 and 6.1.1.4'
In In 0.0822 5.0449 'International Tables Vol C Tables 4.2.6.8 and 6.1.1.4'
N N 0.0311 0.0180 'International Tables Vol C Tables 4.2.6.8 and 6.1.1.4'
O O 0.0492 0.0322 'International Tables Vol C Tables 4.2.6.8 and 6.1.1.4'
loop_
_citation_id
_citation_doi
_citation_year
1 10.1021/jacs.6b05706 2016
loop_
_geom_angle_atom_site_label_1
_geom_angle_atom_site_label_2
_geom_angle_atom_site_label_3
_geom_angle
_geom_angle_site_symmetry_1
_geom_angle_site_symmetry_3
O002 In01 O003 57.2(2) 6_657 6_657
O002 In01 O005 136.1(2) 6_657 6_557
O002 In01 C00A 28.2(3) 6_657 6_657
O002 In01 C00M 109.0(3) 6_657 6_557
O003 In01 O005 166.7(3) 6_657 6_557
O003 In01 C00A 29.0(3) 6_657 6_657
O003 In01 C00M 164.9(3) 6_657 6_557
O004 In01 O002 80.5(3) 6_557 6_657
O004 In01 O003 136.3(3) 6_557 6_657
O004 In01 O005 56.8(3) 6_557 6_557
O004 In01 O007 139.5(3) 6_557 .
O004 In01 C00A 107.9(3) 6_557 6_657
O004 In01 O00I 89.0(4) 6_557 .
O004 In01 C00M 28.8(3) 6_557 6_557
O005 In01 C00A 164.3(3) 6_557 6_657
O005 In01 C00M 28.0(3) 6_557 6_557
O006 In01 O002 117.2(3) . 6_657
O006 In01 O003 89.6(3) . 6_657
O006 In01 O004 101.9(3) . 6_557
O006 In01 O005 84.3(3) . 6_557
O006 In01 O007 83.0(4) . .
O006 In01 C00A 104.0(3) . 6_657
O006 In01 O00I 159.4(4) . .
O006 In01 C00M 92.4(3) . 6_557
O007 In01 O002 133.2(3) . 6_657
O007 In01 O003 83.3(3) . 6_657
O007 In01 O005 84.2(3) . 6_557
O007 In01 C00A 109.7(3) . 6_657
O007 In01 O00I 77.5(4) . .
O007 In01 C00M 111.8(3) . 6_557
C00A In01 C00M 136.7(3) 6_657 6_557
O00I In01 O002 81.5(4) . 6_657
O00I In01 O003 94.5(3) . 6_657
O00I In01 O005 87.3(4) . 6_557
O00I In01 C00A 88.8(4) . 6_657
O00I In01 C00M 88.9(3) . 6_557
C00A O002 In01 92.2(5) . 6_567
C00A O003 In01 89.3(5) . 6_567
C00M O004 In01 96.2(6) . 6_667
C00M O005 In01 86.8(6) . 6_667
C00V O006 In01 112.2(8) . .
C013 O007 In01 126.8(10) . .
C00G C008 C00D 121.2(8) . .
C00N C008 C00D 122.3(8) . .
C00N C008 C00G 116.5(8) . .
C00C C009 H009 119.1 . .
C00C C009 C00H 121.8(8) . .
C00H C009 H009 119.1 . .
O002 C00A In01 59.6(4) . 6_567
O002 C00A O003 121.1(8) . .
O002 C00A C00B 118.9(8) . .
O003 C00A In01 61.7(4) . 6_567
O003 C00A C00B 120.0(8) . .
C00B C00A In01 175.7(8) . 6_567
C00O C00B C00A 118.3(8) . .
C00O C00B C00W 121.1(9) . .
C00W C00B C00A 120.5(8) . .
C009 C00C C00K 121.2(8) . .
C00F C00C C009 119.2(8) . .
C00F C00C C00K 119.6(8) . .
C00F C00D C008 120.6(8) . .
C00Q C00D C008 121.8(8) . .
C00Q C00D C00F 117.6(8) . .
C00L C00E C00H 122.8(8) . .
C00L C00E C00R 117.2(9) . .
C00R C00E C00H 119.9(8) . .
C00C C00F C00D 121.4(8) . .
C00C C00F H00F 119.3 . .
C00D C00F H00F 119.3 . .
C008 C00G H00G 119.7 . .
C00J C00G C008 120.5(8) . .
C00J C00G H00G 119.7 . .
C009 C00H C00E 120.7(8) . .
C009 C00H C00Q 117.6(8) . .
C00Q C00H C00E 121.6(8) . .
In01 O00I H00A 117.5 . .
In01 O00I H00B 117.1 . .
H00A O00I H00B 100.6 . .
C00G C00J H00J 119.5 . .
C00P C00J C00G 121.1(9) . .
C00P C00J H00J 119.5 . .
C00X C00K C00C 121.8(10) . .
C00X C00K C00Z 118.5(10) . .
C00Z C00K C00C 119.8(10) . .
C00E C00L H00L 118.9 . .
C00E C00L C00W 122.3(9) . .
C00W C00L H00L 118.9 . .
O004 C00M In01 54.9(5) . 6_667
O004 C00M C00P 118.3(9) . .
O005 C00M In01 65.1(5) . 6_667
O005 C00M O004 119.9(9) . .
O005 C00M C00P 121.7(9) . .
C00P C00M In01 172.5(8) . 6_667
C008 C00N H00N 118.4 . .
C00S C00N C008 123.3(9) . .
C00S C00N H00N 118.4 . .
C00B C00O H00O 120.1 . .
C00R C00O C00B 119.8(9) . .
C00R C00O H00O 120.1 . .
C00J C00P C00M 121.1(9) . .
C00J C00P C00S 117.8(9) . .
C00S C00P C00M 121.2(9) . .
C00D C00Q C00H 122.4(9) . .
C00D C00Q H00Q 118.8 . .
C00H C00Q H00Q 118.8 . .
C00E C00R H00R 119.3 . .
C00O C00R C00E 121.4(9) . .
C00O C00R H00R 119.3 . .
C00N C00S C00P 120.7(9) . .
C00N C00S H00S 119.6 . .
C00P C00S H00S 119.6 . .
C00Y C00T C00V 122.4(12) . .
C010 C00T C00V 118.4(12) . .
C010 C00T C00Y 119.1(10) . .
O006 C00V C00T 115.8(13) . .
O00U C00V O006 122.8(11) . .
O00U C00V C00T 121.4(13) . .
C00B C00W C00L 117.6(9) . .
C00B C00W H00W 121.2 . .
C00L C00W H00W 121.2 . .
C00K C00X H00X 119.1 . .
C00Y C00X C00K 121.8(11) . .
C00Y C00X H00X 119.1 . .
C00T C00Y H00Y 120.1 . .
C00X C00Y C00T 119.7(11) . .
C00X C00Y H00Y 120.1 . .
C00K C00Z H00Z 120.5 . .
C00K C00Z C010 119.0(12) . .
C010 C00Z H00Z 120.5 . .
C00T C010 C00Z 121.5(12) . .
C00T C010 H010 119.3 . .
C00Z C010 H010 119.3 . .
C012 N011 C5 118.7(19) . .
C013 N011 C012 119.9(17) . .
C013 N011 C5 121(2) . .
N011 C012 H01A 120.0 . .
N011 C012 H01B 120.0 . .
H01A C012 H01B 120.0 . .
O007 C013 N011 124.2(16) . .
O007 C013 H013 117.9 . .
N011 C013 H013 117.9 . .
N011 C5 H5A 109.5 . .
N011 C5 H5B 109.5 . .
N011 C5 H5C 109.5 . .
H5A C5 H5B 109.5 . .
H5A C5 H5C 109.5 . .
H5B C5 H5C 109.5 . .
loop_
_geom_bond_atom_site_label_1
_geom_bond_atom_site_label_2
_geom_bond_distance
_geom_bond_site_symmetry_2
In01 O002 2.258(6) 6_657
In01 O003 2.304(6) 6_657
In01 O004 2.186(7) 6_557
In01 O005 2.412(8) 6_557
In01 O006 2.114(8) .
In01 O007 2.208(8) .
In01 C00A 2.617(8) 6_657
In01 O00I 2.233(10) .
In01 C00M 2.655(9) 6_557
O002 In01 2.258(6) 6_567
O002 C00A 1.239(11) .
O003 In01 2.304(6) 6_567
O003 C00A 1.268(11) .
O004 In01 2.186(7) 6_667
O004 C00M 1.288(12) .
O005 In01 2.413(8) 6_667
O005 C00M 1.249(13) .
O006 C00V 1.260(16) .
O007 C013 1.199(18) .
C008 C00D 1.487(13) .
C008 C00G 1.403(13) .
C008 C00N 1.385(13) .
C009 H009 0.9400 .
C009 C00C 1.385(13) .
C009 C00H 1.390(12) .
C00A In01 2.617(8) 6_567
C00A C00B 1.519(12) .
C00B C00O 1.370(13) .
C00B C00W 1.373(13) .
C00C C00F 1.381(13) .
C00C C00K 1.490(13) .
C00D C00F 1.416(12) .
C00D C00Q 1.379(12) .
C00E C00H 1.500(12) .
C00E C00L 1.380(13) .
C00E C00R 1.387(13) .
C00F H00F 0.9400 .
C00G H00G 0.9400 .
C00G C00J 1.396(13) .
C00H C00Q 1.412(12) .
O00I H00A 1.0102 .
O00I H00B 1.0012 .
C00J H00J 0.9400 .
C00J C00P 1.375(13) .
C00K C00X 1.380(16) .
C00K C00Z 1.388(16) .
C00L H00L 0.9400 .
C00L C00W 1.390(14) .
C00M In01 2.655(9) 6_667
C00M C00P 1.469(13) .
C00N H00N 0.9400 .
C00N C00S 1.340(14) .
C00O H00O 0.9400 .
C00O C00R 1.363(14) .
C00P C00S 1.406(14) .
C00Q H00Q 0.9400 .
C00R H00R 0.9400 .
C00S H00S 0.9400 .
C00T C00V 1.509(15) .
C00T C00Y 1.387(17) .
C00T C010 1.36(2) .
O00U C00V 1.219(17) .
C00W H00W 0.9400 .
C00X H00X 0.9400 .
C00X C00Y 1.363(15) .
C00Y H00Y 0.9400 .
C00Z H00Z 0.9400 .
C00Z C010 1.398(16) .
C010 H010 0.9400 .
N011 C012 1.45(3) .
N011 C013 1.34(2) .
N011 C5 1.52(4) .
C012 H01A 0.9400 .
C012 H01B 0.9400 .
C013 H013 0.9400 .
C5 H5A 0.9700 .
C5 H5B 0.9700 .
C5 H5C 0.9700 .
O1AA O2 1.51(6) .
loop_
_geom_torsion_atom_site_label_1
_geom_torsion_atom_site_label_2
_geom_torsion_atom_site_label_3
_geom_torsion_atom_site_label_4
_geom_torsion
_geom_torsion_site_symmetry_1
In01 O002 C00A O003 4.5(11) 6_567
In01 O002 C00A C00B -175.4(8) 6_567
In01 O003 C00A O002 -4.4(10) 6_567
In01 O003 C00A C00B 175.5(9) 6_567
In01 O004 C00M O005 -4.0(10) 6_667
In01 O004 C00M C00P 176.2(7) 6_667
In01 O005 C00M O004 3.6(9) 6_667
In01 O005 C00M C00P -176.6(9) 6_667
In01 O006 C00V C00T -180.0(7) .
In01 O006 C00V O00U 1.0(16) .
In01 O007 C013 N011 -178.6(15) .
O002 C00A C00B C00O -14.2(15) .
O002 C00A C00B C00W 168.1(10) .
O003 C00A C00B C00O 166.0(10) .
O003 C00A C00B C00W -11.7(16) .
O004 C00M C00P C00J -165.2(10) .
O004 C00M C00P C00S 13.6(15) .
O005 C00M C00P C00J 15.1(16) .
O005 C00M C00P C00S -166.2(10) .
C008 C00D C00F C00C 179.7(9) .
C008 C00D C00Q C00H -178.5(9) .
C008 C00G C00J C00P 0.8(16) .
C008 C00N C00S C00P 3.0(17) .
C009 C00C C00F C00D -1.5(15) .
C009 C00C C00K C00X 53.0(15) .
C009 C00C C00K C00Z -126.1(12) .
C009 C00H C00Q C00D -0.8(15) .
C00A C00B C00O C00R 177.1(10) .
C00A C00B C00W C00L -174.9(10) .
C00B C00O C00R C00E 2.1(18) .
C00C C009 C00H C00E -175.4(9) .
C00C C009 C00H C00Q 1.0(15) .
C00C C00K C00X C00Y 178.5(10) .
C00C C00K C00Z C010 -176.5(12) .
C00D C008 C00G C00J -179.6(9) .
C00D C008 C00N C00S 177.7(10) .
C00E C00H C00Q C00D 175.6(9) .
C00E C00L C00W C00B -7.0(18) .
C00F C00C C00K C00X -127.9(11) .
C00F C00C C00K C00Z 53.0(15) .
C00F C00D C00Q C00H -0.6(15) .
C00G C008 C00D C00F 165.1(9) .
C00G C008 C00D C00Q -17.0(15) .
C00G C008 C00N C00S -3.3(16) .
C00G C00J C00P C00M 177.6(10) .
C00G C00J C00P C00S -1.2(16) .
C00H C009 C00C C00F 0.1(16) .
C00H C009 C00C C00K 179.2(9) .
C00H C00E C00L C00W -179.9(10) .
C00H C00E C00R C00O -177.6(10) .
C00J C00P C00S C00N -0.6(16) .
C00K C00C C00F C00D 179.3(9) .
C00K C00X C00Y C00T -2.6(19) .
C00K C00Z C010 C00T -2(2) .
C00L C00E C00H C009 -146.7(10) .
C00L C00E C00H C00Q 37.1(15) .
C00L C00E C00R C00O -1.5(16) .
C00M C00P C00S C00N -179.4(10) .
C00N C008 C00D C00F -15.9(15) .
C00N C008 C00D C00Q 162.0(10) .
C00N C008 C00G C00J 1.4(15) .
C00O C00B C00W C00L 7.5(17) .
C00Q C00D C00F C00C 1.8(15) .
C00R C00E C00H C009 29.2(14) .
C00R C00E C00H C00Q -147.0(10) .
C00R C00E C00L C00W 4.1(17) .
C00V C00T C00Y C00X -176.9(11) .
C00V C00T C010 C00Z 178.8(13) .
C00W C00B C00O C00R -5.2(18) .
C00X C00K C00Z C010 4(2) .
C00Y C00T C00V O006 13.3(16) .
C00Y C00T C00V O00U -167.7(13) .
C00Y C00T C010 C00Z -3(2) .
C00Z C00K C00X C00Y -2.4(18) .
C010 C00T C00V O006 -169.0(13) .
C010 C00T C00V O00U 10.0(19) .
C010 C00T C00Y C00X 5.5(19) .
C012 N011 C013 O007 3(3) .
C5 N011 C013 O007 -174(2) .
loop_
_refln_index_h
_refln_index_k
_refln_index_l
_refln_F_squared_meas
_refln_F_squared_sigma
0 0 -1 0.01 0.05
0 0 -1 -0.1 0.06
0 0 -1 0.07 0.04
0 0 1 0.09 0.05
0 0 2 528.94 27.84
0 0 2 447.9 27.85
0 0 -2 469.43 27.86
0 0 -2 555.07 27.84
0 0 3 0.42 0.26
0 0 3 0.25 0.18
0 0 -3 0.28 0.18
0 0 -3 0.27 0.16
0 0 4 364.39 19.52
0 0 4 334.8 19.54
0 0 5 -0.35 0.24
0 0 -5 -0.11 0.19
0 0 5 -0.05 0.3
0 0 6 93.29 5.37
0 0 6 94.5 5.44
0 0 -7 -0.02 0.21
0 0 7 0.07 0.5
0 0 7 0.18 0.54
0 0 8 8.36 0.75
0 0 8 6.5 1.36
0 0 8 5.94 1.03
0 0 9 -0.34 0.64
0 0 10 62.07 3.57
0 0 11 0.13 0.29
0 0 12 17.63 1.2
0 0 13 -0.46 0.3
0 0 14 9.73 0.91
0 0 14 10.98 0.81
0 0 -15 -0.29 0.29
0 0 15 0.45 0.37
0 0 -17 0.06 0.28
0 0 17 0.3 0.29
0 0 18 1.75 0.31
0 0 -18 1.57 0.31
0 0 19 -0.05 0.23
1 0 0 0.04 0.03
-1 0 0 0.01 0.02
-1 0 0 0.01 0.04
1 0 0 0.03 0.05
1 0 -1 0.12 0.05
1 0 -1 0 0.05
-1 0 -1 0.06 0.07
1 0 1 0.08 0.05
1 0 -1 0.01 0.05
-1 0 1 0.06 0.04
-1 0 -1 0.03 0.05
1 0 1 0.07 0.08
-1 0 1 -0.01 0.05
-1 0 -1 0.09 0.05
1 0 -2 133.76 7.3
1 0 2 127.73 7.28
1 0 2 133.42 7.27
-1 0 2 133.9 7.28
-1 0 -2 124.78 7.28
-1 0 2 135.9 7.29
1 0 -2 127.01 7.26
-1 0 2 135.73 7.26
-1 0 -2 120.2 7.27
1 0 -3 0.49 0.18
-1 0 -3 0.04 0.18
-1 0 3 0.36 0.22
1 0 3 0.34 0.21
-1 0 3 0.12 0.17
-1 0 -3 0.18 0.15
1 0 4 226 12.11
-1 0 -4 236.11 12.08
-1 0 4 179.51 12.07
1 0 4 222.05 12.08
-1 0 5 -0.14 0.31
-1 0 5 -0.03 0.24
1 0 5 0.2 0.27
-1 0 -5 0.1 0.21
1 0 6 112.63 6.77
1 0 6 124.87 6.83
-1 0 6 105.31 6.76
-1 0 -6 127.27 6.75
1 0 -6 125.88 6.7
1 0 7 -0.25 0.5
-1 0 -7 0.03 0.29
-1 0 7 0.73 0.27
-1 0 7 0.23 0.45
1 0 7 0.1 0.49
-1 0 7 0.94 0.61
1 0 8 55.4 3.53
1 0 8 62.89 3.65
-1 0 8 57.53 3.37
1 0 8 54.11 3.38
-1 0 8 60.67 3.56
-1 0 8 61.69 3.75
-1 0 9 -1.02 0.68
1 0 9 -0.69 0.5
1 0 9 -0.25 0.23
1 0 10 5.53 0.69
-1 0 10 5.8 0.63
1 0 11 0.34 0.29
-1 0 11 0.4 0.28
-1 0 12 0.67 0.31
1 0 12 0.64 0.31
1 0 13 -0.1 0.31
-1 0 13 0.21 0.32
-1 0 -14 -0.07 0.28
-1 0 14 -0.1 0.34
1 0 14 0.54 0.38
-1 0 14 1.55 0.44
1 0 14 -0.29 0.34
-1 0 15 -0.53 0.34
-1 0 -15 0.21 0.29
1 0 -15 0.19 0.29
-1 0 15 1.01 0.4
1 0 15 0.69 0.37
1 0 16 4.47 0.48
-1 0 16 4.04 0.5
-1 0 -16 4.14 0.42
1 0 -16 4.04 0.45
-1 0 -17 -0.12 0.28
1 0 17 0.21 0.3
-1 0 17 0.28 0.29
1 0 -17 -0.2 0.28
1 0 -18 1.7 0.31
-1 0 -18 1.97 0.33
-1 0 18 2.32 0.34
1 0 18 1.9 0.33
1 0 19 -0.23 0.23
-1 0 19 0.1 0.23
2 0 0 5.08 0.36
-2 0 0 4.8 0.32
2 0 0 4.78 0.33
-2 0 0 5.18 0.34
-2 0 0 5.42 0.32
-2 0 -1 -0.04 0.11
2 0 -1 -0.01 0.08
2 0 -1 0 0.12
-2 0 1 0.04 0.08
-2 0 1 -0.09 0.08
2 0 1 -0.03 0.16
2 0 1 -0.04 0.07
-2 0 1 0.02 0.06
2 0 -1 0.03 0.08
-2 0 -1 0.07 0.11
-2 0 -1 -0.14 0.09
-2 0 -2 2.24 0.26
-2 0 2 2.54 0.22
2 0 2 2.14 0.26
-2 0 -2 2.05 0.27
2 0 2 2.47 0.24
2 0 -2 2.62 0.25
-2 0 2 2.71 0.24
-2 0 2 2.53 0.22
2 0 -2 1.87 0.24
2 0 3 0.08 0.15
2 0 3 0.2 0.16
-2 0 3 0.09 0.15
-2 0 3 0.16 0.15
2 0 -3 0.18 0.14
-2 0 -3 -0.01 0.17
-2 0 4 7.28 0.56
-2 0 -4 6.93 0.58
2 0 4 7.14 0.59
-2 0 4 7.03 0.61
2 0 4 8.38 0.55
-2 0 4 7.48 0.51
2 0 5 -0.15 0.25
-2 0 -5 0.29 0.24
-2 0 5 0.03 0.27
-2 0 5 0.23 0.24
2 0 5 0.19 0.22
2 0 6 2.25 0.4
-2 0 6 2.85 0.39
-2 0 6 2.46 0.43
2 0 6 1.47 0.43
-2 0 -6 2.41 0.47
2 0 7 0.74 0.29
-2 0 7 1.2 0.5
-2 0 -7 0.36 0.35
2 0 7 -0.27 0.49
2 0 7 -0.01 0.42
2 0 7 0.59 0.26
-2 0 8 8.66 0.76
2 0 8 6.64 0.73
2 0 8 10.01 0.8
-2 0 8 10.39 1.6
-2 0 8 7.57 1.06
2 0 10 4.95 0.6
-2 0 10 4.78 0.59
2 0 10 4.43 0.6
2 0 11 -0.17 0.26
-2 0 11 0.03 0.26
2 0 11 0.21 0.29
2 0 12 0.48 0.31
-2 0 12 0.69 0.31
2 0 12 0.59 0.29
2 0 13 -0.16 0.31
-2 0 13 -0.08 0.32
-2 0 13 0.15 0.41
-2 0 -14 0.34 0.31
-2 0 14 -0.14 0.34
-2 0 14 1.3 0.45
2 0 15 0.52 0.34
2 0 -15 0.28 0.29
-2 0 -15 0.62 0.31
-2 0 15 1.27 0.41
2 0 -16 -0.23 0.29
2 0 16 0.56 0.32
-2 0 16 0.85 0.35
-2 0 -16 0.12 0.3
-2 0 17 0.58 0.3
2 0 -17 0.28 0.28
2 0 17 0.33 0.29
-2 0 -17 0.2 0.29
-2 0 18 0.33 0.25
-2 0 -18 -0.2 0.26
2 0 18 -0.3 0.25
2 0 -18 -0.33 0.19
-2 0 19 0.5 0.23
-3 0 0 0.18 0.14
-3 0 0 0.04 0.09
-3 0 0 -0.16 0.1
3 0 0 0.09 0.18
3 0 1 0.06 0.1
-3 0 -1 -0.16 0.1
3 0 -1 -0.01 0.06
-3 0 1 0.09 0.12
-3 0 -1 0.08 0.06
3 0 1 -0.05 0.1
-3 0 -1 0.11 0.16
-3 0 1 0.17 0.1
3 0 -1 0.15 0.2
-3 0 1 0.09 0.09
3 0 -2 0.2 0.18
-3 0 2 0.48 0.13
-3 0 2 0.45 0.14
-3 0 -2 0.65 0.21
-3 0 2 0.56 0.14
3 0 2 0.43 0.13
-3 0 3 0.12 0.14
3 0 3 0.14 0.14
-3 0 3 0.09 0.13
3 0 -3 -0.12 0.1
3 0 3 0.09 0.14
-3 0 3 0.15 0.13
-3 0 -3 0.03 0.18
-3 0 4 2.84 0.27
3 0 4 2.54 0.29
-3 0 4 2.05 0.31
-3 0 4 2.56 0.34
-3 0 -4 2.31 0.38
3 0 4 2.42 0.34
-3 0 5 0.04 0.23
3 0 5 -0.18 0.21
-3 0 -5 0 0.26
-3 0 5 -0.03 0.24
3 0 5 0.02 0.21
-3 0 5 0.17 0.16
-3 0 -6 51.42 2.82
3 0 6 45.81 2.7
3 0 6 49.02 2.83
-3 0 6 45.59 2.68
-3 0 6 41.22 2.78
3 0 6 48.75 2.78
-3 0 7 0.87 0.51
-3 0 -7 -0.17 0.4
-3 0 7 0.69 0.27
3 0 7 0.43 0.26
-3 0 8 25.04 2.23
-3 0 8 31.91 1.77
3 0 8 29.75 2.06
-3 0 8 27.15 1.99
3 0 8 28.37 1.78
3 0 8 32.62 1.79
3 0 9 0.1 0.25
3 0 9 -0.43 0.38
3 0 9 0.88 0.32
3 0 10 20.68 1.37
-3 0 10 19.79 1.35
3 0 10 23.38 1.37
-3 0 11 0.23 0.27
3 0 11 0.16 0.3
3 0 11 0.13 0.26
3 0 12 1.53 0.36
-3 0 12 1.5 0.33
3 0 12 1.57 0.34
3 0 13 -0.19 0.31
3 0 13 0.4 0.3
-3 0 13 0.81 0.43
-3 0 13 -0.23 0.31
-3 0 14 -0.21 0.35
-3 0 -14 0.43 0.33
-3 0 14 0.86 0.44
-3 0 15 0.93 0.41
-3 0 -15 0.71 0.32
3 0 -16 0.37 0.29
-3 0 16 1.1 0.37
3 0 16 0.36 0.31
-3 0 -16 0.84 0.31
3 0 17 -0.4 0.27
-3 0 -17 0.06 0.29
3 0 -17 0.21 0.26
-3 0 17 0.53 0.31
-3 0 -18 2.77 0.35
-3 0 18 3.23 0.36
-3 0 19 0.16 0.22
-4 0 0 944.61 54.08
-4 0 0 1000 54.1
-4 0 1 0.11 0.11
-4 0 1 0 0.1
-4 0 -1 -0.02 0.1
-4 0 -1 0.16 0.18
-4 0 1 -0.01 0.13
-4 0 2 11.46 0.71
-4 0 -2 10.04 0.74
4 0 2 11.31 0.69
-4 0 2 11.74 0.72
-4 0 2 11.4 0.7
-4 0 -3 0 0.19
-4 0 3 0.05 0.11
4 0 3 0.18 0.13
-4 0 3 0.05 0.13
-4 0 3 0.02 0.13
-4 0 -4 8.61 0.7
4 0 4 8.85 0.65
-4 0 4 8.81 0.64
-4 0 4 9.02 0.63
-4 0 4 8.52 0.57
4 0 4 9.16 0.59
-4 0 5 0.15 0.23
4 0 5 0.11 0.19
-4 0 5 0.04 0.25
-4 0 -5 0.08 0.29
4 0 5 0.06 0.22
4 0 5 0.19 0.21
-4 0 6 6.66 0.72
-4 0 6 6.23 0.57
-4 0 -6 7.49 0.79
-4 0 6 6.75 0.81
4 0 6 6.06 0.64
4 0 6 6.63 0.6
4 0 7 -0.52 0.42
-4 0 7 1.15 0.57
-4 0 -7 -0.18 0.44
4 0 7 0.22 0.24
-4 0 7 0.9 0.28
-4 0 7 0.38 0.47
-4 0 -8 -0.23 0.46
-4 0 8 0.4 0.58
4 0 8 1.06 0.29
4 0 8 0.47 0.53
-4 0 8 -0.69 0.71
4 0 9 0.11 0.25
-4 0 9 0.36 0.26
4 0 9 0.17 0.29
-4 0 10 44.55 2.63
4 0 10 44.34 2.65
4 0 10 45.86 2.65
4 0 11 -0.48 0.29
-4 0 11 -0.05 0.25
4 0 11 -0.27 0.26
4 0 12 29.72 1.81
-4 0 12 26.43 1.8
4 0 12 31.06 1.82
-4 0 -13 -0.43 0.34
-4 0 13 0.82 0.45
-4 0 13 -0.06 0.33
4 0 13 0 0.32
-4 0 14 17.93 1.18
-4 0 -14 18.24 1.12
-4 0 14 17.05 1.29
-4 0 -15 0.38 0.32
-4 0 15 0.58 0.4
-4 0 16 5.64 0.57
-4 0 -16 6.3 0.5
4 0 -16 6.19 0.51
4 0 -17 -0.13 0.21
-4 0 17 0.48 0.3
-4 0 -17 0.04 0.28
-4 0 18 2.17 0.33
-4 0 -18 2.27 0.33
-4 0 19 0.36 0.23
-5 0 0 0.17 0.15
-5 0 0 0.09 0.12
-5 0 -1 0.06 0.11
-5 0 1 0.01 0.14
-5 0 1 0.11 0.13
-5 0 1 0.06 0.11
-5 0 -1 0.08 0.18
5 0 2 14.38 0.84
-5 0 2 14.18 0.86
-5 0 2 13.93 0.87
-5 0 -2 12.87 0.92
-5 0 2 13.53 0.87
-5 0 3 0.14 0.14
-5 0 3 0.06 0.16
-5 0 3 0.02 0.13
5 0 3 0.18 0.14
-5 0 -3 -0.18 0.2
-5 0 4 39.21 2.21
-5 0 4 39.11 2.2
-5 0 4 34.53 2.13
-5 0 -4 37.68 2.26
5 0 4 39.03 2.16
5 0 4 33.84 2.15
-5 0 5 0.34 0.26
5 0 5 -0.08 0.22
-5 0 -5 0.12 0.35
5 0 5 -0.12 0.26
-5 0 5 0.01 0.26
5 0 5 0.06 0.23
5 0 6 86.2 4.69
-5 0 -6 88.58 4.85
-5 0 6 82.03 4.79
-5 0 6 78.95 4.64
5 0 6 77.53 4.7
-5 0 6 79.66 4.76
5 0 6 83.77 4.8
-5 0 -7 -0.21 0.46
-5 0 7 0.72 0.53
5 0 7 0.23 0.27
5 0 7 -0.51 0.43
-5 0 7 0.67 0.27
-5 0 7 0.23 0.47
-5 0 8 33.22 1.83
5 0 8 28.39 1.84
5 0 8 29.84 2.05
-5 0 9 0.35 0.25
5 0 9 0.01 0.24
5 0 10 14.72 1.04
-5 0 10 14.69 1.03
-5 0 11 -0.05 0.27
5 0 11 0.38 0.27
-5 0 12 0.76 0.32
5 0 12 1.15 0.35
-5 0 -13 1.54 0.41
5 0 13 0.05 0.34
-5 0 13 1.45 0.46
5 0 -14 0.12 0.22
-5 0 14 0.42 0.39
5 0 14 0.69 0.26
5 0 14 0.5 0.33
5 0 -15 0.01 0.26
-5 0 -15 0.52 0.33
-5 0 15 0.77 0.4
5 0 15 -0.09 0.29
5 0 -15 0.14 0.25
5 0 -16 1.84 0.32
-5 0 17 0.65 0.3
-5 0 -17 0.19 0.27
-5 0 -18 0.25 0.26
-5 0 18 0.67 0.25
-5 0 19 0.08 0.21
-6 0 0 62.38 3.72
-6 0 0 68.99 3.72
-6 0 0 63.8 3.74
-6 0 -1 0.01 0.18
-6 0 1 0.08 0.13
-6 0 -1 -0.01 0.12
-6 0 1 0.1 0.16
-6 0 1 -0.25 0.17
-6 0 -2 38.16 2.18
-6 0 2 37.64 2.16
-6 0 2 35.78 2.16
-6 0 -2 34.66 2.2
-6 0 2 37.89 2.16
-6 0 -3 0 0.27
-6 0 3 0.07 0.16
-6 0 3 -0.14 0.17
6 0 3 -0.02 0.09
-6 0 3 0.07 0.18
6 0 3 0.35 0.17
-6 0 4 4.22 0.44
-6 0 4 5.77 0.53
-6 0 -4 5.74 0.71
6 0 4 5.51 0.46
-6 0 4 5.79 0.52
6 0 4 4.64 0.52
6 0 5 0.21 0.25
-6 0 -5 0.31 0.44
-6 0 5 0.19 0.28
6 0 5 0.02 0.24
-6 0 5 -0.01 0.3
-6 0 6 3.53 0.67
6 0 6 4.18 0.58
-6 0 6 4.92 0.74
-6 0 -6 4.9 0.86
-6 0 6 4.59 0.49
6 0 7 0.15 0.25
-6 0 7 -0.03 0.43
-6 0 -7 -0.16 0.42
6 0 8 12.93 0.99
-6 0 8 15.09 0.98
-6 0 9 0.57 0.26
6 0 9 0.19 0.26
6 0 10 15.96 1.12
-6 0 10 15.64 1.08
6 0 11 0.13 0.29
-6 0 11 0.19 0.31
-6 0 12 5.36 0.73
-6 0 12 4.56 0.63
6 0 12 6.87 0.72
-6 0 -12 5.37 0.57
-6 0 13 0.68 0.46
6 0 13 -0.02 0.32
6 0 13 -0.2 0.35
6 0 -14 4.15 0.47
6 0 14 4.36 0.71
-6 0 -14 5.4 0.55
6 0 14 3.97 0.54
-6 0 14 4.41 0.58
-6 0 15 0.52 0.38
6 0 -15 -0.02 0.27
6 0 -15 -0.11 0.23
-6 0 -15 0.42 0.34
6 0 15 -0.39 0.31
6 0 16 0.52 0.29
-6 0 -16 0.96 0.32
6 0 -16 0.72 0.27
-6 0 16 1.39 0.36
-6 0 17 0.47 0.28
6 0 17 0.31 0.22
-6 0 -17 0.68 0.28
-6 0 -18 0.25 0.27
-6 0 18 0.81 0.24
7 0 0 -0.01 0.07
-7 0 0 -0.02 0.15
-7 0 0 0.08 0.24
-7 0 0 0.03 0.18
-7 0 1 0 0.23
-7 0 -1 0.08 0.26
7 0 1 -0.02 0.14
-7 0 -1 0.03 0.16
-7 0 1 0.07 0.15
-7 0 1 0 0.19
-7 0 2 9.34 0.68
-7 0 2 9.16 0.69
7 0 2 8.08 0.62
-7 0 2 8.97 0.68
-7 0 -2 9.15 0.78
-7 0 -2 9.49 0.71
7 0 3 -0.24 0.19
-7 0 3 0.07 0.24
-7 0 -3 0.18 0.39
-7 0 3 0.11 0.2
-7 0 3 -0.16 0.23
-7 0 -3 0.01 0.21
-7 0 -4 25.93 1.73
-7 0 4 25.76 1.58
-7 0 4 26.36 1.59
7 0 4 23.7 1.5
7 0 4 22.54 1.51
-7 0 5 0.14 0.35
-7 0 5 0.17 0.29
7 0 5 0.37 0.22
7 0 5 -0.21 0.24
-7 0 -5 -0.16 0.51
-7 0 -6 36.79 2.5
-7 0 6 39 2.22
-7 0 6 38.2 2.38
7 0 6 38.59 2.27
7 0 7 -0.16 0.26
-7 0 7 0.38 0.24
-7 0 8 22.51 1.35
7 0 8 20.52 1.38
7 0 9 -0.07 0.25
-7 0 9 0.19 0.26
-7 0 10 3.94 0.61
7 0 10 4.3 0.6
-7 0 11 0.07 0.32
7 0 11 0.18 0.29
7 0 11 0.19 0.24
7 0 -12 0.12 0.28
-7 0 12 0.67 0.46
7 0 12 0.04 0.32
7 0 12 -0.04 0.33
-7 0 13 -0.43 0.38
7 0 -13 0.62 0.29
7 0 13 0.36 0.33
-7 0 13 1.06 0.46
7 0 13 0.33 0.37
-7 0 14 -0.05 0.39
7 0 14 1.08 0.34
-7 0 14 1.8 0.42
7 0 -14 0.89 0.3
7 0 14 0.53 0.36
-7 0 -15 0.94 0.35
7 0 15 -0.19 0.29
-7 0 15 0.91 0.39
7 0 -15 -0.05 0.22
7 0 -15 0.5 0.28
7 0 16 -0.05 0.28
-7 0 -16 0.66 0.29
7 0 -16 -0.07 0.25
-7 0 16 0.33 0.32
-7 0 17 0.28 0.27
7 0 17 0.29 0.24
-7 0 -17 0.26 0.26
7 0 -17 0.22 0.25
-7 0 -18 0.21 0.25
-7 0 18 0.68 0.23
-8 0 0 311.43 17.82
-8 0 0 318.91 17.81
-8 0 0 322.77 17.8
-8 0 1 -0.16 0.32
-8 0 -1 -0.12 0.34
-8 0 1 -0.07 0.2
8 0 1 -0.24 0.16
-8 0 1 0.05 0.25
-8 0 -1 -0.17 0.23
-8 0 -1 -0.06 0.23
8 0 -1 -0.01 0.11
-8 0 -2 148.78 8.54
-8 0 2 159.88 8.49
-8 0 2 146.72 8.47
-8 0 2 148.82 8.47
-8 0 -2 144.47 8.49
-8 0 3 0.05 0.3
-8 0 3 0.04 0.23
-8 0 -3 -0.04 0.4
8 0 3 -0.26 0.2
-8 0 -3 -0.09 0.25
8 0 4 48.14 2.93
-8 0 -4 49.55 3.05
-8 0 4 51.29 3.02
-8 0 -4 49.1 3.15
-8 0 4 55.44 3.04
-8 0 -5 0.2 0.49
8 0 5 0.04 0.22
-8 0 5 -0.26 0.34
-8 0 6 1.06 0.22
8 0 7 0.11 0.24
-8 0 7 0.48 0.23
8 0 8 12.8 0.99
-8 0 8 14.15 0.94
-8 0 9 0.17 0.27
8 0 9 0.19 0.26
-8 0 10 38.08 2.35
8 0 10 40.3 2.38
-8 0 11 0.05 0.34
8 0 11 0.22 0.32
-8 0 12 19.36 1.5
-8 0 -12 20.42 1.41
8 0 12 25.28 1.55
8 0 12 25.48 1.41
-8 0 12 20.19 1.41
8 0 -12 24.32 1.37
8 0 13 0.11 0.36
8 0 -13 0 0.28
-8 0 13 0.32 0.43
8 0 13 -0.21 0.29
8 0 -14 14.17 0.86
8 0 14 12.73 0.88
8 0 14 11.07 1.02
-8 0 -14 13.94 0.9
-8 0 14 12.58 0.92
8 0 15 -0.02 0.28
-8 0 15 0.31 0.36
8 0 -15 0.04 0.26
-8 0 -15 0.69 0.35
-8 0 16 2.39 0.37
8 0 -16 2.45 0.33
8 0 16 1.99 0.33
-8 0 -16 2.44 0.35
8 0 17 -0.07 0.23
8 0 -17 0.11 0.23
-8 0 17 0.13 0.26
-8 0 -17 -0.07 0.25
-8 0 -18 0.51 0.26
-8 0 18 0.48 0.23
9 0 0 0 0.17
-9 0 0 0.02 0.38
-9 0 0 0.23 0.27
-9 0 0 0.27 0.24
-9 0 -1 0.26 0.38
-9 0 -1 0.21 0.24
-9 0 1 0.14 0.22
-9 0 -1 0.19 0.24
9 0 -1 0.12 0.14
-9 0 1 -0.02 0.33
-9 0 1 0.35 0.29
-9 0 -2 29.41 1.81
-9 0 2 27.71 1.78
-9 0 -2 27.01 1.89
-9 0 2 28.99 1.79
-9 0 3 -0.14 0.23
-9 0 -3 0.17 0.25
9 0 3 0 0.19
-9 0 -3 -0.13 0.42
-9 0 3 0.17 0.32
-9 0 -4 25.43 1.81
-9 0 4 25.34 1.67
9 0 5 -0.01 0.22
9 0 6 60.87 3.53
9 0 7 -0.07 0.22
9 0 8 38.18 2.2
-9 0 8 33.85 2.13
-9 0 9 -0.27 0.28
9 0 9 0.1 0.27
9 0 10 10.36 0.76
9 0 10 11.44 0.91
-9 0 10 8.76 0.84
9 0 -10 9.85 0.72
-9 0 -10 8.81 0.84
9 0 11 0.27 0.32
9 0 -12 1.84 0.32
-9 0 12 0.82 0.47
9 0 12 1.04 0.38
9 0 12 1.04 0.33
9 0 13 0.15 0.35
-9 0 13 0.56 0.43
9 0 -13 0.04 0.26
9 0 13 0.04 0.28
9 0 14 3.71 0.48
9 0 -14 4.05 0.41
-9 0 14 4.13 0.51
9 0 -15 0.03 0.24
-9 0 -15 0.76 0.34
-9 0 15 -0.04 0.35
9 0 15 0.02 0.26
9 0 16 1.86 0.3
-9 0 16 2.13 0.33
9 0 -16 1.43 0.3
-9 0 -16 2.06 0.35
-9 0 -17 -0.03 0.26
-9 0 17 0.07 0.25
9 0 17 -0.15 0.22
9 0 -17 0.15 0.26
-10 0 0 -0.02 0.21
-10 0 -1 -0.03 0.25
10 0 2 -0.01 0.18
10 0 3 -0.06 0.18
10 0 4 10.36 0.77
10 0 5 0.12 0.22
10 0 6 2.36 0.35
10 0 7 0.07 0.25
10 0 8 3.34 0.61
10 0 9 0.4 0.32
10 0 -9 0.14 0.26
10 0 9 0.16 0.3
10 0 10 6.59 0.66
10 0 -10 7.08 0.58
10 0 10 7.02 0.79
10 0 -12 4.54 0.47
10 0 12 5.28 0.55
10 0 12 5.03 0.78
10 0 13 -0.02 0.29
10 0 13 0.25 0.34
-10 0 13 -0.18 0.39
10 0 14 2.8 0.44
-10 0 14 2.96 0.44
10 0 -14 2.53 0.37
10 0 -15 0.2 0.23
-10 0 15 0.24 0.32
10 0 15 -0.15 0.24
-10 0 -15 0.97 0.32
10 0 -16 1.32 0.27
-10 0 16 1.03 0.28
-10 0 -16 1.49 0.29
10 0 16 1.19 0.25
10 0 17 0.29 0.21
-10 0 -17 0.28 0.26
11 0 3 0.02 0.18
11 0 4 0.58 0.23
11 0 5 -0.18 0.23
11 0 6 1.84 0.35
11 0 7 -0.12 0.28
11 0 -7 0.08 0.22
11 0 8 0.3 0.26
11 0 8 0.55 0.32
11 0 -8 0.3 0.28
11 0 9 0.31 0.33
11 0 9 0 0.34
11 0 -9 0.08 0.29
11 0 12 0.33 0.36
11 0 13 0.28 0.27
11 0 -14 0.05 0.23
11 0 14 0.05 0.25
-11 0 -14 1.25 0.38
-11 0 -15 0.77 0.3
11 0 -15 0.1 0.21
11 0 15 -0.08 0.21
-11 0 15 0.82 0.29
11 0 -16 0.28 0.14
-11 0 -16 0.12 0.25
11 0 -16 -0.08 0.19
11 0 16 -0.07 0.21
12 0 4 1.11 0.26
12 0 -5 0.2 0.15
12 0 5 0.22 0.26
12 0 -6 0.33 0.17
12 0 6 0.82 0.31
12 0 -6 0.43 0.24
12 0 7 0.13 0.33
12 0 -7 0.02 0.27
12 0 8 2.88 0.41
12 0 -8 2.48 0.43
12 0 8 1.91 0.43
12 0 -9 0.2 0.28
12 0 9 0.26 0.39
12 0 9 0.34 0.33
12 0 10 7.46 0.88
12 0 10 6.99 0.65
12 0 -10 6.02 0.57
12 0 11 0.03 0.36
12 0 12 5.69 0.56
12 0 -12 5.31 0.5
-12 0 -12 7.18 0.72
12 0 13 0.15 0.24
-12 0 -13 0.9 0.43
12 0 -13 0.06 0.24
12 0 -14 6.51 0.43
12 0 14 6.24 0.51
12 0 -14 5.65 0.48
-12 0 -14 6.59 0.53
12 0 -15 0.23 0.14
12 0 15 -0.17 0.21
12 0 -15 -0.05 0.2
-12 0 15 0.79 0.26
-12 0 -15 0.1 0.27
12 0 -16 2.12 0.2
12 0 -16 1.52 0.23
-12 0 -16 1.79 0.3
12 0 16 2.18 0.3
13 0 -3 0.05 0.13
13 0 -5 -0.27 0.16
13 0 -5 0.21 0.26
13 0 -6 34.04 1.92
13 0 -6 34.36 1.98
13 0 6 32.12 2.08
13 0 7 0.19 0.24
13 0 -7 0.2 0.27
13 0 7 0.22 0.36
13 0 -7 -0.22 0.2
13 0 8 25.25 1.6
13 0 8 26.36 1.78
13 0 -8 26.9 1.53
13 0 -8 25.82 1.59
13 0 9 0.22 0.33
13 0 9 -0.21 0.38
13 0 -9 -0.41 0.23
13 0 -9 0.27 0.3
-13 0 -10 10.09 0.92
13 0 -10 8.3 0.67
13 0 10 8.15 0.92
13 0 -10 8.77 0.64
13 0 10 9.32 0.73
13 0 -11 -0.43 0.21
13 0 -11 0.02 0.26
13 0 11 0.08 0.29
13 0 12 0.54 0.27
13 0 -12 0.94 0.27
13 0 -12 0.73 0.21
-13 0 -12 1.72 0.5
13 0 -13 -0.08 0.16
13 0 -13 0.07 0.22
13 0 13 -0.04 0.23
13 0 -14 0.71 0.23
13 0 14 0.76 0.24
13 0 -14 1.02 0.17
13 0 -15 -0.21 0.2
-13 0 15 0.32 0.23
13 0 15 -0.05 0.2
-13 0 -15 -0.08 0.26
13 0 -15 0.15 0.14
14 0 1 -0.11 0.19
14 0 -1 -0.04 0.21
14 0 1 -0.31 0.17
14 0 -1 -0.05 0.18
14 0 -2 144.55 8.06
14 0 2 144.24 8.06
14 0 -3 -0.1 0.17
14 0 3 -0.01 0.19
14 0 -4 22.91 1.37
14 0 -4 24.3 1.44
14 0 -5 0.12 0.23
14 0 -5 -0.28 0.17
14 0 -5 0.58 0.28
14 0 -6 3.59 0.47
14 0 -6 2.43 0.28
14 0 -7 0.28 0.29
14 0 7 0.26 0.3
14 0 -7 -0.15 0.2
14 0 -7 0.19 0.23
14 0 -8 2.63 0.36
14 0 -8 2.91 0.43
14 0 8 2.48 0.42
14 0 -9 0.25 0.25
14 0 9 0.27 0.34
14 0 -9 -0.23 0.22
14 0 -9 0.21 0.28
14 0 -10 9.43 0.71
-14 0 -10 9.12 0.86
14 0 10 9.26 0.75
14 0 -10 10.76 0.67
14 0 -11 -0.09 0.2
-14 0 -11 0.76 0.54
14 0 11 -0.02 0.28
14 0 -11 -0.06 0.24
14 0 12 2.95 0.4
-14 0 -12 3.09 0.51
14 0 -12 3 0.32
14 0 -12 2.78 0.37
14 0 -13 -0.11 0.22
14 0 -13 -0.2 0.15
-14 0 13 0.72 0.29
14 0 13 0.13 0.23
-14 0 -13 0.8 0.36
14 0 14 2.94 0.35
-14 0 14 3.53 0.38
14 0 -14 2.51 0.31
14 0 -14 2.92 0.25
-14 0 -14 2.51 0.36
15 0 0 -0.19 0.17
15 0 0 -0.06 0.22
15 0 1 0.13 0.17
15 0 -1 0.23 0.2
15 0 -1 0.02 0.17
15 0 1 0.34 0.22
15 0 -2 2.95 0.29
15 0 -2 2.68 0.35
15 0 2 3.49 0.31
15 0 -3 0.4 0.17
15 0 -3 0.5 0.23
15 0 -4 0.61 0.18
15 0 -4 0.85 0.26
15 0 -5 0.06 0.17
15 0 -5 0.33 0.24
15 0 -6 0.81 0.28
15 0 -6 0.95 0.22
15 0 -6 1.65 0.36
15 0 -7 -0.15 0.2
15 0 -7 0.27 0.31
15 0 -7 0.26 0.25
15 0 7 0.13 0.23
15 0 -8 0.7 0.31
15 0 8 0.11 0.32
15 0 -8 0.46 0.22
15 0 -8 0.24 0.23
15 0 -9 -0.06 0.21
15 0 9 0.09 0.32
15 0 -9 0.24 0.28
15 0 -9 0.25 0.28
-15 0 -10 1.7 0.61
15 0 -10 0.2 0.27
15 0 10 0.19 0.29
15 0 -10 -0.01 0.2
15 0 -11 0.23 0.18
15 0 11 0 0.26
15 0 -11 0.26 0.25
-15 0 -12 1 0.38
15 0 -12 -0.02 0.16
15 0 -12 0 0.25
15 0 12 0.21 0.25
15 0 13 0.27 0.24
-15 0 -13 0.96 0.32
16 0 0 12.91 0.81
16 0 0 11.62 0.75
16 0 1 0.17 0.16
16 0 -1 0.05 0.21
16 0 -1 -0.09 0.15
16 0 -2 1.77 0.21
16 0 -2 1.63 0.27
16 0 -3 0.1 0.22
16 0 -3 -0.15 0.14
16 0 -4 0.79 0.25
16 0 -4 0.74 0.18
16 0 -5 0.54 0.25
16 0 -5 0.26 0.18
16 0 -6 0.68 0.27
16 0 -6 0.27 0.19
16 0 -7 0.25 0.2
16 0 -7 0.34 0.24
16 0 -8 1.97 0.25
16 0 8 1.18 0.29
16 0 9 0.21 0.29
-16 0 -9 1.97 0.6
16 0 -9 0.26 0.19
16 0 10 2.86 0.45
-16 0 10 3.21 0.44
16 0 -10 3.06 0.33
-16 0 -10 4.49 0.62
16 0 11 0.17 0.28
-16 0 -11 1.14 0.4
-16 0 11 0.75 0.28
-16 0 -12 2.22 0.37
16 0 -12 1.83 0.23
16 0 12 1.89 0.31
-16 0 12 2.69 0.35
17 0 0 0.24 0.16
17 0 1 0.47 0.17
17 0 -1 0.26 0.16
17 0 -2 7.58 0.52
17 0 -2 8.11 0.59
17 0 -3 0.22 0.23
17 0 -3 0.01 0.16
17 0 -4 8.02 0.51
17 0 -4 7.18 0.57
17 0 -5 -0.03 0.23
17 0 -5 0.11 0.16
17 0 -6 9.21 0.64
17 0 -7 -0.1 0.16
-17 0 8 12.56 0.84
-17 0 -9 1.27 0.5
17 0 -9 0.04 0.16
-17 0 9 0.01 0.27
-17 0 -10 8.15 0.66
-17 0 10 8.17 0.6
-17 0 11 0.56 0.25
-17 0 -11 0.83 0.34
18 0 0 32.26 1.84
18 0 -1 0.14 0.16
18 0 -2 11.98 0.74
18 0 -3 0.12 0.15
18 0 -4 4.15 0.42
18 0 -4 4.57 0.35
18 0 -5 0.19 0.16
18 0 -5 -0.17 0.18
18 0 -6 0.51 0.17
18 0 -7 0.04 0.16
18 0 -8 3.06 0.29
-18 0 -8 2.51 0.49
-18 0 -9 0.93 0.4
19 0 -2 1.16 0.18
19 0 -3 0.1 0.14
19 0 -4 1.48 0.2
19 0 -5 0.14 0.15
19 0 -6 3.86 0.33
19 0 -7 0.1 0.16
-19 0 -7 -0.08 0.37
20 0 -4 0.4 0.17
0 1 0 0.04 0.02
0 1 0 -0.02 0.04
0 -1 0 0.01 0.04
0 -1 0 0.01 0.02
0 1 0 0.01 0.02
0 -1 0 0 0.02
0 -1 1 0.07 0.07
0 -1 1 0.03 0.03
0 1 1 0.09 0.07
0 1 1 0.12 0.05
0 -1 -1 0.09 0.07
0 -1 1 -0.07 0.08
0 1 -1 0.04 0.03
0 -1 -1 0.21 0.06
0 1 -1 -0.05 0.08
0 1 1 0.03 0.04
0 -1 -1 0.03 0.04
0 -1 -2 0 0.08
0 -1 -2 0.24 0.14
0 -1 2 0.02 0.17
0 -1 2 0.05 0.1
0 1 -2 0.06 0.18
0 1 -2 -0.01 0.09
0 1 2 0.05 0.09
0 1 2 0.05 0.13
0 1 -2 0.11 0.15
0 -1 2 0.04 0.14
0 -1 3 -0.12 0.22
0 -1 -3 0.13 0.13
0 1 -3 0 0.14
0 1 -3 0.27 0.19
0 1 3 0.36 0.21
0 -1 3 0.53 0.29
0 1 3 0.58 0.24
0 -1 3 0.25 0.18
0 -1 4 0.19 0.22
0 -1 -4 -0.1 0.15
0 1 4 -0.03 0.22
0 1 4 0.17 0.26
0 -1 4 0.31 0.29
0 -1 5 -0.32 0.24
0 -1 5 0.08 0.33
0 -1 -5 -0.06 0.15
0 1 5 0.07 0.27
0 -1 6 -0.35 0.32
0 -1 6 -0.18 0.19
0 -1 -6 -0.09 0.17
0 -1 6 0.1 0.43
0 1 6 0.18 0.35
0 1 7 0.18 0.52
0 -1 7 0.44 0.62
0 1 7 0.71 0.26
0 1 -7 0.02 0.28
0 1 7 -0.4 0.49
0 -1 7 0.6 0.48
0 -1 8 0.49 0.74
0 -1 8 0.72 0.63
0 1 8 0.21 0.64
0 1 8 0.41 0.64
0 1 10 0.78 0.3
0 -1 10 0.45 0.29
0 1 11 0.3 0.29
0 -1 11 0.24 0.27
0 1 12 -0.2 0.3
0 -1 12 -0.01 0.28
0 1 13 -0.37 0.32
0 -1 13 -0.26 0.29
0 1 -14 0.29 0.3
0 -1 14 0.99 0.38
0 -1 14 -0.35 0.33
0 1 14 0.81 0.43
0 -1 15 0.8 0.36
0 -1 15 -0.59 0.33
0 1 -15 -0.12 0.29
0 1 15 0.73 0.41
0 1 16 1.09 0.36
0 -1 -16 0.24 0.3
0 1 -16 0.56 0.3
0 -1 16 0.58 0.32
0 1 17 0.27 0.3
0 1 -17 -0.01 0.29
0 -1 17 0.36 0.29
0 1 18 0.48 0.27
0 1 -18 0.46 0.27
0 -1 18 0.47 0.27
0 -1 19 0.05 0.23
0 1 19 -0.2 0.23
0 1 -19 -0.23 0.2
-1 -1 0 7.5 0.46
1 1 0 7.94 0.46
-1 1 0 7.97 0.45
-1 -1 0 8.04 0.45
1 1 0 8.16 0.45
1 -1 0 7.83 0.45
-1 -1 0 7.81 0.46
-1 1 0 7.84 0.47
1 1 0 7.26 0.47
-1 -1 -1 9.52 0.56
1 1 -1 9.48 0.57
-1 1 1 9.05 0.56
-1 -1 -1 9 0.55
1 -1 1 9.85 0.54
-1 1 1 9.74 0.55
1 1 -1 9.33 0.56
1 -1 1 9.57 0.56
-1 -1 -1 9.89 0.56
-1 1 1 10.14 0.55
-1 -1 1 9.59 0.56
1 -1 -1 9.42 0.55
-1 1 -1 9.34 0.54
-1 1 -1 8.81 0.56
-1 -1 1 9.62 0.56
-1 1 -1 9.83 0.58
1 1 1 9.25 0.57
1 1 1 9.68 0.55
-1 -1 1 9.16 0.55
1 -1 -1 8.6 0.56
1 1 1 9.62 0.55
1 -1 2 30.11 1.73
1 -1 2 32.68 1.69
-1 -1 -2 26.45 1.71
-1 1 2 32.09 1.72
-1 -1 -2 28.37 1.71
1 1 -2 28.89 1.7
-1 1 2 26.04 1.71
1 1 -2 29.47 1.73
-1 -1 -2 30.53 1.71
1 1 -2 29.65 1.72
1 -1 -2 27.85 1.72
1 1 2 30.75 1.71
-1 -1 2 31.26 1.7
1 1 2 30.97 1.71
-1 1 -2 28.64 1.69
-1 -1 2 31.79 1.73
-1 -1 2 31.16 1.7
-1 1 -2 27.38 1.73
1 -1 -2 30.98 1.72
1 1 2 31.9 1.71
-1 1 3 50.71 3.42
1 -1 3 66.33 3.41
-1 -1 -3 62.11 3.41
1 -1 3 62.63 3.46
1 1 3 66.35 3.43
-1 -1 3 56.89 3.45
1 1 3 65.28 3.42
-1 -1 3 62.53 3.41
1 1 3 49.63 3.4
1 -1 4 40.21 2.3
-1 -1 -4 42.49 2.28
1 -1 4 37.78 2.36
-1 1 4 32.94 2.3
-1 -1 4 42.05 2.29
-1 -1 4 37.62 2.29
1 1 4 40.58 2.31
1 1 4 42.86 2.32
-1 -1 -5 74.17 3.97
-1 1 5 62.83 4
1 -1 5 69.78 4
1 -1 5 73.11 4.07
1 -1 -5 68.53 3.91
-1 -1 5 60.91 3.99
1 1 5 77.81 4.04
1 1 5 71.98 4.02
-1 1 6 42.41 2.52
-1 1 6 39.52 2.58
1 -1 6 47.97 2.62
1 -1 6 41.21 2.51
-1 -1 -6 46.84 2.45
-1 -1 6 39.22 2.49
1 1 6 42.83 2.52
-1 -1 6 35.23 2.61
-1 1 7 75.54 4.2
-1 1 7 75.01 4.34
-1 1 7 79.58 4.45
1 -1 7 71.9 4.32
-1 -1 -7 62.42 4.22
1 -1 7 66.94 4.21
1 -1 7 82.17 4.46
-1 -1 7 74.56 4.48
1 1 7 73.92 4.34
-1 -1 7 74.51 4.32
-1 -1 7 67.85 4.2
-1 1 -7 86.1 4.3
-1 1 8 2.22 0.74
1 -1 8 1.04 0.74
1 -1 8 0.64 0.58
-1 1 8 1.61 0.65
-1 -1 8 1.94 0.63
-1 -1 8 2.88 0.89
1 1 8 1.39 0.29
1 1 8 0.84 0.54
1 1 8 1.45 0.64
1 -1 9 18.98 1.21
-1 1 9 19.19 1.18
1 -1 9 15.69 1.62
1 1 9 18.9 1.16
-1 -1 9 13.66 1.76
-1 -1 9 18.08 1.2
1 1 9 17.02 1.19
1 -1 10 1.19 0.31
-1 1 10 1.44 0.32
1 1 10 1.37 0.33
-1 -1 10 1.38 0.31
1 -1 11 2.74 0.52
-1 1 11 2.88 0.56
1 1 11 1.65 0.32
1 1 11 1.91 0.36
-1 -1 11 2.02 0.34
1 -1 12 6.08 0.68
-1 1 12 5.72 0.7
1 1 12 5.83 0.71
-1 -1 12 5.75 0.69
1 -1 13 -0.18 0.31
-1 1 13 0.15 0.33
-1 -1 13 0.26 0.31
-1 -1 13 0 0.4
1 1 13 -0.03 0.32
1 -1 14 1.14 0.37
1 1 -14 1.79 0.33
-1 1 14 1.26 0.4
1 1 14 0.71 0.38
-1 1 -14 2.07 0.36
-1 -1 14 1.49 0.38
-1 -1 -15 1.92 0.35
1 -1 15 2.11 0.39
-1 1 15 3.11 0.53
1 1 -15 1.65 0.34
-1 -1 15 3.1 0.48
1 1 15 2.52 0.42
-1 1 -15 2.06 0.35
-1 -1 -16 0.06 0.3
1 1 -16 0.25 0.29
1 -1 16 0.63 0.32
-1 1 16 0.58 0.36
-1 1 -16 0.37 0.3
-1 -1 16 0.56 0.34
1 1 16 0.91 0.34
1 -1 17 1.34 0.31
-1 -1 -17 0.76 0.3
1 1 -17 1.07 0.31
-1 1 17 1.52 0.33
1 1 17 1.26 0.32
-1 -1 17 1.74 0.32
-1 1 -17 0.95 0.31
1 -1 18 0.24 0.26
-1 1 18 0.31 0.26
1 1 -18 -0.01 0.26
-1 -1 18 0.21 0.26
-1 1 -18 0.11 0.27
1 1 18 0.13 0.26
1 -1 19 1.77 0.29
-1 1 19 2.2 0.29
-1 1 -19 1.51 0.28
-1 -1 19 1.91 0.28
-2 -1 0 -0.06 0.08
2 1 0 0.05 0.14
-2 -1 0 0.01 0.06
2 1 0 0.08 0.08
-2 1 0 0 0.05
-2 -1 0 0.08 0.09
-2 1 0 -0.02 0.09
2 1 0 0 0.07
-2 1 0 0.03 0.05
2 -1 1 380.32 19.85
2 1 -1 343.47 19.85
-2 1 1 362 19.84
-2 -1 -1 301.95 19.84
2 -1 1 397.56 19.83
-2 1 1 390.5 19.85
2 1 -1 315.26 19.85
-2 1 1 397.05 19.84
-2 -1 -1 306 19.84
2 1 1 326.98 19.85
-2 -1 1 361.77 19.84
-2 1 -1 382.29 19.88
-2 -1 1 375.82 19.85
-2 1 -1 375.49 19.83
2 1 1 375.26 19.84
-2 -1 1 381.5 19.85
2 -1 -1 353.91 19.84
2 -1 -1 338.43 19.84
-2 1 -1 308.75 19.84
2 -1 2 2.73 0.29
2 1 -2 2.64 0.31
-2 1 2 2.98 0.21
-2 1 2 3.27 0.26
-2 1 2 3.17 0.28
-2 -1 -2 2.78 0.32
2 -1 2 2.64 0.23
-2 -1 2 2.69 0.24
2 -1 -2 2.39 0.26
-2 -1 2 2.76 0.27
-2 1 -2 2.71 0.26
2 1 2 2.66 0.28
2 1 2 3 0.27
-2 1 -2 2.11 0.38
2 -1 3 3.92 0.31
-2 1 3 3.32 0.35
2 -1 3 3.6 0.39
-2 1 3 4.4 0.37
-2 -1 -3 3.43 0.37
2 1 3 3.47 0.35
-2 -1 3 3.87 0.37
-2 -1 3 3.32 0.31
2 1 3 3.03 0.34
-2 1 4 130.83 8.72
-2 -1 -4 155.41 8.71
2 -1 4 168.72 8.7
2 -1 4 156.86 8.74
-2 1 4 138.66 8.73
-2 -1 4 161.26 8.69
-2 -1 4 158.04 8.71
2 1 4 160.74 8.71
-2 -1 4 149 8.74
2 1 4 164.38 8.72
-2 1 -4 164.01 8.75
-2 1 5 3.69 0.51
-2 -1 -5 4.39 0.47
2 -1 5 4.66 0.55
-2 -1 5 4.19 0.47
-2 1 -5 4.68 0.54
2 1 5 4.43 0.49
-2 -1 5 4.04 0.59
-2 -1 5 5.18 0.45
2 1 5 5.28 0.51
-2 -1 -6 97.81 5.12
-2 1 6 86.42 5.03
2 -1 6 96.78 5.21
2 -1 6 91.34 5.13
-2 1 6 80.39 5.14
2 1 6 100.63 5.17
-2 -1 6 80.64 5.12
2 1 6 91.98 5.15
-2 -1 6 81.3 5.04
2 -1 7 8.62 1.01
-2 1 7 10.09 1.31
-2 1 7 10.78 0.77
-2 1 7 10.61 1.02
-2 -1 -7 11.38 0.86
2 -1 7 11.54 0.86
-2 -1 7 12.49 1.39
2 1 7 10.9 0.78
-2 -1 7 10.92 0.83
-2 -1 7 10.12 0.99
2 1 7 8.23 1.03
-2 1 -7 12.55 0.95
2 -1 8 45.54 2.93
-2 1 8 46.52 3.05
-2 1 8 46.56 2.85
2 -1 8 48.31 2.64
-2 1 8 48.39 2.64
2 -1 8 45.05 2.66
-2 -1 8 44.39 2.65
2 1 8 42.32 2.66
2 1 8 48.67 2.88
2 1 8 38 2.81
-2 -1 8 45.32 3.09
-2 -1 8 41.77 2.8
2 1 8 48.08 2.64
2 -1 9 22.37 1.48
-2 1 9 26.36 1.51
2 -1 9 24.88 1.51
-2 -1 9 23.18 1.51
2 1 9 23.14 1.52
2 1 9 23.95 1.48
-2 1 10 8.37 0.72
2 -1 10 7.6 0.73
2 -1 10 7.06 0.69
2 1 10 8.17 0.7
2 1 10 7.86 0.77
-2 -1 10 7.21 0.7
-2 1 11 38 2.42
2 -1 11 42.23 2.44
2 -1 11 42.77 2.44
-2 -1 11 37.25 2.43
2 1 11 40.1 2.44
2 1 11 46.68 2.45
2 -1 12 0.62 0.31
-2 1 12 0.52 0.3
2 1 12 0.43 0.3
2 1 12 0.21 0.32
-2 -1 12 0.65 0.3
-2 1 13 19.49 1.39
-2 1 13 21.45 1.46
2 -1 13 24.83 1.47
-2 -1 13 22.93 1.47
-2 -1 13 20.93 1.37
2 1 13 23.97 1.47
2 1 -14 0.85 0.3
2 -1 14 0.73 0.35
-2 1 14 0.7 0.38
2 -1 14 1.18 0.35
-2 -1 14 0.91 0.36
2 1 14 0.61 0.36
2 1 -15 10.16 0.71
2 -1 15 10.28 0.73
-2 -1 -15 9.76 0.7
2 -1 15 8.18 0.84
-2 1 15 8.72 0.91
-2 1 15 11.33 0.8
-2 -1 15 9.13 0.91
-2 -1 15 11.72 0.77
-2 1 -15 10.22 0.71
2 1 15 9.36 0.72
2 1 -16 -0.12 0.29
2 -1 16 0.41 0.31
-2 1 16 0.98 0.38
-2 -1 -16 0.15 0.3
-2 -1 16 0.83 0.33
-2 1 -16 0.24 0.3
2 1 16 0.38 0.31
2 -1 17 3.38 0.41
2 1 -17 3.73 0.4
-2 -1 -17 3.02 0.4
-2 1 17 3.57 0.41
2 1 17 3.06 0.41
-2 -1 17 3.59 0.42
-2 1 -17 3.56 0.41
2 -1 18 0.77 0.27
-2 1 18 1.22 0.28
2 1 -18 0.93 0.27
-2 -1 18 1.22 0.27
-2 1 -18 0.59 0.29
-2 1 19 0.6 0.24
-2 -1 19 0.84 0.24
-2 1 -19 0.39 0.26
-3 -1 -1 1.92 0.26
-3 -1 -1 1.78 0.21
-3 1 1 1.99 0.2
-3 1 1 1.89 0.2
-3 1 1 2.06 0.25
-3 -1 1 2.03 0.22
3 -1 -1 1.43 0.26
-3 1 -1 1.9 0.29
3 1 1 1.78 0.2
-3 -1 1 2.2 0.24
-3 -1 1 1.96 0.21
-3 1 2 91.08 4.85
-3 1 2 91.57 4.87
-3 1 2 90.14 4.88
3 -1 2 89.29 4.85
-3 -1 -2 86.33 4.9
3 -1 2 84.92 4.88
-3 -1 2 90.78 4.88
-3 1 -2 83.72 4.91
-3 -1 2 86.03 4.86
3 1 2 86.61 4.86
3 -1 -2 73.96 4.86
-3 -1 2 85.44 4.87
-3 1 3 1.7 0.25
-3 -1 -3 1.16 0.25
-3 1 3 1.28 0.26
3 -1 3 1.19 0.27
3 -1 3 1.42 0.2
-3 -1 3 1.25 0.25
-3 -1 3 1.38 0.23
3 1 3 1.34 0.24
-3 1 -3 1.57 0.29
3 1 3 1.11 0.19
3 -1 4 0.7 0.16
-3 1 4 0.71 0.2
-3 -1 -4 0.87 0.25
3 -1 4 0.65 0.2
-3 1 4 0.56 0.21
-3 1 -4 0.51 0.25
-3 -1 4 1.2 0.26
3 1 4 0.54 0.17
-3 -1 4 0.75 0.19
3 1 4 0.75 0.2
-3 -1 4 0.61 0.18
-3 -1 -5 9.92 0.74
3 -1 5 9.33 0.66
-3 1 5 8.74 0.76
3 -1 5 10.29 0.76
-3 1 5 8.27 0.74
3 1 5 9.33 0.71
-3 -1 5 9.23 0.7
3 1 5 10.3 0.73
-3 -1 5 9.83 0.66
-3 1 -5 10.26 0.8
-3 -1 5 9.33 0.77
-3 1 6 4.47 0.43
-3 1 6 3.95 0.79
-3 1 6 4.18 0.63
3 -1 6 3.7 0.69
3 -1 6 4.56 0.48
-3 -1 -6 4.99 0.61
3 1 6 5.05 0.62
3 1 6 4.55 0.49
-3 -1 6 4.73 0.79
-3 1 -6 4.77 0.65
-3 -1 6 5.59 0.49
-3 -1 6 4.09 0.57
3 1 6 3.94 0.63
3 -1 7 11.38 1.21
-3 1 7 11.5 1.4
-3 1 7 13.56 0.9
3 -1 7 12.84 0.88
3 -1 7 10.67 1.04
-3 -1 -7 13.78 1.03
-3 1 7 12.37 1.11
-3 1 -7 14.55 1.08
3 1 7 10.27 1.12
-3 -1 7 11.72 1.07
3 1 7 13.8 0.92
-3 -1 7 13.25 1.37
-3 -1 7 15.03 0.93
3 1 7 12.53 1.14
-3 1 8 4.43 0.91
-3 1 8 2.65 0.82
3 -1 8 3.18 0.56
3 1 8 3.93 0.66
-3 -1 8 3.56 0.68
3 1 8 4.31 0.55
3 -1 9 16.23 1.12
-3 1 9 17.62 1.1
3 -1 9 15.8 1.11
3 1 9 17.04 1.09
3 1 9 16.26 1.15
-3 -1 9 15.91 1.11
3 -1 10 9.95 0.81
-3 1 10 9.92 0.78
3 -1 10 9.17 0.77
-3 -1 10 8.99 0.78
3 1 10 10.32 0.77
3 1 10 9.28 0.82
3 -1 11 1.61 0.32
3 -1 11 1.36 0.32
-3 1 11 1.52 0.3
3 1 11 1.68 0.32
-3 -1 11 1.53 0.3
3 1 11 1.15 0.33
3 -1 12 8.47 0.73
-3 1 12 7.11 0.76
3 -1 12 8.05 0.75
3 1 12 8.12 0.76
-3 -1 12 7 0.77
3 1 12 7.05 0.78
3 -1 13 0.03 0.24
-3 1 13 1.4 0.46
3 -1 13 0.33 0.3
-3 1 13 0.45 0.33
-3 -1 13 1.22 0.44
-3 1 -13 0.77 0.31
3 1 13 0.18 0.31
3 1 13 -0.36 0.32
-3 -1 13 0.39 0.33
-3 1 14 3.19 0.58
-3 -1 14 2.31 0.46
-3 1 -14 1.69 0.37
3 1 -15 2.78 0.43
3 -1 15 2.92 0.44
-3 1 15 4.6 0.58
-3 -1 -15 3.59 0.44
-3 -1 15 4.27 0.53
-3 1 -15 3.46 0.44
-3 -1 -16 1.32 0.32
3 -1 16 1.07 0.33
3 1 -16 0.95 0.31
-3 1 16 1.55 0.38
-3 -1 16 1.5 0.36
-3 1 -16 0.86 0.32
3 1 -17 1.93 0.35
-3 -1 -17 1.9 0.33
3 -1 17 1.28 0.32
-3 1 17 2.19 0.4
-3 -1 17 2.03 0.34
-3 1 -17 1.88 0.36
-3 1 18 0.51 0.26
-3 -1 -18 -0.02 0.26
3 1 -18 0.41 0.24
-3 -1 18 0.49 0.26
-3 1 -18 0.14 0.26
-3 1 19 2.01 0.28
-3 -1 19 2.13 0.28
-3 1 -19 1.54 0.27
-4 1 0 0.06 0.1
-4 -1 0 0.06 0.15
-4 1 0 -0.01 0.14
-4 -1 0 0 0.11
-4 1 0 0.05 0.1
-4 1 1 25.72 1.48
-4 1 1 25.53 1.47
-4 1 1 24.95 1.47
-4 -1 -1 25.31 1.5
-4 -1 -1 24.15 1.48
4 1 1 24.89 1.46
-4 -1 1 25.8 1.47
-4 -1 1 25.27 1.48
-4 -1 1 25.29 1.48
-4 1 2 10.29 0.64
-4 1 2 10.31 0.63
-4 -1 -2 9.49 0.67
-4 1 2 10.38 0.63
4 -1 2 10.03 0.61
-4 -1 2 9.74 0.63
-4 -1 2 9.7 0.64
-4 -1 2 9.32 0.63
4 1 2 9.83 0.62
-4 1 -2 8.81 0.69
-4 1 3 1.1 0.22
-4 -1 -3 1.17 0.26
4 -1 3 1.3 0.18
-4 1 3 0.9 0.19
-4 1 3 0.81 0.15
4 -1 3 1.09 0.23
-4 1 -3 1.16 0.28
-4 -1 3 1.05 0.19
4 1 3 1.15 0.23
-4 -1 3 1.18 0.21
-4 -1 3 0.75 0.16
4 -1 4 0.45 0.19
-4 1 4 0.39 0.18
-4 1 4 0.52 0.23
-4 -1 -4 0.65 0.27
4 -1 4 0.56 0.15
-4 -1 4 0.59 0.19
-4 -1 4 0.39 0.18
4 1 4 0.59 0.19
-4 1 -4 0.53 0.28
-4 -1 4 0.48 0.19
4 1 4 0.49 0.18
-4 1 5 16.97 1.1
-4 1 5 14.77 1.09
-4 -1 -5 16.62 1.12
4 -1 5 15.66 1
4 -1 5 17.27 1.11
4 -1 5 14.54 1.01
4 1 5 16.35 1.05
4 1 5 17.12 1.08
-4 -1 5 15.81 1.1
-4 1 -5 16.9 1.16
-4 -1 5 15.06 1
-4 -1 5 17.13 1.06
4 1 5 15.42 1.01
4 -1 6 0.18 0.24
-4 1 6 0.17 0.37
4 -1 6 -0.24 0.38
-4 1 6 0.33 0.21
-4 1 6 0.67 0.4
-4 -1 -6 0.62 0.38
4 1 6 -0.09 0.33
-4 -1 6 1.17 0.43
-4 -1 6 0.39 0.34
4 1 6 -0.09 0.36
-4 1 -6 0.13 0.4
-4 -1 6 0.85 0.24
4 1 6 0.46 0.23
-4 1 7 0.37 0.25
-4 -1 -7 0.4 0.45
-4 1 7 1.15 0.58
-4 1 7 0.48 0.51
4 -1 7 0.06 0.27
4 1 7 -0.39 0.49
-4 1 -7 0.45 0.49
4 1 7 -0.18 0.45
-4 -1 7 0.32 0.44
-4 -1 7 0.85 0.28
-4 -1 7 1.33 0.57
4 1 7 0.32 0.28
-4 1 8 0.95 0.6
4 -1 8 1.4 0.3
4 -1 8 1.46 0.61
4 1 8 1.36 0.5
-4 -1 8 1.18 0.72
-4 -1 8 0.2 0.53
4 -1 9 1.16 0.3
-4 1 9 1.72 0.29
4 -1 9 1.58 0.32
4 1 9 1.01 0.27
4 -1 10 0.05 0.27
-4 1 10 0.25 0.25
4 -1 10 -0.09 0.26
4 1 10 -0.01 0.24
-4 -1 10 0.13 0.26
4 -1 11 0.68 0.3
4 -1 11 0.56 0.29
-4 1 11 0.79 0.29
-4 -1 11 0.8 0.31
4 1 11 0.73 0.29
-4 1 12 0.1 0.3
4 -1 12 -0.09 0.3
4 -1 12 -0.07 0.32
4 1 12 -0.2 0.29
-4 -1 12 0.07 0.31
4 -1 13 0.59 0.33
-4 1 13 1.72 0.48
4 -1 13 1.08 0.36
-4 1 13 1.01 0.36
-4 1 -13 1.79 0.38
4 1 13 0.78 0.35
-4 -1 13 0.82 0.37
-4 -1 -14 1.66 0.36
4 1 -14 0.94 0.32
-4 1 14 0.4 0.38
4 1 14 0.14 0.31
-4 -1 14 0.39 0.37
-4 1 -14 1.82 0.37
-4 -1 -15 1.66 0.36
4 1 -15 1.24 0.33
-4 1 15 2.32 0.46
-4 1 -15 1.37 0.35
4 -1 -15 1.08 0.31
-4 -1 15 2.39 0.42
-4 -1 -16 0.37 0.3
-4 1 16 0.87 0.37
4 1 -16 0.83 0.29
4 -1 -16 0.23 0.26
-4 1 -16 0.62 0.3
-4 -1 16 0.82 0.34
-4 1 17 1.32 0.34
-4 -1 -17 1.08 0.3
4 1 -17 1.14 0.27
-4 1 -17 1.07 0.3
-4 -1 17 1.15 0.3
-4 -1 -18 0.67 0.26
-4 1 18 1.15 0.27
-4 1 -18 1.04 0.27
-4 -1 18 1.14 0.26
-4 1 19 0.36 0.23
-4 -1 19 0.33 0.21
-4 1 -19 -0.15 0.23
-5 -1 0 7.61 0.56
-5 1 0 8.89 0.54
-5 -1 0 8.38 0.59
-5 1 0 8.02 0.55
-5 1 0 7.57 0.58
-5 1 1 2.48 0.28
-5 -1 -1 2.79 0.29
-5 1 1 2.76 0.27
-5 -1 -1 2.74 0.33
-5 1 1 2.99 0.31
-5 -1 1 2.55 0.28
-5 -1 1 3.01 0.28
-5 1 -1 2.73 0.29
-5 1 -1 2.53 0.34
-5 -1 1 3.02 0.32
-5 -1 -2 3.47 0.34
-5 1 2 3.52 0.33
-5 -1 -2 3.33 0.38
-5 1 2 3.46 0.33
-5 1 2 3.7 0.31
-5 -1 2 3.55 0.33
-5 -1 2 3.26 0.33
5 1 2 3.6 0.31
-5 1 -2 2.94 0.41
-5 -1 2 3.26 0.33
-5 1 3 22.98 1.3
-5 1 3 19.86 1.26
-5 -1 -3 20.44 1.34
-5 1 3 21.3 1.31
5 -1 3 21.57 1.26
-5 -1 3 20.77 1.28
-5 1 -3 21.82 1.38
-5 -1 3 22.57 1.3
5 1 3 21.18 1.27
-5 -1 3 21.62 1.31
5 -1 4 3.58 0.43
-5 1 4 4.11 0.46
-5 1 4 4.75 0.46
5 -1 4 4.65 0.37
-5 -1 -4 4.44 0.55
-5 -1 4 4.54 0.45
-5 -1 4 4.44 0.41
-5 1 -4 3.83 0.58
-5 -1 4 4.68 0.42
5 1 4 4.53 0.42
5 -1 5 13.64 0.92
-5 1 5 15.65 1.04
5 -1 5 13.71 0.96
-5 1 5 12.32 0.87
-5 1 5 13.98 1.02
5 -1 5 14.08 1.04
-5 -1 -5 15.83 1.12
-5 1 -5 15.42 1.17
-5 -1 5 14.97 1
5 1 5 14.78 0.96
-5 -1 5 14.85 1.03
5 1 5 15.07 0.98
5 -1 6 3.38 0.47
-5 -1 -6 5.42 0.76
-5 1 6 4.79 0.48
-5 1 6 4.78 0.71
5 -1 6 3.92 0.58
5 -1 6 4.04 0.73
5 1 6 5.44 0.58
5 1 6 4.26 0.61
5 1 6 3.83 0.7
-5 -1 6 5 0.64
-5 1 -6 5.66 0.82
-5 1 7 15.62 1.33
-5 -1 -7 17.23 1.36
5 -1 7 15.76 1.17
5 -1 7 17.78 1.4
-5 1 7 17.75 1.11
5 1 7 17.96 1.17
-5 -1 7 19 1.15
5 1 7 18.13 1.37
-5 -1 7 18.45 1.5
-5 1 -7 19.71 1.39
-5 -1 7 16.21 1.28
-5 1 8 0.5 0.24
5 -1 8 -0.13 0.25
5 -1 8 -0.08 0.42
5 1 8 0.04 0.21
-5 -1 8 0.71 0.28
5 1 8 0.3 0.39
-5 1 9 5.28 0.55
5 -1 9 4.21 0.57
5 1 9 4.56 0.55
-5 -1 9 5.39 0.58
-5 1 10 1.46 0.29
5 -1 10 1.14 0.3
5 -1 10 0.88 0.31
-5 -1 10 0.99 0.29
5 1 10 0.92 0.28
-5 1 11 0.21 0.28
5 -1 11 0.39 0.29
5 -1 11 -0.15 0.29
-5 -1 11 0.11 0.3
5 1 11 0.07 0.27
-5 1 12 2.12 0.45
-5 1 12 2.76 0.41
-5 -1 12 2.12 0.4
5 1 12 3.33 0.63
-5 -1 -13 1.12 0.41
-5 1 13 2.01 0.48
5 -1 13 0.85 0.37
-5 1 13 0.19 0.35
-5 -1 13 0.09 0.36
5 1 13 0.67 0.36
5 1 -14 1.59 0.33
-5 1 14 2.3 0.47
5 1 14 0.95 0.38
5 -1 -14 1.62 0.33
5 1 14 1.25 0.37
-5 -1 14 0.63 0.39
-5 1 15 1.4 0.43
-5 -1 -15 0.63 0.34
5 -1 15 0.23 0.19
5 1 -15 0.65 0.3
-5 1 -15 0.67 0.33
5 -1 -15 0.17 0.28
5 1 15 0.21 0.33
-5 -1 15 1.33 0.38
-5 1 16 1.13 0.38
-5 -1 -16 1.03 0.32
5 1 -16 0.82 0.29
-5 1 -16 0.77 0.31
-5 -1 16 1.32 0.35
5 1 16 0.51 0.28
5 -1 -16 0.65 0.29
5 1 -17 0.3 0.24
-5 1 17 0.39 0.3
-5 -1 -17 0.13 0.27
-5 1 -17 0.01 0.27
5 -1 -17 0.14 0.2
-5 -1 17 0.3 0.29
-5 -1 -18 0.25 0.26
-5 1 18 0.7 0.25
-5 1 -18 0.32 0.27
-5 -1 18 0.77 0.25
-5 1 19 1.28 0.24
-5 -1 19 1.38 0.25
-5 1 -19 0.76 0.26
-6 1 0 0.06 0.14
-6 -1 0 0.01 0.15
-6 1 0 -0.01 0.18
-6 1 0 -0.07 0.13
-6 -1 0 0.1 0.19
-6 1 1 298.45 15.82
-6 1 1 279.14 15.82
-6 -1 -1 283.12 15.84
-6 -1 -1 273.59 15.85
-6 1 1 284.33 15.83
-6 1 -1 266.78 15.85
-6 -1 1 289.13 15.84
-6 -1 1 295.47 15.83
-6 1 -1 281.26 15.83
-6 -1 1 278.92 15.83
-6 1 2 13.96 0.92
-6 1 2 14.85 0.92
-6 -1 -2 13.84 0.98
-6 -1 -2 14.86 0.94
-6 1 2 14.88 0.93
-6 -1 2 14.39 0.93
-6 1 -2 13.65 0.99
-6 1 -2 14.34 0.94
6 1 2 13.17 0.87
-6 -1 2 14.82 0.93
-6 -1 2 14.56 0.92
-6 1 3 25.85 1.6
-6 -1 -3 27.41 1.71
-6 1 3 26.91 1.65
-6 1 3 28.18 1.65
6 1 3 27.71 1.62
-6 1 -3 27.51 1.75
-6 -1 3 28.17 1.66
-6 -1 3 26.16 1.62
-6 -1 3 29.55 1.65
6 1 3 25.43 1.58
6 -1 4 17.29 1.17
-6 -1 -4 20.16 1.33
-6 1 4 19.09 1.23
-6 1 4 19.77 1.23
6 -1 4 18.6 1.15
-6 -1 4 19.99 1.22
-6 -1 4 17.85 1.17
-6 1 -4 19.39 1.39
6 1 4 19.17 1.18
6 1 4 18.09 1.14
6 1 4 19.05 1.19
-6 -1 4 19.58 1.24
-6 1 5 2.91 0.55
6 -1 5 2.23 0.35
-6 1 5 1.88 0.41
-6 -1 -5 2.34 0.54
6 -1 5 1.63 0.31
-6 1 5 1.76 0.34
-6 -1 5 2.74 0.56
6 1 5 2.11 0.37
-6 1 -5 2.52 0.58
-6 -1 5 2.14 0.4
6 1 5 2.62 0.5
6 -1 6 3.32 0.55
-6 1 6 3.47 0.67
-6 1 6 3.49 0.47
-6 -1 -6 3.8 0.81
-6 1 6 3.44 0.69
-6 -1 6 3.29 0.61
-6 1 -6 3.7 0.8
6 1 6 2.9 0.54
-6 -1 6 4.35 0.51
-6 -1 6 4 0.69
6 1 6 4.22 0.57
6 -1 7 1.57 0.31
6 -1 7 1.67 0.48
-6 1 7 1 0.5
-6 -1 7 1.17 0.53
6 1 7 1.74 0.31
-6 -1 7 1.26 0.47
-6 1 8 33.7 1.96
6 -1 8 31.57 2
6 1 8 34.05 2
-6 -1 8 33.2 1.97
6 -1 9 36.26 2.2
-6 1 9 38.93 2.16
6 1 9 34.47 2.18
-6 -1 9 36.26 2.17
-6 1 10 12.77 0.91
6 -1 10 12.69 0.94
-6 -1 10 11.15 0.89
6 1 10 10.9 0.89
-6 1 11 34.35 2.07
6 -1 11 36.76 2.11
6 1 11 34.05 2.08
-6 -1 11 30.63 2.07
-6 1 12 2.29 0.45
6 -1 12 1.7 0.38
-6 1 12 1.4 0.37
6 1 12 0.9 0.29
6 1 12 1.56 0.37
-6 -1 12 1.04 0.37
6 -1 13 17.55 1.08
6 -1 13 19.38 1.26
-6 -1 -13 15.68 1.07
-6 1 13 16.47 1.14
-6 1 13 14.47 1.22
-6 -1 13 14.43 1.23
-6 1 -13 15.48 1.07
6 1 13 19.35 1.27
-6 -1 13 16.93 1.13
6 1 13 17.72 1.11
6 -1 -13 17.16 1.06
6 1 -14 0.58 0.3
6 1 -14 0.19 0.24
-6 1 14 -0.09 0.38
-6 1 14 1.19 0.43
-6 -1 -14 1.54 0.4
6 -1 14 0.23 0.31
6 -1 14 0.48 0.33
6 -1 -14 0.52 0.3
6 1 14 0.92 0.37
-6 -1 14 1.61 0.43
6 1 14 0.59 0.34
-6 -1 14 -0.37 0.38
6 -1 15 4.44 0.53
6 1 -15 5.03 0.49
-6 -1 -15 5.8 0.52
-6 1 15 5.42 0.6
6 -1 -15 5.18 0.49
-6 1 -15 5.49 0.49
6 1 15 5.04 0.55
-6 -1 15 4.94 0.52
6 1 -16 0.27 0.32
6 1 -16 0.72 0.27
-6 -1 -16 0.77 0.31
-6 1 16 0.57 0.35
6 -1 16 0.11 0.27
-6 -1 16 0.96 0.33
6 1 16 0.01 0.29
-6 1 -16 0.93 0.3
6 -1 -16 0.34 0.27
-6 1 17 1.97 0.34
-6 -1 -17 1.86 0.33
6 -1 -17 1.71 0.3
-6 1 -17 1.84 0.34
6 1 17 1.09 0.24
-6 -1 17 2.08 0.35
-6 1 18 2.26 0.29
-6 -1 -18 1.71 0.3
-6 -1 18 2.37 0.29
-6 1 -18 2.06 0.32
-7 -1 0 22.15 1.42
-7 -1 0 21.01 1.37
-7 -1 0 22.1 1.37
-7 1 0 21.95 1.4
-7 1 0 23.52 1.37
-7 1 0 21.74 1.37
-7 1 1 34.27 2.06
-7 1 1 35.12 2.04
-7 -1 -1 35.18 2.1
-7 -1 -1 34.27 2.06
-7 1 1 32.45 2.03
-7 1 -1 33.55 2.09
-7 -1 1 34.01 2.04
-7 1 -1 33.74 2.05
-7 -1 1 35.73 2.07
-7 -1 1 34.73 2.05
-7 1 -1 36.31 2.03
7 1 1 32.29 1.98
-7 -1 -2 1.8 0.4
-7 1 2 1.15 0.26
-7 1 2 1.3 0.3
-7 -1 -2 1.27 0.26
-7 1 2 1.34 0.24
-7 1 -2 1.28 0.27
-7 -1 2 1.29 0.3
-7 -1 2 1.16 0.27
7 1 2 0.77 0.17
-7 1 -2 1.63 0.4
-7 -1 2 0.89 0.22
-7 1 3 130 7.23
-7 -1 -3 131.76 7.27
7 -1 3 119.22 7.17
-7 1 3 134 7.25
-7 -1 -3 130.3 7.31
-7 1 3 114.89 7.19
-7 -1 3 132.06 7.24
7 1 3 124.03 7.16
-7 -1 3 118.07 7.2
-7 -1 3 133.39 7.25
-7 1 -3 129.13 7.33
-7 1 -3 135.35 7.28
-7 1 4 15.93 1.08
-7 -1 -4 15.85 1.22
7 -1 4 14.2 1.02
-7 1 4 16.17 1.1
-7 -1 4 16.13 1.1
-7 1 -4 15.63 1.29
7 1 4 15.03 1.02
7 1 4 13.68 1.02
-7 -1 4 16.38 1.08
-7 1 5 135.46 8.62
-7 1 5 160.25 8.76
7 -1 5 151.53 8.68
-7 -1 -5 157.64 8.86
-7 1 5 159.4 8.78
-7 -1 5 163.88 8.78
-7 -1 5 167.45 8.77
-7 1 -5 162.17 8.9
7 1 5 139.7 8.69
7 1 5 146.69 8.67
-7 1 6 0.92 0.22
-7 -1 -6 0.65 0.51
-7 1 6 0.47 0.43
7 -1 6 0.67 0.24
-7 -1 6 0.44 0.37
-7 1 -6 0.7 0.54
-7 -1 6 0.81 0.41
7 1 6 0.68 0.27
-7 1 7 115.22 6.1
7 -1 7 107.89 6.14
-7 -1 7 106.07 6.1
7 1 7 103.62 6.14
-7 1 8 1.24 0.26
7 -1 8 0.7 0.28
-7 -1 8 0.97 0.28
7 1 8 0.49 0.26
-7 1 9 67.56 3.7
7 -1 9 64.78 3.74
7 1 9 63.32 3.74
-7 -1 9 62.2 3.71
7 -1 10 1.55 0.33
-7 1 10 1.32 0.32
-7 1 -10 1.6 0.3
7 1 10 1.45 0.33
-7 -1 10 1.13 0.34
7 1 11 2.64 0.43
-7 1 -11 4.16 0.59
-7 1 12 3.32 0.56
7 -1 12 2.46 0.42
7 -1 12 2.31 0.39
7 -1 -12 2.65 0.41
7 1 12 2.63 0.41
7 1 12 1.91 0.4
7 1 -13 2.56 0.4
7 -1 13 1.8 0.37
7 -1 13 1.19 0.4
7 1 -13 1.58 0.33
-7 1 13 2.48 0.5
7 1 13 1.26 0.4
7 1 13 1.71 0.37
7 -1 -13 2.38 0.4
-7 -1 13 2.29 0.48
-7 1 14 1.56 0.43
7 -1 14 0.6 0.34
7 1 -14 1.05 0.31
7 -1 14 1 0.33
7 1 -14 1.34 0.31
7 1 14 1.18 0.39
-7 -1 14 1.27 0.43
7 -1 -14 1.08 0.31
7 1 14 1.13 0.33
-7 -1 -15 2.68 0.42
7 -1 15 1.18 0.33
7 1 -15 1.79 0.32
-7 1 15 2.22 0.42
7 1 -15 1.61 0.32
7 -1 -15 1.54 0.32
-7 -1 15 1.81 0.39
7 1 15 1.11 0.33
-7 -1 -16 3.39 0.4
7 1 -16 2.78 0.38
-7 1 16 3.14 0.46
7 -1 16 2.43 0.42
-7 1 -16 3.48 0.4
7 -1 -16 2.76 0.37
-7 -1 16 3.34 0.42
7 1 16 2.63 0.43
-7 1 17 0.82 0.29
-7 -1 -17 1.02 0.29
7 -1 -17 0.74 0.24
-7 -1 17 1.04 0.27
-7 1 -17 1.07 0.27
7 1 17 0.53 0.25
-7 1 18 0.3 0.23
-7 1 -18 0.06 0.26
-7 -1 18 0.4 0.23
-8 -1 0 0.09 0.24
-8 1 0 -0.11 0.23
-8 -1 0 -0.07 0.2
-8 1 0 0.12 0.22
8 1 0 -0.21 0.18
-8 -1 0 -0.09 0.35
-8 1 0 -0.02 0.33
-8 -1 -1 97.32 5.63
-8 1 1 99.34 5.63
-8 1 1 97.19 5.61
-8 -1 -1 94 5.66
-8 1 1 103.38 5.62
-8 1 -1 99.61 5.63
-8 1 -1 96.36 5.67
-8 1 -1 99.58 5.6
-8 -1 1 105.07 5.63
-8 -1 1 96.58 5.62
8 1 1 93.02 5.53
-8 -1 -2 13.76 0.99
-8 1 2 15.11 0.96
-8 1 2 13.42 0.94
-8 -1 -2 13.08 1.07
-8 1 2 12.14 0.96
-8 1 -2 12.95 1.1
-8 -1 2 14.44 0.97
8 1 2 12.93 0.87
-8 1 -2 11.88 0.9
-8 -1 2 13.4 0.95
-8 -1 2 12.74 0.98
-8 1 -2 14 0.98
-8 -1 -3 29.24 1.95
8 -1 3 28.24 1.77
-8 -1 -3 29.86 1.88
-8 1 3 29.82 1.84
-8 1 3 32.48 1.87
-8 1 -3 30.29 2.01
-8 -1 3 30 1.86
-8 -1 3 30.9 1.86
8 1 3 27.79 1.74
-8 1 -3 29.87 1.89
-8 1 4 5.16 0.65
-8 -1 -4 5.32 0.63
-8 -1 -4 5.49 0.81
-8 1 4 4.95 0.59
8 -1 4 5.04 0.54
8 1 4 4.99 0.55
-8 1 -4 4.27 0.6
-8 -1 4 5.99 0.63
-8 1 -4 6.24 0.92
-8 -1 4 5.4 0.63
-8 1 5 8.76 0.85
-8 -1 -5 9.08 0.84
-8 -1 -5 8.3 0.96
8 -1 5 9.48 0.74
-8 -1 5 9.76 0.84
8 1 5 9.42 0.75
-8 1 -5 9.35 1.09
8 1 6 2.62 0.49
-8 1 7 0.68 0.23
8 -1 7 0.56 0.26
8 1 7 0.57 0.27
-8 -1 7 0.33 0.24
8 -1 8 9.9 0.8
-8 1 8 10.78 0.76
8 1 8 9.84 0.8
-8 -1 8 8.92 0.77
-8 1 9 9.14 0.72
8 -1 9 8.95 0.77
8 1 9 8.45 0.79
-8 -1 9 7.81 0.75
8 -1 10 3.22 0.59
-8 1 10 3.05 0.58
-8 -1 10 2.33 0.4
8 1 10 3.14 0.59
-8 1 11 5.78 0.73
-8 -1 -11 6.6 0.69
8 -1 11 6.28 0.76
8 -1 11 6.37 0.6
8 1 11 5.85 0.62
-8 -1 11 4.92 0.74
8 -1 -11 6.47 0.56
8 1 11 6.26 0.74
-8 1 -11 7.63 0.69
-8 1 12 1 0.43
8 1 -12 0.24 0.29
8 -1 12 0.23 0.34
8 -1 12 0.07 0.33
8 -1 -12 0.69 0.3
8 1 12 0.4 0.34
8 1 12 0.1 0.33
8 1 -13 3.07 0.42
8 -1 13 2.69 0.38
-8 1 13 3.42 0.58
8 1 -13 2.36 0.42
8 -1 13 2.53 0.45
8 1 13 2.61 0.46
8 1 13 2.62 0.38
8 -1 -13 2.96 0.41
-8 -1 13 2.97 0.54
8 1 -14 0.1 0.28
8 1 -14 -0.06 0.3
8 -1 14 -0.32 0.28
8 -1 14 0 0.27
-8 1 14 0.88 0.41
8 1 14 -0.14 0.28
8 1 14 0.23 0.35
8 -1 -14 0.15 0.27
-8 -1 14 0.46 0.4
8 1 -15 0.71 0.27
-8 1 15 1.34 0.4
8 1 -15 0.55 0.27
8 -1 15 0.61 0.3
-8 -1 -15 1.22 0.35
8 1 15 0.62 0.3
-8 -1 15 0.97 0.36
8 -1 -15 0.87 0.28
8 1 -16 0.03 0.19
8 1 -16 0.02 0.23
8 -1 16 0.07 0.26
-8 -1 -16 0.7 0.31
-8 1 16 0.51 0.31
8 1 16 -0.04 0.26
8 -1 -16 0.17 0.24
-8 1 -16 0.83 0.3
-8 -1 16 0.43 0.3
8 -1 17 0.57 0.23
-8 -1 -17 1.08 0.28
-8 1 17 1.05 0.28
-8 -1 17 1 0.27
-8 1 -17 1.22 0.27
8 -1 -17 0.86 0.22
8 1 17 0.81 0.25
-8 1 18 1.03 0.24
-8 1 -18 0.91 0.28
-8 -1 18 0.95 0.23
-9 -1 0 5.1 0.57
-9 1 0 4.9 0.56
-9 -1 0 4.57 0.7
-9 1 0 4.91 0.66
-9 1 0 5.06 0.54
9 1 0 4.98 0.48
-9 -1 0 4.94 0.54
-9 -1 -1 0.35 0.25
-9 -1 -1 0.12 0.38
-9 1 1 0.41 0.26
9 1 -1 0.07 0.18
-9 1 1 0.19 0.22
-9 1 1 -0.32 0.27
-9 -1 -1 0.27 0.26
-9 -1 1 0.39 0.29
-9 1 -1 0.2 0.24
-9 1 -1 0.3 0.41
9 1 1 0.18 0.17
-9 1 -1 0.27 0.26
-9 -1 1 0.18 0.33
-9 -1 1 0.23 0.23
-9 -1 -2 1.26 0.31
-9 -1 -2 0.98 0.44
-9 1 2 1.3 0.33
9 -1 2 1.08 0.21
-9 1 2 1.23 0.29
-9 -1 2 1.32 0.31
-9 1 -2 1.71 0.51
9 1 2 1.34 0.22
-9 -1 2 1.75 0.37
-9 1 -2 0.93 0.3
-9 -1 -3 2.56 0.51
-9 -1 -3 1.91 0.51
-9 1 3 1.99 0.41
9 -1 3 2.46 0.41
-9 -1 3 1.83 0.36
-9 1 -3 2.27 0.57
-9 -1 3 2.79 0.51
-9 1 -3 2.34 0.49
9 1 3 2.1 0.39
9 -1 4 0.49 0.23
-9 -1 -4 -0.64 0.4
-9 1 4 -0.23 0.31
-9 -1 -4 0.24 0.27
-9 1 -4 -0.03 0.48
9 1 4 0.35 0.22
-9 -1 4 -0.35 0.23
-9 1 -4 0.09 0.24
-9 -1 4 0.4 0.33
9 -1 5 1.84 0.3
9 1 5 1.27 0.28
9 -1 6 0.6 0.26
9 1 6 0.44 0.27
-9 1 7 5.47 0.55
9 -1 7 6.27 0.62
9 1 7 6.02 0.65
9 -1 8 -0.06 0.24
-9 1 8 -0.09 0.24
9 1 8 -0.11 0.26
-9 1 9 3.29 0.56
9 -1 9 3.71 0.59
9 1 9 3.62 0.62
-9 1 10 0.17 0.32
9 -1 10 0.4 0.32
9 -1 10 0.6 0.31
9 1 -10 0.71 0.28
9 -1 -10 0.67 0.3
9 1 10 0.47 0.32
9 1 10 0.9 0.35
-9 1 11 -0.19 0.35
9 -1 11 0.47 0.32
9 1 -11 0.46 0.29
9 -1 11 0.58 0.34
9 1 11 0.41 0.33
9 1 11 0.7 0.35
9 -1 -11 0.39 0.3
9 1 -12 0.99 0.3
9 -1 12 0.71 0.36
9 -1 12 1.01 0.32
-9 1 12 1.31 0.43
9 1 -12 0.04 0.29
9 1 12 0.76 0.32
9 -1 -12 0.6 0.3
9 1 12 0.79 0.37
-9 1 13 0.85 0.44
9 -1 13 0.27 0.29
9 1 -13 0.24 0.28
9 -1 13 0.37 0.35
-9 -1 13 0.14 0.39
9 -1 -13 0.34 0.26
9 1 13 0.02 0.35
-9 1 14 0.97 0.39
9 -1 14 -0.04 0.36
9 1 -14 0.28 0.28
9 -1 14 0.53 0.29
9 1 -14 0.93 0.28
9 -1 -14 0.7 0.27
9 1 14 0.11 0.28
-9 -1 14 0.8 0.39
9 1 14 0.5 0.29
9 1 -15 0.12 0.25
-9 1 15 0.61 0.36
9 1 -15 0.17 0.22
9 -1 15 0.14 0.26
-9 -1 -15 0.98 0.34
-9 1 -15 0.63 0.33
-9 -1 15 0.37 0.32
9 -1 -15 -0.09 0.24
-9 -1 15 0.27 0.33
9 1 15 0.11 0.27
-9 -1 -16 0.45 0.27
-9 1 16 0.46 0.3
9 -1 16 0.13 0.24
9 1 -16 0.24 0.23
-9 1 -16 0.47 0.27
9 1 16 0 0.24
-9 -1 16 0.11 0.29
9 -1 -16 0.21 0.23
-9 1 17 0.12 0.24
9 -1 17 0.03 0.22
-9 -1 -17 -0.14 0.26
-9 -1 17 -0.13 0.22
-9 1 -17 0.07 0.24
9 -1 -17 -0.03 0.19
9 1 17 -0.16 0.22
10 1 0 0.07 0.16
-10 -1 0 -0.03 0.2
10 -1 3 28.59 1.61
10 1 3 24.5 1.59
10 -1 4 5.79 0.55
10 1 4 5.4 0.55
10 -1 5 2.63 0.47
10 1 5 2.6 0.49
10 -1 6 1.65 0.3
10 1 6 1.63 0.32
10 -1 7 3.07 0.56
10 1 7 3.34 0.59
10 -1 8 4.76 0.64
10 1 8 4.9 0.68
10 -1 9 5.3 0.68
10 -1 9 4.75 0.56
10 1 -9 4.97 0.48
10 1 9 4.33 0.69
10 1 9 4.72 0.56
10 -1 -9 4.95 0.5
10 -1 10 1.47 0.39
10 1 -10 1.29 0.32
10 -1 10 1.4 0.35
10 1 10 1.25 0.36
10 -1 -10 0.8 0.31
10 1 10 1.36 0.39
10 -1 11 9.38 0.91
10 1 -11 8 0.66
10 -1 11 8.3 0.7
-10 -1 -11 10.08 0.83
10 1 11 8.34 0.7
10 -1 -11 7.7 0.66
-10 1 -11 9.13 0.81
10 1 11 8.75 0.93
-10 1 12 0.37 0.41
10 1 12 0.2 0.36
10 1 12 0.15 0.31
10 1 -13 8.46 0.67
10 1 -13 8.27 0.64
10 -1 13 9.78 0.88
-10 1 13 7.6 0.72
10 -1 13 8.79 0.68
-10 1 -13 9.95 0.75
10 1 13 9.25 0.86
10 1 13 9.22 0.7
10 -1 -13 8.06 0.64
10 1 -14 0.33 0.26
-10 1 14 0.67 0.37
10 1 -14 0.41 0.26
10 -1 14 0.37 0.27
10 -1 -14 0.28 0.25
10 1 14 0.34 0.27
-10 -1 14 -0.15 0.35
10 1 -15 5.03 0.42
10 -1 15 4.8 0.46
-10 -1 -15 5.34 0.49
-10 1 15 4.07 0.48
10 1 15 4.59 0.48
-10 -1 15 3.59 0.45
10 -1 -15 5.09 0.42
-10 1 -15 4.99 0.45
-10 -1 15 5.08 0.47
10 -1 16 0.75 0.25
10 1 -16 0.92 0.22
-10 1 16 1.02 0.29
-10 -1 -16 0.87 0.28
10 1 16 0.9 0.25
-10 1 -16 1.4 0.3
10 -1 -16 0.94 0.23
-10 -1 -17 1.73 0.29
10 -1 17 1.93 0.27
-10 1 -17 1.72 0.29
10 -1 -17 1.24 0.23
10 1 17 1.72 0.28
11 -1 4 3.33 0.47
11 1 4 3.55 0.47
11 -1 5 13.57 0.95
11 1 5 13.12 0.96
11 -1 6 0.14 0.26
11 1 6 0.24 0.27
11 -1 8 0.57 0.32
11 1 -8 0.84 0.29
11 -1 8 0.76 0.31
11 1 8 0.47 0.33
11 -1 -8 0.78 0.3
11 1 8 0.32 0.24
11 -1 9 17.43 1.24
11 1 -9 16.13 1.07
11 -1 9 16.77 1.1
11 1 9 16.42 1.12
11 1 9 17.4 1.26
11 -1 -9 16.1 1.07
11 -1 10 1.28 0.4
11 1 -10 1.38 0.32
11 -1 10 2.17 0.39
11 1 10 1.56 0.43
11 -1 -10 1.9 0.36
11 1 10 1.73 0.38
-11 1 -10 1.83 0.41
11 1 -11 3.48 0.43
11 -1 11 5.82 0.79
11 1 -11 4.33 0.55
11 -1 11 5.26 0.56
11 1 11 4.78 0.57
11 -1 -11 3.93 0.47
11 1 11 5.97 0.8
11 -1 12 3.11 0.47
11 1 -12 2.42 0.37
11 -1 12 2.41 0.43
11 1 -12 2.58 0.42
11 -1 -12 2.42 0.4
11 1 12 2.57 0.45
11 1 12 2.99 0.48
11 1 -13 2.34 0.39
-11 1 13 1.45 0.42
11 -1 13 2.52 0.34
11 1 -13 2.49 0.37
11 1 13 2.35 0.35
11 -1 -13 2.7 0.37
-11 1 14 0.04 0.35
11 1 -14 0.44 0.25
11 -1 14 0.36 0.25
11 1 -14 0.22 0.2
11 1 14 0.55 0.26
11 -1 -14 0.35 0.24
-11 1 -14 0.87 0.37
11 1 -15 1.32 0.26
11 -1 15 1.44 0.27
-11 -1 -15 1.79 0.34
-11 1 15 0.84 0.32
11 -1 -15 1.31 0.24
-11 1 -15 2 0.33
11 1 15 1.46 0.26
-11 -1 15 1.84 0.34
11 1 -16 0.25 0.19
11 -1 16 0.39 0.22
-11 -1 -16 0.54 0.27
11 -1 -16 0.45 0.21
11 1 16 0.47 0.22
-11 1 -16 0.79 0.27
11 -1 -16 0.43 0.14
12 1 4 3.84 0.45
12 -1 5 2.06 0.35
12 1 5 2.2 0.35
12 -1 6 4.63 0.66
12 1 -6 4.78 0.46
12 1 -6 3.81 0.36
12 1 6 4.64 0.67
12 -1 -6 4.13 0.35
12 -1 7 0.22 0.21
12 1 -7 0.55 0.28
12 -1 7 0.34 0.33
12 -1 -7 0.61 0.3
12 -1 -7 0.24 0.2
12 1 7 0.68 0.36
12 1 -8 3.13 0.43
12 -1 8 3.06 0.53
12 -1 8 2.76 0.46
12 1 8 2.37 0.47
12 -1 -8 3.18 0.45
12 1 8 2.93 0.5
12 1 -9 3.56 0.46
12 -1 9 2.62 0.47
12 -1 9 3.13 0.52
12 1 9 3.24 0.56
12 -1 -9 3.52 0.48
12 1 9 3.22 0.52
12 -1 10 0.98 0.41
12 1 -10 0.58 0.36
12 -1 10 0.96 0.34
12 1 -10 0.69 0.28
-12 1 -10 1.01 0.4
12 1 10 0.94 0.42
12 1 10 0.69 0.35
12 -1 -10 0.93 0.31
12 -1 11 6.22 0.58
12 1 -11 5.73 0.6
12 -1 11 5.96 0.8
12 1 -11 5.04 0.51
12 1 11 6.08 0.6
12 1 11 6.13 0.79
12 -1 -11 5.6 0.54
12 1 -12 0.06 0.24
12 -1 12 0.08 0.26
12 1 -12 -0.04 0.3
12 -1 12 -0.13 0.3
-12 1 -12 1.43 0.52
12 -1 -12 0.15 0.25
12 1 12 -0.06 0.3
12 1 12 0.03 0.28
12 1 -13 4.95 0.45
12 -1 13 4.64 0.47
-12 1 -13 4.98 0.58
12 -1 -13 4.8 0.45
12 -1 -13 4.72 0.38
12 1 13 4.79 0.5
12 1 -14 0.26 0.22
12 -1 14 0.14 0.22
12 -1 -14 0.08 0.16
12 1 14 0.32 0.23
-12 -1 14 0.84 0.3
12 -1 -14 0.06 0.21
-12 1 -14 0.67 0.32
-12 -1 -15 2.37 0.37
12 1 -15 2.61 0.24
12 -1 15 2.33 0.33
12 1 -15 2.28 0.29
12 -1 -15 2.56 0.24
12 1 15 2.51 0.34
-12 1 -15 2.62 0.37
12 -1 -15 2.39 0.3
-12 -1 15 3.03 0.37
12 1 -16 0.32 0.15
-12 -1 -16 0.04 0.29
12 -1 16 0.05 0.19
12 -1 -16 -0.01 0.18
12 -1 -16 0.29 0.1
-12 1 -16 0.16 0.25
12 1 16 0.08 0.2
13 -1 -2 0.08 0.11
13 1 -3 0.12 0.11
13 -1 -3 0.13 0.14
13 1 -4 0.47 0.24
13 1 -4 0.02 0.16
13 -1 -4 0.24 0.15
13 1 -5 -0.11 0.18
13 1 -5 0.6 0.27
13 -1 -5 0.44 0.26
13 1 5 0.01 0.21
13 -1 -5 0.26 0.16
13 1 -6 0.42 0.27
13 1 -6 0.17 0.24
13 1 -6 -0.13 0.19
13 -1 -6 0.34 0.27
13 1 6 0.05 0.32
13 -1 -6 -0.15 0.18
13 1 -7 -0.02 0.21
13 -1 7 0.28 0.3
13 1 -7 0.18 0.27
13 1 -7 0.1 0.26
13 1 7 0.22 0.26
13 -1 -7 0.34 0.31
13 1 7 0.05 0.36
13 -1 -7 -0.06 0.19
13 1 -8 -0.22 0.32
13 1 -8 -0.41 0.21
13 -1 8 -0.19 0.32
13 1 -8 0 0.27
13 -1 -8 0.04 0.3
13 1 8 0.09 0.38
13 1 8 0 0.34
13 -1 -8 -0.37 0.21
13 -1 9 0.2 0.33
13 1 -9 -0.14 0.32
13 1 -9 -0.01 0.28
13 1 -9 -0.34 0.24
13 -1 -9 0 0.22
13 1 9 0.18 0.35
13 1 9 0.01 0.39
13 -1 -9 0.12 0.29
13 1 -10 -0.09 0.34
13 1 -10 -0.23 0.23
13 1 -10 0 0.28
13 -1 10 0.39 0.31
13 1 10 0.05 0.36
13 1 10 0.03 0.32
13 -1 -10 0.14 0.28
13 -1 -10 -0.28 0.23
13 1 -11 0.18 0.32
13 -1 11 0.05 0.28
-13 1 -11 2.18 0.59
13 -1 -11 -0.09 0.22
13 1 11 0.14 0.3
13 -1 -11 0.19 0.28
13 -1 12 0.11 0.25
13 1 -12 0.14 0.19
13 1 -12 0.15 0.24
13 1 -12 0.34 0.25
13 1 12 0.4 0.28
13 -1 -12 0.32 0.26
13 -1 -12 0 0.19
-13 1 -12 1.23 0.48
13 1 -13 -0.08 0.22
13 1 -13 -0.06 0.16
13 -1 13 0 0.23
13 -1 -13 -0.12 0.22
-13 1 -13 0.62 0.38
13 1 13 -0.01 0.24
13 -1 -13 -0.14 0.17
-13 -1 13 0.97 0.3
13 1 -14 0.23 0.22
13 1 -14 0.28 0.15
13 -1 14 0.13 0.21
-13 -1 -14 0.77 0.32
-13 1 -14 0.53 0.3
13 -1 -14 0.25 0.21
13 1 14 0.06 0.22
13 -1 -14 0.23 0.15
13 1 -15 0.05 0.13
-13 1 15 0.37 0.24
13 -1 15 0.05 0.23
-13 -1 -15 -0.21 0.26
13 1 -15 -0.24 0.19
13 -1 -15 -0.21 0.2
13 -1 -15 0.12 0.13
13 1 15 -0.04 0.21
-13 1 -15 -0.25 0.25
-13 -1 15 0.17 0.22
14 -1 0 -0.19 0.16
14 1 0 0.13 0.22
14 1 0 0.14 0.17
14 -1 1 60.6 3.46
14 1 -1 60.94 3.45
14 -1 -1 65.58 3.46
14 1 1 58.51 3.48
14 -1 2 2.44 0.27
14 1 -2 2.03 0.25
14 1 2 2.81 0.34
14 -1 -2 2.13 0.26
14 1 -3 18.42 1.11
14 -1 3 18.65 1.12
14 -1 -3 19.7 1.11
14 1 -4 0.02 0.17
14 1 -4 0.14 0.21
14 -1 -4 0.47 0.28
14 -1 -4 0.02 0.17
14 1 -5 2.57 0.3
14 1 -5 2.8 0.38
14 -1 -5 2.86 0.29
14 1 -6 0.35 0.3
14 1 -6 0.14 0.19
14 -1 -6 0.13 0.19
14 -1 7 0.32 0.33
14 1 -7 -0.08 0.31
14 1 -7 0.81 0.3
14 1 -7 0.18 0.21
14 -1 -7 0.34 0.31
14 1 7 0.35 0.25
14 -1 -7 0.33 0.21
14 -1 8 1.26 0.36
14 1 -8 1.15 0.26
14 1 -8 0.91 0.35
14 -1 -8 1.33 0.25
14 -1 -8 1.21 0.33
14 1 8 1.37 0.37
14 -1 9 2.38 0.4
14 1 -9 3.02 0.33
14 1 -9 2.35 0.43
14 1 -9 1.79 0.4
14 -1 -9 3 0.31
14 1 9 1.93 0.4
14 -1 -9 2.24 0.43
14 1 -10 1.08 0.29
14 1 -10 0.94 0.25
14 1 -10 0.62 0.34
14 -1 10 0.92 0.32
14 -1 -10 1.32 0.32
14 1 10 1.34 0.35
14 -1 -10 0.41 0.23
14 1 -11 2.61 0.37
14 1 -11 2.4 0.34
-14 -1 -11 3.43 0.6
14 -1 11 2.58 0.43
14 1 -11 1.99 0.33
-14 1 -11 3.07 0.59
14 -1 -11 2.64 0.4
14 1 11 3.03 0.38
14 -1 -11 2.27 0.31
14 -1 12 0.08 0.24
14 1 -12 0.19 0.24
14 1 -12 0.03 0.17
-14 1 -12 1.05 0.43
14 -1 -12 -0.02 0.23
14 1 12 0.1 0.25
14 -1 -12 -0.03 0.17
14 -1 13 2.25 0.35
14 1 -13 1.95 0.31
-14 -1 -13 3.07 0.41
14 1 -13 2.1 0.27
-14 1 -13 3.21 0.44
14 -1 -13 2.21 0.32
14 1 13 2.4 0.37
14 -1 -13 2.48 0.25
14 -1 14 0.31 0.22
14 1 -14 0.23 0.23
-14 -1 -14 0.54 0.29
14 1 -14 0.49 0.14
-14 1 -14 0.36 0.28
14 -1 -14 0.23 0.22
14 -1 -14 0.33 0.14
14 1 14 0.35 0.23
15 1 0 0.31 0.17
15 -1 0 0.32 0.16
15 -1 0 0.53 0.23
15 1 0 0.79 0.22
15 -1 1 7.06 0.46
15 1 -1 6.51 0.45
15 1 -1 5.81 0.49
15 1 1 6.31 0.5
15 -1 -1 5.43 0.44
15 1 1 6.78 0.46
15 1 -2 5.82 0.43
15 -1 2 6.12 0.44
15 1 -2 5.77 0.5
15 -1 -2 5.99 0.43
15 1 2 6.32 0.44
15 1 -3 33.27 2.01
15 1 -3 35.71 1.97
15 -1 -3 34.34 1.97
15 1 -4 11.31 0.72
15 1 -4 11.91 0.79
15 -1 -4 11.67 0.72
15 1 -5 36.57 2.1
15 1 -5 32.4 2.04
15 -1 -5 38.6 2.05
15 1 -6 2.5 0.31
15 1 -6 2.81 0.41
15 -1 -6 3.04 0.32
15 -1 7 31.66 1.86
15 1 -7 29.37 1.86
15 1 -7 31.96 1.81
15 -1 -7 31.61 1.87
15 -1 -7 31.53 1.81
15 1 -8 0.16 0.31
15 1 -8 0.4 0.31
15 -1 8 0.19 0.32
15 1 -8 0.27 0.22
15 1 8 0.65 0.34
15 -1 -8 0.48 0.31
15 -1 -8 0.08 0.2
15 1 -9 16.55 0.95
15 1 -9 14.21 0.99
15 -1 9 16.38 1.02
15 1 -9 15.04 1
15 1 9 16.23 1.04
15 -1 -9 15.68 0.94
15 -1 -9 14.78 0.99
-15 1 -9 12.68 1.11
15 -1 10 0.65 0.3
15 1 -10 1.21 0.31
15 1 -10 0.96 0.22
15 1 -10 0.8 0.28
15 1 10 0.92 0.32
15 -1 -10 1.14 0.31
15 -1 -10 0.72 0.21
15 -1 11 3.4 0.44
15 1 -11 3.39 0.33
15 1 -11 2.94 0.4
-15 -1 -11 4.19 0.61
15 1 11 2.81 0.45
-15 -1 11 3.91 0.44
-15 1 -11 4.7 0.61
15 -1 -11 2.95 0.41
15 -1 -11 3.16 0.32
15 -1 12 3.93 0.43
-15 -1 -12 5.09 0.5
15 1 -12 4.19 0.34
15 -1 -12 3.69 0.4
-15 -1 12 4.93 0.47
-15 1 -12 4.43 0.49
15 -1 -12 4.22 0.33
15 1 12 4.1 0.44
-15 -1 -13 1.87 0.34
15 -1 13 1.17 0.26
15 1 -13 1.52 0.2
15 -1 -13 1.01 0.17
-15 1 -13 1.75 0.34
15 1 13 0.88 0.26
15 -1 -13 1.08 0.26
16 1 0 0.11 0.22
16 1 0 0.2 0.17
16 -1 0 0.14 0.16
16 1 -1 19.11 1.11
16 1 -1 18.35 1.05
16 -1 1 16.6 1.05
16 1 1 19.49 1.06
16 -1 -1 15.79 1.05
16 -1 -1 17.82 1.1
16 1 -2 0.37 0.23
16 1 -2 0.34 0.16
16 -1 -2 0.4 0.22
16 -1 -2 0.24 0.16
16 1 -3 6.58 0.45
16 1 -3 6.97 0.53
16 -1 -3 5.77 0.5
16 -1 -3 7.21 0.46
16 1 -4 14.03 0.91
16 1 -4 13.52 0.84
16 -1 -4 14.16 0.85
16 1 -5 0.54 0.18
16 1 -5 0.81 0.28
16 -1 -5 0.63 0.18
16 1 -6 12.29 0.75
16 1 -6 11.2 0.81
16 -1 -6 11.84 0.74
16 1 -7 2.41 0.33
16 1 -7 2.47 0.42
16 -1 -7 2.28 0.3
16 -1 8 6.66 0.58
16 1 -8 6.69 0.57
16 1 -8 7.36 0.5
16 -1 -8 6.86 0.49
-16 -1 8 5.17 0.61
16 1 -9 9.05 0.55
-16 -1 -9 7.89 0.81
16 -1 9 7.02 0.63
-16 1 -9 7.57 0.77
16 1 9 7.6 0.64
16 -1 -9 8.37 0.54
-16 -1 9 7.42 0.65
16 -1 10 2.36 0.43
-16 -1 -10 3.97 0.61
16 1 -10 2.64 0.3
-16 1 -10 3.2 0.55
-16 -1 10 2.72 0.42
16 1 10 2.32 0.37
16 -1 -10 2.47 0.29
16 1 -11 8.37 0.52
-16 -1 -11 7.33 0.64
16 -1 11 7.55 0.59
-16 1 11 7.43 0.59
16 1 11 7.73 0.6
16 -1 -11 8.45 0.51
-16 -1 11 7.53 0.58
-16 1 -11 7.28 0.64
16 -1 12 0.55 0.25
-16 -1 -12 0.61 0.34
16 1 -12 0.37 0.15
16 -1 -12 0.36 0.15
16 1 12 0.31 0.26
-16 1 -12 0.94 0.34
17 -1 0 0.29 0.16
17 1 0 0.47 0.18
17 1 -1 0.4 0.23
17 1 -1 0.02 0.16
17 -1 -1 0.15 0.15
17 1 1 0.48 0.18
17 1 -2 0.72 0.18
17 1 -2 0.82 0.24
17 -1 -2 0.58 0.23
17 -1 -2 0.54 0.17
17 1 -3 1.24 0.27
17 1 -3 1.08 0.19
17 -1 -3 1.02 0.18
17 -1 -3 0.86 0.24
17 1 -4 0.04 0.24
17 1 -4 0.11 0.16
17 -1 -4 -0.1 0.19
17 -1 -4 0.23 0.16
17 1 -5 0.29 0.25
17 1 -5 0.13 0.16
17 -1 -5 0.26 0.16
17 1 -6 0.21 0.26
17 1 -6 0.13 0.17
17 -1 -6 0.09 0.15
17 1 -7 0.48 0.18
17 1 -7 0.53 0.27
17 -1 -7 0.48 0.17
-17 1 8 0.23 0.27
17 1 -8 0.83 0.19
17 -1 -8 0.88 0.18
-17 1 -8 1.13 0.52
-17 -1 8 0.39 0.29
17 1 -9 0.22 0.17
-17 1 9 0.13 0.26
-17 -1 -9 1.72 0.52
-17 -1 9 0.2 0.29
-17 1 -9 0.75 0.47
17 -1 -9 0.19 0.16
-17 1 10 0.57 0.25
17 1 -10 0.58 0.17
-17 1 -10 1.6 0.4
-17 -1 10 0.68 0.28
17 -1 -10 0.55 0.17
-17 -1 -11 0.53 0.35
-17 1 11 0.55 0.24
17 1 -11 0.19 0.15
-17 1 -11 1.02 0.33
-17 -1 11 0.55 0.24
17 -1 -11 0.11 0.15
18 1 0 0.24 0.16
18 1 -1 4.13 0.35
18 -1 -1 4.41 0.35
18 1 -2 0.6 0.17
18 -1 -2 0.44 0.16
18 1 -3 0.33 0.16
18 1 -3 0.52 0.24
18 -1 -3 0.64 0.16
18 1 -4 0.24 0.23
18 1 -4 0.29 0.16
18 -1 -4 0.25 0.15
18 1 -5 0.05 0.23
18 1 -5 0.13 0.16
18 -1 -5 0.19 0.15
18 1 -6 0.13 0.23
18 1 -6 0.3 0.16
18 -1 -6 0.3 0.16
18 1 -7 0.25 0.16
18 -1 -7 0.2 0.16
-18 1 -7 -0.33 0.43
-18 -1 -8 0.94 0.44
18 1 -8 0.36 0.16
-18 1 -8 0.21 0.44
18 -1 -8 0.21 0.17
18 1 -9 1.5 0.2
-18 -1 -9 1.78 0.42
-18 1 -9 1.39 0.41
18 -1 -9 1.73 0.25
19 1 -2 0.85 0.17
19 -1 -2 0.87 0.17
19 1 -3 8.22 0.54
19 -1 -3 8.54 0.54
19 1 -4 0.26 0.15
19 -1 -4 0.24 0.15
19 1 -5 13.11 0.8
19 -1 -5 13.3 0.8
19 1 -6 0.06 0.15
19 -1 -6 0.02 0.16
-19 1 -6 -0.56 0.36
19 1 -7 11.87 0.74
19 -1 -7 12.44 0.75
20 1 -4 1.65 0.2
0 -2 0 116.86 6.83
0 -2 0 125.3 6.81
0 2 0 121.04 6.83
0 2 0 125.91 6.81
0 2 0 123.12 6.81
0 -2 0 121.74 6.81
0 -2 -1 20.12 1.21
0 -2 1 21.86 1.25
0 2 1 21.19 1.23
0 -2 -1 20.68 1.24
0 2 -1 21.28 1.26
0 -2 1 22.22 1.21
0 -2 -1 21.71 1.23
0 2 1 23.24 1.21
0 2 1 22.4 1.23
0 2 -1 23.32 1.25
0 -2 1 18.6 1.25
0 2 -2 59.68 4.17
0 2 2 73.43 4.16
0 2 -2 78.38 4.13
0 -2 2 81.07 4.13
0 2 2 77.93 4.14
0 -2 2 73.74 4.18
0 2 2 76.63 4.14
0 2 -2 69.43 4.19
0 -2 -2 74.68 4.13
0 -2 3 17.52 1.15
0 2 -3 21.29 1.14
0 2 3 20.34 1.14
0 -2 -3 20.37 1.13
0 -2 3 19.31 1.23
0 2 3 18.46 1.2
0 2 3 19.83 1.2
0 -2 -4 167.5 8.72
0 -2 4 169.57 8.78
0 2 4 163.44 8.78
0 2 4 151.82 8.78
0 -2 4 128.51 8.74
0 -2 5 13.79 1.03
0 -2 -5 17.32 0.96
0 2 5 17.65 1.09
0 2 5 15.05 1.07
0 -2 -6 11.89 0.71
0 2 6 10.61 0.9
0 -2 6 10.3 0.86
0 -2 6 10.24 1.12
0 -2 6 9.8 0.77
0 2 6 13.03 0.96
0 -2 7 69.44 4.52
0 2 7 91.66 4.71
0 -2 7 82.63 4.83
0 -2 7 78.52 4.62
0 2 7 82.38 4.67
0 2 7 74.98 4.5
0 2 8 11.87 0.84
0 -2 8 9.27 1.55
0 -2 8 12.11 0.91
0 2 8 10.34 1.24
0 2 8 9.08 1.19
0 2 9 14.97 1.1
0 -2 9 18.93 1.21
0 2 9 19.54 1.17
0 -2 9 16.76 1.73
0 2 10 12.99 1.02
0 -2 10 17.22 1.1
0 2 10 16.91 1.08
0 -2 11 3.03 0.53
0 2 11 3.07 0.59
0 2 12 34.01 2.16
0 -2 12 36.92 2.15
0 2 13 1.61 0.39
0 -2 13 2.51 0.41
0 -2 13 1.8 0.36
0 2 14 14.24 1.05
0 -2 14 16.73 1.01
0 2 -14 14.38 0.96
0 -2 14 16.79 1.14
0 2 14 14.29 1.15
0 2 15 3.14 0.53
0 2 -15 1.89 0.35
0 -2 15 2.5 0.44
0 -2 16 2.57 0.43
0 2 -16 2.52 0.41
0 2 16 3.22 0.46
0 -2 17 6.07 0.51
0 2 -17 6.01 0.49
0 2 17 5.52 0.52
0 2 -18 0.8 0.28
0 2 18 0.88 0.28
0 -2 18 0.71 0.26
0 -2 19 3.56 0.32
0 2 19 2.65 0.34
0 2 -19 3.78 0.35
1 -2 0 0.06 0.12
1 2 0 0.04 0.06
-1 -2 0 0.02 0.07
-1 2 0 -0.09 0.07
1 2 0 0.04 0.06
-1 -2 0 0 0.05
-1 2 0 -0.07 0.12
1 2 0 0 0.12
1 -2 0 0.11 0.07
1 -2 0 0.07 0.04
-1 -2 0 0.04 0.09
1 -2 1 121.79 7.04
-1 -2 -1 124.63 7.05
-1 2 1 142.73 7.02
1 2 -1 120.67 7.06
1 -2 1 121.7 7.07
-1 -2 -1 118.51 7.04
-1 2 1 129.44 7.04
-1 -2 -1 135.03 7.04
1 2 -1 130.21 7.05
-1 -2 1 125.29 7.05
1 -2 -1 121.4 7.04
-1 -2 1 129.59 7.05
-1 -2 1 135.8 7.03
1 -2 -1 133.06 7.02
-1 2 -1 119.06 7.07
1 2 1 123.75 7.05
1 -2 -1 108.16 7.05
1 2 1 129.67 7.04
-1 -2 -2 4.79 0.36
1 -2 2 4.93 0.47
-1 2 2 4.17 0.4
-1 2 2 4.46 0.4
1 -2 2 4.15 0.45
1 2 -2 4.41 0.47
-1 2 2 5.28 0.31
-1 -2 -2 3.88 0.37
-1 2 -2 5.28 0.31
-1 -2 2 5.13 0.39
-1 -2 2 5.04 0.32
-1 -2 2 4.88 0.4
1 2 2 5.3 0.38
1 -2 -2 4.37 0.33
1 2 2 4.68 0.35
1 2 2 4.69 0.39
1 -2 -2 4.76 0.36
1 -2 3 92.8 5.09
-1 -2 -3 95.82 5.1
1 -2 3 82.19 5.16
1 -2 3 92.23 5.14
-1 -2 3 96.53 5.1
1 2 3 96.21 5.1
1 2 3 93.3 5.12
-1 -2 3 95.09 5.12
-1 -2 3 83.15 5.14
-1 2 -3 80 5.07
-1 -2 -4 28.2 1.59
1 -2 4 26.91 1.71
1 -2 4 25.08 1.6
-1 2 4 22.82 1.62
1 2 4 29.78 1.62
-1 -2 4 29.99 1.64
1 2 4 27.73 1.63
-1 -2 4 26.61 1.6
1 -2 5 68.08 3.89
-1 -2 -5 75.66 3.87
-1 2 5 59.12 3.92
-1 2 5 62.26 3.91
1 -2 5 67.43 3.99
1 2 5 68.59 3.92
1 2 5 77.65 3.92
-1 -2 5 71.09 3.89
-1 -2 5 62.56 3.88
1 -2 6 50.24 2.92
-1 -2 -6 49.99 2.72
-1 2 6 45.66 2.81
-1 2 6 48.56 2.85
1 -2 6 46.06 2.78
-1 -2 6 42.26 2.76
1 2 6 49.69 2.81
-1 -2 6 39.57 2.69
-1 -2 6 52.08 2.76
1 -2 7 11.92 1.09
-1 2 7 13.36 1.24
-1 2 7 13.53 0.87
1 -2 7 14.03 0.95
1 -2 7 12.02 1.44
-1 2 7 13.16 1.16
1 2 7 12.75 1.11
1 2 7 12.08 1.12
-1 -2 7 13.79 0.96
1 2 7 12.35 0.87
-1 -2 7 13.37 1.06
-1 2 8 30.01 2.06
-1 2 8 32.7 2.18
1 -2 8 30.15 2.3
-1 2 8 31.58 1.8
1 -2 8 30.57 1.83
1 2 8 31.97 2.03
-1 -2 8 24.87 1.96
-1 -2 8 28.36 1.83
-1 -2 8 33.75 2.52
1 2 8 26.06 2.03
1 2 8 29.58 1.81
1 2 8 31.25 1.8
1 -2 9 3.79 0.63
-1 2 9 4.01 0.6
1 2 9 4.06 0.66
-1 -2 9 2.95 0.61
1 -2 10 9.47 0.78
-1 2 10 10.21 0.8
1 2 10 9.07 0.79
-1 -2 10 9.11 0.81
1 2 10 10.1 0.77
-1 2 11 9.97 0.81
1 -2 11 9.72 0.79
1 2 11 9.48 0.75
1 2 11 9.26 0.84
-1 -2 11 8.84 0.78
-1 2 12 0.81 0.32
1 -2 12 0.77 0.3
-1 -2 12 0.48 0.3
1 2 12 0.3 0.27
1 2 12 0.54 0.33
1 -2 13 4.62 0.64
-1 2 13 3.73 0.7
-1 -2 13 4.19 0.61
1 2 13 3.6 0.68
-1 -2 13 4.26 0.56
1 2 -14 3.25 0.41
1 -2 14 2.01 0.39
-1 2 14 1.43 0.43
-1 -2 14 2.32 0.42
1 2 -15 3.02 0.41
-1 2 15 3.53 0.56
1 -2 15 3.48 0.46
1 2 15 3.66 0.52
-1 2 -15 2.59 0.43
-1 -2 15 3.85 0.49
1 2 -16 0.57 0.3
-1 2 16 1.1 0.39
1 -2 16 0.62 0.31
1 2 16 1.16 0.36
-1 2 -16 0.61 0.3
-1 -2 16 1.23 0.33
1 -2 17 0.84 0.29
1 2 -17 0.52 0.29
-1 2 17 1.06 0.32
-1 2 -17 0.51 0.3
-1 -2 17 0.75 0.3
1 2 17 0.67 0.31
1 -2 18 0.73 0.26
-1 2 18 0.94 0.28
1 2 -18 0.66 0.27
1 2 18 0.69 0.27
-1 2 -18 0.71 0.28
-1 -2 18 0.91 0.26
-1 2 19 0.2 0.24
1 -2 19 0.19 0.23
1 2 -19 0.27 0.24
-1 -2 19 0.23 0.22
-1 2 -19 0.06 0.25
2 2 0 13.33 0.76
-2 2 0 14.9 0.76
-2 2 0 13.55 0.83
2 2 0 11.41 0.8
-2 -2 0 13.1 0.77
-2 -2 0 10.88 0.77
2 2 0 12.48 0.78
-2 -2 0 13.05 0.79
-2 2 0 14.16 0.77
2 -2 0 13.19 0.75
-2 2 1 0.37 0.09
-2 2 1 0.52 0.22
2 -2 1 0.29 0.11
-2 -2 -1 0.27 0.14
2 2 -1 0.12 0.12
-2 -2 -1 0.32 0.1
-2 -2 -1 0.07 0.12
2 2 -1 0.26 0.2
-2 -2 1 0.43 0.11
2 -2 -1 0.26 0.08
2 2 1 0.27 0.19
-2 2 -1 0.13 0.15
2 2 1 0.41 0.14
-2 -2 1 0.66 0.16
-2 -2 1 0.03 0.12
2 -2 -1 0.34 0.13
-2 2 -1 0.32 0.07
-2 2 -1 0.3 0.21
2 -2 2 1.44 0.28
-2 2 2 1.06 0.19
-2 2 2 1.71 0.26
2 -2 2 1.26 0.14
-2 -2 -2 1.61 0.26
-2 2 2 1.6 0.21
2 -2 -2 1.24 0.19
-2 -2 2 1.26 0.18
2 2 2 1.76 0.23
-2 -2 2 1.63 0.24
-2 2 3 5.2 0.48
2 -2 3 5.93 0.52
-2 -2 -3 5.73 0.47
-2 2 3 7.04 0.48
2 -2 3 6.17 0.39
2 2 3 6.3 0.47
-2 -2 3 5.78 0.42
-2 -2 3 5.87 0.47
-2 -2 3 6.56 0.47
2 2 3 5.99 0.45
-2 2 4 0.34 0.24
2 -2 4 0.6 0.25
2 -2 4 0.41 0.16
-2 2 4 0.21 0.22
-2 -2 -4 0.31 0.2
2 2 4 0.42 0.22
-2 -2 4 0.6 0.22
2 2 4 0.41 0.17
-2 -2 4 0.4 0.2
-2 -2 4 0.52 0.18
-2 2 5 0.46 0.3
-2 -2 -5 0.67 0.24
-2 2 5 0.08 0.31
2 -2 5 0.47 0.29
2 2 5 0.78 0.22
-2 -2 5 0.8 0.28
-2 -2 5 0.43 0.29
2 2 5 0.45 0.27
-2 -2 5 0.45 0.23
-2 2 6 -0.12 0.36
-2 -2 -6 -0.33 0.24
2 -2 6 -0.23 0.17
-2 2 6 0.16 0.42
2 -2 6 -0.31 0.37
-2 2 6 0.05 0.16
2 2 6 -0.2 0.36
-2 -2 6 0.13 0.3
2 2 6 0.04 0.16
-2 -2 6 0.63 0.42
-2 2 -6 0.35 0.33
2 2 6 0.11 0.27
-2 -2 6 0.11 0.3
-2 -2 6 0.54 0.24
-2 2 7 0.84 0.24
-2 2 7 1.94 0.64
2 -2 7 -0.11 0.56
-2 2 7 1.67 0.58
-2 -2 -7 0.32 0.32
2 2 7 1.08 0.28
-2 -2 7 1.13 0.46
2 2 7 0.44 0.41
-2 2 -7 0.84 0.43
-2 2 8 2.88 0.52
-2 2 8 1.53 0.71
-2 2 8 2.59 0.69
2 2 8 3.27 0.59
2 -2 9 1.25 0.31
2 -2 9 0.34 0.28
2 2 9 0.8 0.27
2 -2 10 0.59 0.28
2 -2 10 0.83 0.29
-2 2 10 1.13 0.28
-2 -2 10 0.74 0.29
2 2 10 0.95 0.34
2 2 10 0.7 0.27
2 -2 11 -0.36 0.23
-2 2 11 0.09 0.25
2 -2 11 0.19 0.27
-2 -2 11 -0.15 0.27
2 2 11 -0.16 0.31
2 2 11 -0.06 0.25
-2 2 12 0.01 0.28
2 -2 12 0.16 0.28
2 2 12 -0.02 0.31
-2 -2 12 0.04 0.28
2 2 12 0.13 0.29
2 -2 13 -0.41 0.28
-2 2 13 0.13 0.44
-2 2 13 -0.15 0.31
-2 -2 13 -0.2 0.31
2 2 13 -0.23 0.33
-2 -2 13 0.21 0.4
-2 2 -13 0.08 0.3
2 2 13 -0.17 0.29
2 -2 14 0.54 0.33
2 2 -14 0.17 0.3
2 -2 14 -0.14 0.3
-2 2 14 1.45 0.47
-2 -2 14 1.39 0.4
-2 2 -14 0.98 0.32
-2 -2 14 0.02 0.33
-2 2 15 1.02 0.44
2 2 -15 0.14 0.3
2 -2 15 0.18 0.32
-2 -2 15 0.66 0.35
2 -2 -15 -0.13 0.23
-2 -2 15 -0.6 0.33
-2 2 -15 0.33 0.31
-2 2 16 0.76 0.39
2 2 -16 0.16 0.29
2 -2 16 0.55 0.3
2 2 16 0.1 0.32
-2 -2 16 0.73 0.33
2 -2 -16 -0.09 0.22
-2 2 -16 0.06 0.29
2 2 -17 0.24 0.28
-2 2 17 0.78 0.32
2 -2 17 0.04 0.28
-2 -2 17 0.64 0.29
-2 2 -17 0.18 0.29
2 2 17 -0.28 0.27
2 -2 18 0.15 0.25
2 2 -18 0.13 0.25
-2 2 18 0.23 0.27
-2 -2 18 0.09 0.24
-2 2 -18 -0.04 0.26
2 2 -19 0.11 0.21
2 -2 19 -0.03 0.23
-2 2 19 0.2 0.23
-2 2 -19 0.25 0.26
-2 -2 19 0.49 0.22
3 2 0 0 0.08
-3 -2 0 0.13 0.14
3 2 0 -0.13 0.12
-3 2 0 0.05 0.08
-3 2 0 0.03 0.09
-3 2 0 -0.09 0.17
-3 -2 0 0.08 0.1
3 2 0 -0.06 0.11
-3 -2 -1 60.38 3.53
-3 2 1 61.16 3.53
-3 2 1 66.69 3.53
-3 -2 -1 63.77 3.56
-3 2 1 62.7 3.52
-3 -2 1 61.11 3.54
-3 2 -1 63.93 3.51
-3 -2 1 63 3.54
3 2 1 60.28 3.52
-3 2 2 1.35 0.22
-3 -2 -2 0.88 0.2
3 -2 2 1.19 0.19
-3 2 2 0.96 0.19
-3 2 2 0.7 0.19
-3 2 2 1.1 0.21
-3 -2 2 0.96 0.21
-3 -2 2 0.92 0.17
-3 2 3 0.55 0.1
3 -2 3 0.93 0.15
-3 -2 -3 0.61 0.19
-3 2 3 0.55 0.15
-3 2 3 0.7 0.22
-3 2 3 0.37 0.14
3 -2 3 0.59 0.17
3 2 3 0.76 0.18
-3 -2 3 0.73 0.16
-3 -2 3 0.55 0.16
-3 -2 3 0.8 0.2
-3 -2 -4 21.79 1.36
3 -2 4 21.47 1.27
-3 2 4 23.39 1.35
-3 2 4 19.42 1.36
3 -2 4 22.62 1.37
-3 -2 4 22.24 1.32
3 2 4 21.59 1.32
-3 -2 4 22.01 1.35
3 2 4 23.08 1.34
-3 -2 4 21.67 1.31
-3 2 -4 22.6 1.43
3 -2 5 0.64 0.19
-3 -2 -5 0.92 0.28
-3 2 5 0.75 0.3
3 -2 5 0.71 0.3
-3 2 5 0.51 0.29
-3 2 -5 1.16 0.34
-3 -2 5 0.92 0.26
3 2 5 0.88 0.24
3 2 5 0.85 0.29
-3 -2 5 1 0.29
-3 -2 5 0.75 0.23
-3 2 6 4.29 0.83
-3 -2 -6 5.69 0.62
-3 2 6 4.93 0.44
3 -2 6 4.41 0.79
3 -2 6 4.75 0.51
3 -2 6 3.82 0.5
-3 2 6 4.61 0.69
-3 2 -6 6.51 0.73
-3 -2 6 4.63 0.58
-3 -2 6 6.02 0.82
3 2 6 5.7 0.65
-3 -2 6 5.26 0.59
3 2 6 5.08 0.68
3 2 6 6.32 0.54
-3 -2 6 5.56 0.54
-3 -2 -7 0.32 0.37
3 -2 7 -0.47 0.55
3 -2 7 0.28 0.28
-3 2 7 0.75 0.25
-3 2 7 1.59 0.65
-3 2 7 1.22 0.55
-3 2 -7 0.63 0.45
3 2 7 0.12 0.42
-3 -2 7 0.76 0.45
3 2 7 0.44 0.57
3 2 7 0.88 0.28
3 -2 8 7.95 0.76
3 -2 8 10.5 0.81
-3 2 8 9.78 0.73
-3 2 8 7.62 1.09
3 2 8 8.39 1.02
-3 -2 8 11.07 1.58
3 2 8 9.76 0.76
-3 -2 8 9.77 0.81
3 -2 9 6.75 0.64
3 -2 9 5.52 0.66
-3 2 9 7.18 0.64
3 2 9 5.19 0.59
-3 -2 9 6.41 0.69
3 -2 10 0.39 0.29
3 -2 10 0.99 0.29
-3 2 10 1.37 0.29
3 2 10 1 0.32
3 2 10 0.67 0.26
-3 -2 10 0.85 0.29
3 -2 11 7.77 0.7
-3 2 11 7.16 0.67
3 -2 11 7.89 0.71
3 2 11 6.21 0.73
-3 -2 11 6.66 0.7
3 2 11 8.3 0.69
3 -2 12 0.19 0.31
3 -2 12 -0.06 0.27
-3 2 12 0.11 0.28
3 2 12 -0.14 0.29
-3 -2 12 -0.08 0.29
-3 2 13 4.08 0.55
-3 2 13 2.63 0.43
3 -2 13 3.33 0.59
-3 -2 13 3.36 0.65
-3 -2 13 4.12 0.52
3 2 13 2.46 0.42
-3 2 14 1.87 0.48
3 2 -14 0.85 0.31
-3 2 14 0.08 0.37
3 -2 14 0.3 0.32
-3 -2 14 0.05 0.35
-3 -2 14 1.43 0.41
3 -2 15 0.91 0.32
-3 2 15 0.25 0.38
3 2 -15 0.74 0.3
-3 -2 -15 0.83 0.32
-3 2 -15 1.51 0.33
-3 -2 15 1.63 0.38
-3 -2 15 -0.03 0.36
3 -2 -15 0.93 0.3
3 -2 16 0.33 0.31
3 2 -16 0.12 0.29
-3 -2 -16 0.12 0.29
-3 2 16 0.88 0.38
-3 -2 16 0.54 0.33
-3 2 -16 0.49 0.3
3 -2 -16 0 0.29
-3 2 17 0.78 0.33
3 2 -17 0.48 0.27
-3 -2 -17 -0.46 0.27
3 -2 17 0.14 0.27
-3 2 -17 0.33 0.28
-3 -2 17 0.48 0.29
3 -2 -17 0.15 0.21
-3 2 18 1.73 0.31
3 2 -18 1.29 0.27
3 -2 18 1.27 0.27
-3 -2 18 1.62 0.29
-3 2 -18 1.13 0.29
-3 2 19 0.19 0.23
-3 2 -19 -0.12 0.24
-3 -2 19 0.29 0.22
-4 -2 0 171.35 9.6
-4 2 0 172.16 9.59
-4 2 0 165.12 9.62
-4 -2 0 173.26 9.62
-4 2 0 176.06 9.58
-4 2 1 79.7 4.25
-4 -2 -1 74.02 4.26
-4 2 1 71.43 4.26
-4 -2 -1 74.04 4.28
-4 2 1 76.04 4.25
-4 2 -1 79.46 4.24
-4 2 -1 72.1 4.3
-4 -2 1 74.57 4.27
4 2 1 76.13 4.25
-4 -2 1 76.38 4.27
-4 2 2 31.65 1.81
-4 2 2 32.89 1.82
-4 2 2 31.96 1.84
-4 -2 -2 31.55 1.86
-4 -2 2 31.67 1.82
4 2 2 31.08 1.81
-4 -2 2 30.37 1.84
-4 2 -2 30.86 1.9
-4 -2 2 31.27 1.83
-4 2 3 6.23 0.42
-4 2 3 5.89 0.49
-4 -2 -3 5.95 0.51
-4 2 3 6.36 0.46
4 -2 3 6.49 0.49
4 -2 3 6.66 0.41
-4 2 -3 6.21 0.6
-4 -2 3 6.76 0.49
-4 -2 3 6.12 0.46
4 2 3 6.54 0.47
-4 -2 3 6.24 0.48
-4 -2 -4 1.37 0.3
4 -2 4 1.73 0.2
-4 2 4 1.5 0.32
-4 2 4 1.01 0.28
4 -2 4 1.51 0.35
-4 -2 4 1.39 0.26
-4 -2 4 1.21 0.25
-4 -2 4 1.37 0.27
-4 2 -4 1.33 0.36
4 2 4 1.83 0.31
-4 2 5 30.26 1.99
-4 -2 -5 34 2.01
-4 2 5 30.69 1.86
-4 2 5 33.94 2
4 -2 5 30.16 1.88
4 -2 5 33.98 2.01
4 -2 5 29.48 1.91
-4 -2 5 33.63 2
-4 -2 5 31.91 1.92
4 2 5 34.59 1.97
-4 -2 5 34.32 1.96
4 2 5 33.98 1.96
-4 2 -5 35.47 2.09
4 2 5 31.35 1.91
-4 -2 -6 3.82 0.64
4 -2 6 3.51 0.59
-4 2 6 3.81 0.69
-4 2 6 3.04 0.42
-4 2 6 4.04 0.79
4 -2 6 3.67 0.53
4 2 6 4.94 0.54
4 2 6 3.54 0.63
-4 2 -6 3.84 0.75
4 2 6 3.25 0.64
-4 -2 6 5.38 0.81
-4 -2 6 4.02 0.54
-4 -2 6 4.8 0.57
4 -2 7 44.65 2.65
4 -2 7 46.53 2.89
-4 -2 -7 44.72 2.76
-4 2 7 41.44 2.81
-4 2 7 47.21 2.61
4 -2 7 43.06 2.62
4 2 7 51.38 2.81
-4 -2 7 43.33 2.74
-4 -2 7 43.72 2.64
-4 2 -7 50.74 2.85
4 2 7 43.96 2.79
4 2 7 48.36 2.65
-4 -2 7 40.61 2.88
4 -2 8 2.33 0.35
-4 2 8 1.55 0.66
4 -2 8 1.83 0.62
-4 -2 8 1.21 0.71
4 2 8 2.39 0.51
4 2 8 3.4 0.49
4 -2 9 14.06 1.01
-4 2 9 14.65 0.97
4 -2 9 15.72 1.01
4 2 9 14.54 0.99
-4 -2 9 13.22 1.01
4 -2 10 9.63 0.76
-4 2 10 10.19 0.78
4 -2 10 9.63 0.79
-4 -2 10 9.16 0.8
4 2 10 9.11 0.76
4 -2 11 2.14 0.35
-4 2 11 1.98 0.33
4 -2 11 2.14 0.37
-4 -2 11 1.83 0.36
4 2 11 2.19 0.34
-4 2 12 9.68 0.86
4 -2 12 11.57 0.88
4 -2 12 12.22 0.93
-4 -2 12 9.81 0.89
4 2 12 10.94 0.91
4 2 -13 0.82 0.3
4 -2 13 0.81 0.32
-4 2 13 0.59 0.34
4 -2 13 0.65 0.33
-4 -2 13 0.39 0.34
4 2 13 0.54 0.35
-4 2 14 5.67 0.82
4 2 -14 6.59 0.56
-4 2 14 7.89 0.67
-4 -2 14 7.66 0.63
-4 2 -14 6.97 0.57
4 -2 -14 6.95 0.56
-4 -2 14 6.55 0.8
4 2 14 6.16 0.76
-4 2 15 2.01 0.46
4 2 -15 1.64 0.34
4 -2 15 0.98 0.34
-4 -2 -15 2.14 0.38
-4 2 -15 2.54 0.38
4 -2 -15 1.47 0.33
-4 -2 15 1.93 0.39
-4 -2 -16 3.39 0.41
4 -2 16 3 0.42
4 2 -16 3.6 0.39
-4 2 16 3.63 0.48
-4 2 -16 3.45 0.4
4 -2 -16 3.61 0.41
-4 -2 16 3.39 0.46
-4 2 17 5.06 0.49
4 2 -17 5.55 0.45
-4 -2 -17 4.14 0.43
-4 2 -17 5.58 0.46
4 -2 -17 4.11 0.43
-4 -2 17 5.12 0.46
4 2 -18 1.5 0.29
-4 2 18 1.2 0.28
-4 -2 18 0.86 0.26
-4 2 -18 1.11 0.28
-4 2 19 2.57 0.3
-4 2 -19 2.75 0.31
-4 -2 19 2.86 0.31
-5 2 0 0.12 0.12
-5 2 0 0.07 0.1
-5 2 0 0.14 0.17
-5 -2 0 0.06 0.11
-5 -2 0 0.07 0.17
-5 -2 -1 18.91 1.17
-5 -2 -1 18.84 1.2
-5 2 1 18.69 1.17
-5 2 1 19.61 1.15
-5 2 1 19.26 1.15
-5 2 -1 19.99 1.14
-5 2 -1 18.53 1.21
-5 -2 1 20.03 1.18
5 2 1 19.06 1.15
-5 2 -1 19.39 1.16
-5 -2 1 19.1 1.17
-5 2 2 23.33 1.39
-5 2 2 24.05 1.39
-5 -2 -2 22.47 1.44
-5 2 2 22.38 1.4
-5 -2 -2 23.39 1.42
5 2 2 23.95 1.39
-5 -2 2 24.02 1.4
-5 -2 2 23.55 1.41
-5 2 -2 23.69 1.49
-5 -2 2 23.78 1.4
-5 -2 -3 10.25 0.76
-5 2 3 9.66 0.71
-5 2 3 10.11 0.66
-5 2 3 10.81 0.69
-5 -2 3 10.17 0.72
-5 2 -3 9.84 0.83
5 2 3 10.89 0.69
-5 -2 3 10.83 0.7
-5 -2 3 10.39 0.7
5 -2 4 3.08 0.37
-5 -2 -4 3.72 0.51
5 -2 4 4.3 0.32
5 -2 4 3.88 0.46
-5 2 4 4.23 0.43
-5 2 4 3.4 0.46
-5 -2 4 4.32 0.41
-5 -2 4 3.59 0.43
5 2 4 3.07 0.41
-5 2 -4 3.65 0.62
5 2 4 4.26 0.42
-5 -2 4 4.36 0.44
5 -2 5 0.41 0.32
-5 -2 -5 0.79 0.38
5 -2 5 0.83 0.19
-5 2 5 0.86 0.36
-5 2 5 1.07 0.31
-5 2 5 0.46 0.17
5 -2 5 0.47 0.21
-5 -2 5 0.93 0.3
-5 -2 5 0.75 0.28
5 2 5 0.91 0.25
-5 2 -5 0.93 0.46
5 2 5 0.94 0.32
-5 -2 5 0.81 0.3
-5 2 6 11.32 1.03
5 -2 6 10.53 0.83
5 -2 6 8.89 1.03
-5 -2 -6 11.99 0.99
-5 2 6 10.69 0.74
-5 2 6 9.65 0.98
-5 2 -6 12.33 1.11
-5 -2 6 12.83 1.02
-5 -2 6 11.2 0.88
5 2 6 10.48 0.92
-5 -2 6 8.8 0.78
5 2 6 12.1 0.84
5 -2 7 3.42 0.54
-5 2 7 3.81 0.44
5 -2 7 2.69 0.59
-5 -2 -7 1.77 0.52
-5 2 7 2.46 0.61
5 2 7 1.9 0.52
-5 -2 7 2.58 0.51
5 2 7 3.74 0.54
-5 2 -7 2.89 0.63
5 -2 8 27.14 1.59
5 -2 8 23.41 1.61
-5 2 8 27.19 1.56
5 2 8 26.78 1.61
-5 -2 8 25.67 1.62
5 -2 9 12.52 0.91
-5 2 9 13.99 0.88
5 -2 9 12.09 0.92
-5 2 -9 11.89 0.85
-5 -2 9 11.92 0.93
5 2 9 12.59 0.9
5 -2 10 17.28 1.18
5 -2 10 17.85 1.18
-5 2 10 18.03 1.16
-5 -2 10 15.78 1.18
5 2 10 18.44 1.17
5 -2 11 18.92 1.24
5 -2 11 20.07 1.28
-5 2 11 18.05 1.21
5 2 11 18.97 1.24
-5 -2 11 15.85 1.23
5 -2 12 0.59 0.32
5 -2 12 1.09 0.36
-5 2 12 1.22 0.43
-5 2 12 1.09 0.32
5 2 12 0.75 0.33
-5 -2 12 0.88 0.36
-5 2 -12 1.36 0.4
-5 2 13 12.24 0.88
-5 2 13 10.73 1
5 -2 13 13.8 1.01
5 2 -13 11.2 0.82
-5 2 -13 12.19 0.83
5 -2 -13 12.55 0.81
-5 -2 13 13.2 0.88
5 2 13 12.68 1.03
5 2 13 11.61 0.84
-5 -2 13 11.28 1.01
5 2 -14 1.17 0.32
-5 -2 -14 1.48 0.39
-5 2 14 1.85 0.48
-5 2 -14 1.37 0.36
5 -2 -14 1.06 0.32
-5 -2 14 1.75 0.42
5 2 14 0.44 0.37
5 2 14 0.78 0.36
-5 -2 -15 8.46 0.65
-5 2 15 8.68 0.75
5 2 -15 8.89 0.65
-5 2 -15 8.49 0.63
5 -2 -15 9.13 0.64
-5 -2 15 7.98 0.67
5 2 15 8.93 0.7
-5 -2 -16 0.91 0.31
5 2 -16 0.82 0.29
-5 2 16 0.83 0.38
-5 -2 16 1.26 0.33
5 2 16 0.41 0.3
-5 2 -16 0.9 0.31
5 -2 -16 0.38 0.28
5 2 -17 1.78 0.32
-5 2 17 1.59 0.34
-5 -2 -17 1.32 0.3
-5 2 -17 1.74 0.31
5 -2 -17 1.33 0.28
-5 -2 17 1.77 0.31
5 2 -18 2.22 0.29
-5 2 18 2.16 0.31
-5 2 -18 2.22 0.33
-5 -2 18 2.48 0.3
-5 2 19 0.28 0.23
-5 -2 19 0.4 0.21
-5 2 -19 0.25 0.26
-6 2 0 21.09 1.42
-6 2 0 23.53 1.39
-6 -2 0 23.4 1.43
-6 -2 0 22.45 1.4
-6 2 0 25.11 1.39
-6 2 1 13.88 0.88
-6 -2 -1 14.59 0.96
-6 -2 -1 14.43 0.91
-6 2 1 13.83 0.91
-6 2 1 13.12 0.87
-6 -2 1 13.6 0.89
-6 2 -1 13.39 0.96
-6 -2 1 14.38 0.89
-6 -2 1 14.16 0.92
-6 2 -1 12.92 0.89
-6 2 -1 13.76 0.86
-6 2 2 35.66 2.14
-6 -2 -2 38.36 2.17
-6 -2 -2 36.34 2.2
-6 2 2 37.48 2.14
-6 2 2 38.36 2.14
6 2 2 37.36 2.13
-6 -2 2 37.97 2.15
-6 -2 2 37.27 2.16
-6 2 -2 35.6 2.23
6 2 2 32.01 2.09
-6 -2 2 35.65 2.15
-6 2 3 8.24 0.62
-6 -2 -3 8.89 0.75
6 -2 3 8.15 0.63
-6 -2 -3 9.42 0.69
-6 2 3 9.24 0.66
-6 2 3 9.21 0.68
-6 -2 3 9.5 0.66
-6 2 -3 9.18 0.85
-6 -2 3 8.67 0.66
6 2 3 9.24 0.65
-6 -2 3 8.98 0.67
6 2 3 8.79 0.6
-6 2 4 5.66 0.53
-6 2 4 4.6 0.54
-6 -2 -4 5.03 0.66
6 -2 4 4.03 0.47
6 2 4 4.29 0.43
-6 -2 4 5.71 0.55
6 2 4 5.02 0.54
6 2 4 5.07 0.51
-6 2 -4 4.9 0.8
-6 -2 4 5.06 0.54
-6 -2 4 5.39 0.51
-6 2 5 0.53 0.37
6 -2 5 1.07 0.21
-6 -2 -5 0.7 0.43
-6 2 5 0.77 0.31
-6 2 5 0.23 0.18
6 -2 5 0.13 0.22
6 2 5 0.87 0.29
6 2 5 0.18 0.16
-6 -2 5 0.5 0.29
6 2 5 0.63 0.34
-6 -2 5 0.48 0.29
-6 2 -5 0.42 0.52
6 -2 6 2.78 0.46
-6 -2 -6 2.72 0.58
-6 2 6 2.31 0.54
-6 2 6 1.81 0.45
-6 2 6 2.69 0.43
-6 -2 6 3.22 0.58
-6 -2 6 3.97 0.69
6 2 6 3.63 0.55
6 2 6 3.09 0.56
-6 2 -6 3.19 0.67
-6 2 7 5.99 0.91
-6 -2 7 6.37 0.71
-6 2 -7 4.25 0.84
-6 -2 7 7.2 0.99
-6 2 8 0.66 0.23
6 -2 8 0.2 0.24
6 2 8 0.41 0.26
-6 -2 8 0.59 0.28
6 -2 9 8.02 0.72
-6 2 9 9.21 0.69
6 2 9 8.4 0.71
-6 -2 9 7.25 0.73
-6 2 -9 7.64 0.67
6 -2 10 2.28 0.36
6 2 10 1.47 0.3
-6 -2 10 1.63 0.34
-6 2 -10 2.74 0.51
6 -2 11 2.01 0.38
-6 2 11 2.9 0.57
-6 -2 11 1.73 0.39
6 2 11 2 0.36
6 -2 12 1.47 0.38
-6 2 12 2.28 0.45
-6 2 12 1.13 0.35
6 2 12 0.93 0.35
6 2 12 1.59 0.35
6 -2 -12 1.81 0.35
-6 -2 12 0.93 0.38
-6 -2 -13 1.3 0.43
6 -2 13 0.47 0.36
6 -2 13 0.5 0.31
-6 2 13 0.04 0.35
6 2 -13 0.37 0.32
-6 2 13 1.43 0.45
6 -2 -13 0.66 0.3
6 2 13 0.4 0.34
-6 -2 13 -0.09 0.37
6 2 13 0.47 0.37
-6 -2 13 1.04 0.45
6 2 -14 2.36 0.4
-6 2 14 3.16 0.49
6 -2 14 2.29 0.39
-6 -2 -14 2.68 0.44
6 2 14 2.19 0.4
-6 2 -14 3.2 0.44
-6 -2 14 3.08 0.51
6 2 14 1.85 0.43
6 -2 -14 2.24 0.4
-6 -2 -15 0.78 0.34
6 2 -15 0.29 0.28
-6 2 15 0.66 0.41
6 -2 15 -0.19 0.31
-6 2 -15 0.79 0.33
6 -2 -15 0.02 0.27
-6 -2 15 0.7 0.36
6 2 15 -0.39 0.31
-6 -2 -16 2.93 0.39
-6 2 16 2.38 0.44
6 2 -16 2.9 0.38
-6 2 -16 2.77 0.4
6 -2 -16 2.42 0.37
-6 -2 16 3.06 0.39
6 2 16 2.61 0.37
-6 -2 -17 0.07 0.26
-6 2 17 0.44 0.3
6 2 -17 0.28 0.24
6 -2 -17 0.04 0.24
-6 2 -17 0.2 0.26
6 2 17 -0.15 0.25
-6 -2 17 0.42 0.27
-6 2 18 0.66 0.26
-6 -2 18 0.61 0.23
-6 2 -18 0.36 0.25
-7 -2 0 -0.05 0.16
-7 2 0 0.02 0.16
-7 2 0 0.09 0.18
7 2 0 0.05 0.14
-7 2 0 0 0.25
-7 -2 0 0.08 0.26
-7 2 1 14.63 0.94
-7 2 1 14.07 0.93
-7 -2 -1 14.68 1.05
-7 -2 -1 15.17 0.98
-7 2 1 14.51 0.99
-7 -2 1 15.26 1
-7 -2 1 14 0.95
7 2 1 13.3 0.89
-7 2 -1 14.15 1.05
-7 -2 1 14.21 0.95
-7 2 -1 14.06 0.96
-7 2 -1 14.19 0.92
-7 2 2 1.19 0.3
-7 2 2 1.77 0.34
-7 -2 -2 1.65 0.39
-7 -2 -2 1.83 0.32
-7 2 2 1.7 0.33
-7 2 -2 1.11 0.25
7 2 2 1.11 0.2
-7 -2 2 2 0.43
-7 2 -2 1.85 0.47
-7 -2 2 2.12 0.34
-7 -2 2 1.61 0.36
-7 2 -2 1.45 0.29
7 -2 3 5.82 0.57
-7 2 3 6.27 0.62
-7 -2 -3 6.61 0.75
-7 -2 -3 6.89 0.63
-7 2 3 7.27 0.6
-7 -2 3 7.25 0.63
-7 -2 3 6.67 0.59
-7 2 -3 7.25 0.88
7 2 3 6.38 0.53
-7 -2 3 7.3 0.63
7 2 3 6.97 0.58
-7 -2 -4 16.93 1.15
-7 -2 -4 16.47 1.25
-7 2 4 15.93 1.15
7 -2 4 15.66 1.07
-7 2 4 16.62 1.12
7 2 4 15.98 1.02
7 2 4 16.51 1.1
7 2 4 15.78 1.09
-7 -2 4 17.11 1.15
-7 -2 4 17.07 1.11
-7 2 -4 15.67 1.38
-7 2 5 1.16 0.35
-7 2 5 1.36 0.43
-7 -2 -5 1.52 0.53
-7 2 5 1.4 0.22
7 -2 5 1.19 0.26
7 2 5 2.16 0.34
7 2 5 1.34 0.35
-7 -2 5 1.32 0.35
-7 2 -5 2.26 0.66
-7 2 6 1.86 0.51
7 -2 6 3.38 0.49
-7 -2 6 3.11 0.58
-7 2 -6 3.17 0.69
-7 -2 6 1.73 0.44
7 -2 7 0.88 0.29
-7 2 7 1.08 0.23
7 2 7 1.17 0.29
-7 -2 7 0.93 0.28
7 -2 8 7.65 0.71
-7 2 8 8.85 0.64
-7 -2 8 7.45 0.7
7 2 8 7.78 0.7
7 -2 9 0.34 0.27
-7 2 9 0.36 0.24
-7 -2 9 0.29 0.28
7 2 9 0.03 0.22
7 -2 10 0.83 0.3
-7 2 10 0.69 0.28
-7 2 -10 0.83 0.29
-7 -2 10 0.21 0.32
7 2 10 0.28 0.26
7 -2 11 4.37 0.66
-7 2 11 4.06 0.63
7 -2 -11 2.87 0.39
-7 -2 11 3.22 0.67
7 2 11 3.69 0.46
-7 2 -11 2.99 0.55
7 2 11 3.83 0.61
-7 2 12 -0.24 0.33
7 -2 12 -0.01 0.34
7 -2 12 -0.17 0.32
-7 2 12 0.92 0.42
-7 -2 -12 0.14 0.51
7 2 -12 -0.1 0.3
7 2 12 0 0.33
7 -2 -12 0.18 0.28
7 2 12 -0.17 0.33
-7 -2 12 -0.42 0.36
-7 2 13 0.61 0.38
7 2 -13 1.31 0.36
7 -2 13 1.47 0.39
7 -2 13 1.34 0.35
7 2 13 1.2 0.36
7 2 13 1.18 0.4
7 -2 -13 1.3 0.3
-7 2 14 0.92 0.42
-7 2 14 -0.61 0.37
7 -2 14 0.11 0.29
7 2 -14 0.29 0.22
7 -2 14 0.05 0.31
7 2 -14 0.21 0.3
-7 -2 14 0.74 0.4
7 2 14 0.12 0.37
7 2 14 0.15 0.31
7 -2 -14 0.4 0.27
7 -2 15 0.11 0.3
-7 2 15 0.95 0.4
-7 -2 -15 0.81 0.36
7 2 -15 0.23 0.2
7 2 -15 0.44 0.28
7 2 15 0.09 0.3
7 -2 -15 0.21 0.27
7 2 -16 0.3 0.26
-7 2 16 0.17 0.34
7 -2 16 -0.33 0.26
-7 -2 -16 0.34 0.29
7 2 16 -0.03 0.27
-7 2 -16 0.28 0.29
7 -2 -16 0.31 0.25
-7 -2 16 0.39 0.31
-7 2 17 0.2 0.28
-7 -2 -17 0.12 0.26
7 2 -17 0.29 0.23
7 2 17 0.1 0.25
-7 -2 17 0.39 0.26
7 -2 -17 0.18 0.23
-7 2 -17 0.37 0.26
-7 2 18 1.17 0.26
-7 -2 18 1.09 0.25
-7 2 -18 1.21 0.27
-8 2 0 229.54 12.64
-8 -2 0 228.64 12.65
-8 -2 0 234.47 12.69
-8 2 0 221.79 12.68
8 2 0 208.28 12.57
-8 -2 0 227.74 12.67
-8 2 0 224.76 12.65
-8 -2 -1 15.42 1.05
-8 -2 -1 14.4 1.12
-8 2 1 14.25 0.99
8 2 -1 13.21 0.93
-8 2 1 14.81 1
-8 2 1 14.16 1.06
-8 -2 1 15.64 1.09
-8 -2 1 15.13 1.03
-8 2 -1 15.18 1.04
-8 -2 1 14.86 1.03
-8 2 -1 15.58 0.99
-8 2 -1 15.29 1.14
8 2 1 14.17 0.95
-8 -2 -2 114.01 6.59
8 -2 2 112.93 6.45
-8 2 2 109.78 6.51
-8 2 2 118.86 6.53
-8 -2 -2 116.32 6.55
-8 -2 2 122.87 6.54
-8 2 -2 102.2 6.48
-8 -2 2 116.47 6.54
-8 -2 2 116.34 6.53
-8 2 -2 115.94 6.55
8 2 2 111.98 6.45
-8 2 -2 117.57 6.64
-8 -2 -3 25.61 1.68
-8 2 3 24.6 1.63
8 -2 3 26.66 1.59
-8 -2 -3 26.02 1.77
-8 2 3 25.54 1.67
-8 2 -3 27.29 1.87
-8 -2 3 27.59 1.66
-8 -2 3 26.41 1.67
-8 2 -3 27.52 1.7
8 2 3 25.68 1.55
-8 -2 -4 3.94 0.54
8 -2 4 3.81 0.48
-8 2 4 3.5 0.58
-8 -2 -4 3.72 0.73
-8 2 -4 4.16 0.87
-8 -2 4 4.14 0.54
8 2 4 2.73 0.39
-8 -2 4 3.59 0.55
8 2 4 3.73 0.46
8 2 4 3.53 0.51
8 -2 5 34.49 1.93
-8 -2 -5 32.15 2.06
-8 2 5 34.72 1.86
-8 2 5 29.48 2.05
-8 2 -5 31.65 2.23
8 2 5 33.13 1.94
-8 -2 5 32.84 2.02
-8 -2 5 27.62 2.01
-8 2 6 1.32 0.22
8 -2 6 0.98 0.25
8 2 6 1.14 0.29
-8 2 7 43.74 2.38
8 -2 7 39.92 2.44
8 2 7 39.35 2.44
8 -2 8 0.39 0.27
-8 2 8 0.82 0.24
8 2 8 0.71 0.28
-8 -2 8 -0.18 0.27
8 -2 9 21.26 1.4
-8 2 9 22.73 1.37
8 2 9 20.45 1.41
8 -2 10 8.07 0.79
-8 2 10 8.16 0.75
-8 2 -10 8.53 0.75
8 2 10 7.65 0.77
8 -2 11 4.89 0.57
8 -2 11 5.33 0.69
-8 2 11 4.68 0.68
8 2 11 5.28 0.7
8 -2 -11 5.2 0.49
8 2 11 4.9 0.57
-8 2 -11 5.34 0.64
-8 2 -11 4.02 0.65
8 -2 12 12.69 0.87
8 2 -12 11.77 0.87
-8 2 12 10.31 1
8 -2 12 13.78 1.02
-8 -2 -12 10.96 0.9
8 2 -12 10.98 0.8
-8 2 12 12.11 0.89
-8 2 -12 12.05 0.92
8 2 12 13.03 1.06
8 -2 -12 12.15 0.82
8 2 12 12.89 0.86
8 2 -13 1.06 0.35
8 -2 13 1.1 0.34
-8 2 13 2.31 0.44
8 -2 13 1.34 0.39
8 2 -13 1.64 0.32
-8 -2 13 1.38 0.44
8 2 13 1.07 0.4
8 -2 -13 1.35 0.29
8 2 13 1.03 0.33
8 -2 14 4.77 0.55
-8 -2 -14 6.66 0.58
8 2 -14 5.68 0.49
8 2 -14 5.13 0.53
-8 2 14 5.24 0.61
8 2 14 4.53 0.53
-8 2 -14 5.6 0.52
8 -2 -14 5.09 0.49
8 2 14 5.01 0.74
-8 -2 14 5.1 0.57
8 2 -15 1.12 0.3
8 2 -15 1.11 0.27
8 -2 15 1.18 0.31
-8 2 15 1.89 0.39
-8 -2 15 1.75 0.36
8 2 15 0.77 0.3
8 -2 -15 1.1 0.28
-8 2 16 4.11 0.45
8 2 -16 4.26 0.4
-8 -2 -16 4.34 0.43
8 -2 16 4.01 0.44
8 -2 -16 4.11 0.38
8 2 16 3.98 0.45
-8 -2 16 4.19 0.42
-8 2 -16 4.41 0.43
-8 -2 -17 2.88 0.34
-8 2 17 2.87 0.34
8 2 17 3.42 0.36
-8 -2 17 2.56 0.32
-8 2 -17 3.21 0.33
8 -2 -17 3.02 0.31
-8 2 18 0.66 0.24
-8 2 -18 0.54 0.26
-8 -2 18 0.29 0.21
-9 -2 0 0.03 0.35
-9 -2 0 0 0.23
9 2 0 0.12 0.16
-9 2 0 0.11 0.22
-9 2 0 0.06 0.21
-9 -2 0 0.15 0.27
-9 2 0 0.04 0.34
-9 2 1 94.4 6.14
-9 -2 -1 110.02 6.22
-9 -2 -1 119.97 6.21
9 2 -1 110.06 6.08
-9 2 1 105.83 6.16
-9 -2 1 95.05 6.17
9 2 1 116.04 6.08
-9 -2 1 109.37 6.18
-9 -2 1 114.14 6.18
-9 2 -1 103.6 6.18
-9 2 -1 107 6.25
-9 2 2 19.71 1.4
-9 -2 -2 18.88 1.51
-9 -2 -2 21.5 1.44
-9 2 -2 22.34 1.59
-9 2 -2 20.7 1.44
-9 -2 2 23.17 1.42
-9 -2 2 22.73 1.43
9 2 2 22.59 1.31
9 -2 3 31.06 1.71
-9 -2 -3 24.2 1.89
-9 -2 -3 26.78 1.83
-9 -2 3 27.11 1.8
-9 -2 3 31.63 1.82
9 2 3 29.05 1.68
-9 2 -3 29.07 2
-9 -2 4 6.48 0.65
-9 2 5 10.81 0.77
9 -2 5 12.77 0.87
9 2 5 12.46 0.88
-9 2 6 13.96 0.89
9 -2 6 14.02 0.97
9 2 6 12.96 0.98
-9 2 7 3.63 0.46
9 -2 7 3.05 0.53
-9 2 8 37.97 2.16
9 -2 8 35.45 2.21
9 2 8 35.75 2.22
-9 2 10 18.99 1.28
9 -2 10 19.85 1.34
9 -2 10 17.92 1.21
9 -2 -10 18.37 1.19
9 2 10 19.89 1.37
-9 2 -10 20.12 1.3
9 2 10 18.69 1.22
-9 -2 -11 14.96 1.19
9 -2 11 18.84 1.29
9 2 -11 16.48 1.15
-9 2 11 15.88 1.23
9 2 -11 18.96 1.11
9 -2 11 18.85 1.14
9 2 11 18.68 1.32
9 2 11 18.35 1.15
9 -2 -11 18.19 1.11
-9 2 -11 16.77 1.23
-9 2 -11 16.71 1.22
-9 2 12 1.1 0.42
9 -2 12 0.67 0.33
9 2 -12 0.45 0.36
9 -2 12 0.59 0.36
9 2 -12 1.19 0.3
9 2 12 0.86 0.34
9 -2 -12 0.97 0.3
9 2 12 0.64 0.38
-9 2 13 9.98 0.81
9 -2 13 9.41 0.76
9 2 -13 11.36 0.74
9 2 -13 11.17 0.79
9 -2 13 11.61 0.97
-9 -2 -13 11.77 0.82
-9 2 -13 11.87 0.79
9 2 13 11.07 0.99
-9 -2 13 8.76 0.79
9 -2 -13 9.38 0.73
9 2 13 10.45 0.78
9 -2 14 0.83 0.3
9 2 -14 0.74 0.3
9 2 -14 0.99 0.28
-9 2 14 1.64 0.42
-9 -2 14 1.02 0.37
9 2 14 0.71 0.3
9 -2 -14 0.95 0.28
9 2 -15 7.5 0.56
9 -2 15 7.43 0.57
-9 -2 -15 7.89 0.59
-9 2 15 6.86 0.61
9 2 -15 7.85 0.54
9 2 15 8.09 0.59
-9 -2 15 6.66 0.57
9 -2 -15 7.81 0.56
-9 2 -15 6.94 0.59
-9 -2 15 6.32 0.58
-9 2 16 0.97 0.31
9 -2 16 0.67 0.26
9 2 -16 0.99 0.24
-9 -2 -16 1 0.29
9 -2 -16 0.76 0.24
-9 2 -16 1.42 0.3
9 2 16 0.72 0.26
-9 -2 16 1.18 0.28
9 -2 17 0.77 0.19
-9 -2 -17 0.71 0.26
-9 2 17 1.05 0.27
-9 2 -17 1.33 0.27
9 2 17 0.85 0.25
9 -2 -17 1.15 0.23
-10 -2 0 0 0.22
10 2 -2 15.32 1.04
10 2 2 17.32 1.04
10 -2 3 13.55 0.9
10 2 3 13.08 0.87
10 2 4 0.95 0.25
10 -2 5 9.04 0.72
10 2 5 8.65 0.74
10 -2 6 1.19 0.29
10 2 6 1.43 0.33
-10 2 7 9.42 0.74
10 -2 7 10.4 0.85
10 2 7 10.69 0.88
10 -2 8 0.7 0.29
-10 2 8 0.37 0.26
10 2 8 0.73 0.33
10 -2 -8 0.09 0.31
10 -2 9 7.13 0.77
10 2 -9 6.5 0.54
-10 2 9 5.37 0.67
10 -2 9 7.35 0.62
10 2 9 7.4 0.79
10 2 9 6.44 0.64
10 -2 -9 6.21 0.58
10 -2 10 2.55 0.42
10 -2 10 2.98 0.5
10 2 -10 1.82 0.4
10 2 -10 3.19 0.41
10 -2 -10 3.15 0.44
10 2 10 2.48 0.44
-10 2 -10 3.9 0.7
10 2 10 3.06 0.51
10 -2 11 0.36 0.35
10 2 11 0.54 0.37
10 2 -12 2.57 0.47
-10 2 12 3.49 0.54
10 2 -12 2.95 0.41
10 -2 12 2.95 0.46
10 -2 12 2.74 0.45
10 2 12 2.74 0.48
10 2 12 3.15 0.51
10 -2 -12 2.6 0.4
10 2 -13 -0.36 0.29
10 -2 13 0.04 0.32
10 2 -13 -0.08 0.26
10 -2 13 0.07 0.27
-10 2 13 0.25 0.4
10 2 13 -0.1 0.35
10 -2 -13 0.06 0.25
10 2 13 0.02 0.29
10 2 -14 1.84 0.34
10 2 -14 1.62 0.32
10 -2 14 1.68 0.31
-10 2 14 1.78 0.41
10 2 14 1.84 0.32
-10 2 -14 2.43 0.45
10 -2 -14 1.64 0.35
10 2 -15 0.9 0.25
10 2 -15 1.09 0.26
-10 2 15 1.28 0.36
10 -2 15 0.75 0.26
10 -2 -15 1.21 0.25
-10 2 -15 1.89 0.34
10 2 15 1.13 0.27
-10 2 16 1.69 0.32
-10 -2 -16 1.83 0.31
10 -2 16 2.25 0.34
10 2 16 1.97 0.29
-10 2 -16 2.29 0.34
10 -2 -16 2 0.28
10 -2 17 0.33 0.17
-10 2 17 0.59 0.23
10 -2 -17 0.67 0.2
10 2 17 0.61 0.22
-10 2 -17 1.06 0.26
11 2 0 -0.04 0.16
11 2 -1 0.63 0.19
11 2 1 1.05 0.21
11 2 -2 0.02 0.17
11 2 4 0.96 0.24
11 -2 5 0.21 0.24
11 2 5 0.54 0.26
11 -2 6 1.8 0.35
11 2 6 1.37 0.34
11 2 -7 0.11 0.21
11 -2 7 -0.13 0.29
11 2 7 -0.11 0.31
11 -2 -7 0.2 0.29
11 2 -8 1.65 0.31
11 -2 8 1.58 0.37
11 -2 8 1.95 0.37
11 2 8 1.34 0.39
11 -2 -8 1.86 0.34
11 2 -9 0.07 0.28
11 -2 9 0.08 0.34
11 -2 9 0.15 0.33
11 2 -9 -0.06 0.31
11 -2 -9 -0.07 0.29
11 2 9 0.15 0.36
11 2 9 0.42 0.35
11 2 -10 0.67 0.3
11 2 -10 -0.33 0.37
11 -2 10 0.46 0.36
11 -2 10 0.63 0.34
11 2 10 0.53 0.36
11 -2 -10 0.53 0.3
-11 2 -10 0.55 0.38
11 2 10 0.37 0.38
11 -2 11 0.95 0.38
11 2 -11 0.01 0.37
11 2 -11 0.52 0.27
11 -2 11 0.78 0.32
11 2 11 0.73 0.34
11 -2 -11 0.88 0.31
11 2 11 0.82 0.41
11 -2 12 0.08 0.34
11 -2 12 0.05 0.28
11 2 -12 -0.45 0.32
-11 2 12 -0.43 0.39
11 2 -12 0.09 0.26
11 2 12 0.05 0.36
11 2 12 -0.02 0.3
11 -2 -12 0.1 0.27
11 2 -13 0.91 0.27
11 -2 13 1.03 0.28
11 2 -13 0.62 0.31
-11 2 13 0.92 0.39
11 2 13 0.04 0.44
11 2 13 0.77 0.29
11 -2 -13 0.73 0.27
-11 -2 -14 1.14 0.39
-11 2 14 -0.02 0.34
11 2 -14 0.32 0.25
11 -2 14 0.19 0.24
11 2 -14 0.24 0.24
11 2 14 0.06 0.25
11 -2 -14 0.22 0.23
-11 2 -14 0.61 0.35
11 -2 15 0.03 0.22
-11 -2 -15 0.65 0.32
11 2 -15 0.29 0.19
-11 2 15 0.11 0.31
11 2 -15 0.36 0.22
-11 2 -15 0.63 0.29
11 -2 -15 0.2 0.2
11 -2 -15 0.18 0.14
11 2 15 0.16 0.23
-11 -2 15 0.75 0.27
11 -2 16 0.05 0.21
-11 -2 -16 -0.11 0.26
11 -2 -16 0.39 0.11
11 -2 -16 0.07 0.18
-11 2 -16 0.26 0.25
11 2 16 0.02 0.21
12 2 4 0.04 0.2
12 2 -6 0.41 0.26
12 2 6 0.08 0.3
12 -2 -6 0.07 0.23
12 -2 -6 0.28 0.15
12 2 -7 13.99 0.91
12 -2 7 14.38 1.1
12 2 7 14.2 1.11
12 -2 -7 12.97 0.93
12 -2 -7 12.67 0.82
12 -2 8 2.15 0.43
12 2 -8 2.93 0.44
12 -2 8 3.35 0.42
12 2 -8 2.46 0.48
12 2 8 3.05 0.5
12 2 8 2.43 0.41
12 -2 -8 2.71 0.3
12 -2 -8 2.57 0.47
12 2 -9 5.8 0.67
12 -2 9 7.22 0.64
12 2 -9 6.82 0.58
12 -2 9 7.3 0.88
12 2 9 7.94 0.94
12 2 9 6.86 0.68
12 -2 -9 7.06 0.62
12 -2 -9 6.16 0.51
-12 2 -9 8.21 0.85
12 -2 10 4.4 0.76
12 2 -10 3.3 0.43
12 -2 10 4.04 0.53
12 2 -10 3.89 0.58
-12 2 -10 4.49 0.79
12 2 10 4.48 0.83
12 -2 -10 3.72 0.39
12 -2 -10 4.19 0.48
12 2 10 3.74 0.54
12 2 -11 0.78 0.38
12 -2 11 1.4 0.32
12 2 -11 1.09 0.29
12 2 11 1.18 0.35
12 -2 -11 0.9 0.24
12 2 11 1.12 0.42
12 -2 -11 1.06 0.31
12 2 -12 4.83 0.47
12 2 -12 5.01 0.53
12 -2 12 4.62 0.48
12 -2 -12 4.63 0.48
12 2 12 5.01 0.52
12 -2 -12 4.66 0.41
12 2 -13 0.31 0.27
12 -2 13 0.25 0.25
12 2 -13 0.38 0.25
12 2 13 0.17 0.27
12 -2 -13 0.08 0.18
-12 2 -13 1.16 0.41
12 -2 -13 0.46 0.24
-12 -2 -14 2.83 0.41
12 2 -14 1.97 0.31
12 2 -14 2.4 0.33
12 -2 14 2.23 0.36
-12 2 -14 2.72 0.39
-12 -2 14 2.9 0.37
12 -2 -14 2.22 0.26
12 2 14 2.41 0.37
12 -2 -14 2.49 0.31
12 2 -15 0.69 0.15
12 2 -15 0.41 0.22
-12 -2 -15 0.23 0.29
12 -2 15 0.4 0.21
-12 2 -15 0.69 0.27
12 -2 -15 0.41 0.21
12 -2 -15 0.58 0.14
12 2 15 0.44 0.23
-12 -2 15 0.94 0.24
12 -2 16 0.49 0.21
12 -2 -16 0.63 0.21
12 2 16 0.41 0.22
-12 2 -16 0.56 0.26
13 -2 0 -0.07 0.14
13 -2 -1 1.15 0.17
13 -2 2 0.05 0.11
13 2 2 0.05 0.14
13 -2 -2 0.65 0.14
13 -2 -3 22.35 1.24
13 2 3 20.62 1.27
13 2 -4 26.19 1.4
13 2 -4 19.05 1.31
13 -2 -4 23.26 1.32
13 2 -5 20.77 1.19
13 2 -5 17.44 1.11
13 -2 -5 18.41 1.11
13 2 -6 24.54 1.42
13 2 -6 24.4 1.36
13 2 -6 21.96 1.41
13 -2 -6 22.98 1.42
13 -2 -6 21.9 1.34
13 2 -7 2.94 0.43
13 -2 7 2.84 0.49
13 2 -7 2.22 0.45
13 2 -7 2.51 0.3
13 2 7 2.71 0.48
13 -2 -7 2.9 0.48
13 -2 -7 3.01 0.3
13 2 -8 17.81 1.19
13 -2 8 19.63 1.23
13 2 -8 18.37 1.15
13 2 -8 19.46 1.25
13 2 8 19.66 1.45
13 -2 -8 18.96 1.14
13 2 8 19.83 1.26
13 2 -9 2.02 0.39
13 2 -9 2.43 0.32
13 2 -9 2.5 0.45
13 -2 9 1.85 0.38
13 -2 -9 2.93 0.41
13 2 9 1.75 0.4
13 -2 -9 2.82 0.3
13 2 9 1.18 0.44
-13 2 -9 1.53 0.43
13 2 -10 9.27 0.76
13 2 -10 10.47 0.85
-13 -2 -10 11.55 0.93
13 2 -10 11.51 0.74
13 -2 10 11.22 0.8
13 -2 -10 11.07 0.72
-13 2 -10 10.77 0.97
13 2 10 11.96 0.85
13 -2 -10 10.67 0.79
-13 -2 -11 8.91 0.81
13 2 -11 7.75 0.55
13 2 -11 6.75 0.58
13 -2 11 6.96 0.61
13 2 -11 7.02 0.65
-13 2 -11 8.25 0.79
13 -2 -11 6.76 0.6
13 -2 -11 7.23 0.53
13 2 11 7.17 0.65
13 -2 12 0.42 0.26
13 2 -12 0.39 0.26
13 2 -12 0.5 0.21
13 2 -12 0.23 0.29
13 -2 -12 0.09 0.19
13 -2 -12 0.7 0.26
13 2 12 0.56 0.29
-13 2 -12 1.54 0.48
13 2 -13 4.32 0.36
-13 -2 -13 5.23 0.5
13 2 -13 3.99 0.41
13 2 -13 4.05 0.41
13 -2 13 4.07 0.43
-13 -2 13 5.23 0.45
13 -2 -13 4.22 0.35
-13 2 -13 4.69 0.52
13 2 13 4.17 0.46
13 -2 -13 3.86 0.4
13 2 -14 1.86 0.23
-13 -2 -14 2.08 0.35
13 2 -14 1.52 0.28
13 -2 14 1.64 0.26
13 -2 -14 1.72 0.22
13 -2 -14 1.51 0.26
-13 2 -14 2.25 0.35
13 2 14 1.61 0.28
-13 2 15 3.05 0.33
13 -2 15 2.16 0.31
-13 -2 -15 1.7 0.35
13 2 -15 2.47 0.23
13 2 15 2.73 0.34
-13 -2 15 2.54 0.31
-13 2 -15 2.02 0.32
13 -2 -15 2.4 0.29
14 2 0 6.06 0.49
14 -2 0 6.34 0.43
14 -2 1 0.35 0.17
14 2 -1 0.02 0.12
14 2 -1 0.39 0.23
14 -2 -1 0.42 0.16
14 2 1 0.69 0.22
14 2 -2 20.16 1.31
14 2 -2 22.23 1.27
14 -2 2 22.58 1.27
14 2 2 21.7 1.31
14 -2 -2 22.45 1.27
14 2 -3 0.48 0.25
14 2 -3 0.39 0.18
14 -2 -3 0.64 0.17
14 2 -4 14.07 0.94
14 2 -4 15.26 0.89
14 -2 -4 14.61 0.88
14 2 -5 4.33 0.49
14 2 -5 5.56 0.41
14 -2 -5 4.93 0.4
14 -2 -5 5.86 0.54
14 2 -6 3.04 0.48
14 2 -6 2.82 0.34
14 -2 -6 3.19 0.33
14 -2 -6 4.04 0.5
14 -2 7 5.83 0.6
14 2 -7 6.62 0.57
14 2 -7 5.84 0.58
14 2 -7 5.24 0.46
14 -2 -7 5.84 0.46
14 -2 -7 6.3 0.6
14 2 -8 0.58 0.3
14 2 -8 0.11 0.36
14 -2 8 0.1 0.32
14 2 -8 0.29 0.23
14 -2 -8 0.41 0.32
14 2 8 0.25 0.36
14 -2 -8 0.22 0.2
-14 2 -8 0.36 0.37
14 -2 9 8.05 0.67
14 2 -9 7.7 0.64
14 2 -9 8.75 0.59
14 2 -9 7.9 0.71
14 -2 -9 8.11 0.67
14 -2 -9 8.11 0.57
-14 2 -9 5.86 0.89
-14 2 -9 8.15 0.83
14 2 9 8 0.72
14 2 -10 2.76 0.42
14 2 -10 2.52 0.48
14 2 -10 2.84 0.38
14 -2 10 2.78 0.38
14 -2 -10 2.76 0.34
14 2 10 3.11 0.43
14 -2 -10 2.37 0.44
14 2 -11 0.74 0.27
14 -2 11 0.63 0.27
14 2 -11 0.37 0.31
14 2 -11 0.44 0.22
14 2 11 0.83 0.32
14 -2 -11 0.61 0.28
-14 -2 11 1.37 0.34
14 -2 -11 0.2 0.2
-14 2 -11 1.81 0.53
-14 -2 -12 7.63 0.67
14 2 -12 7.35 0.58
14 2 -12 7.03 0.57
14 2 -12 8.17 0.53
14 -2 12 7.61 0.59
14 2 12 8.02 0.6
-14 -2 12 7.71 0.61
14 -2 -12 7.91 0.52
-14 2 -12 8.26 0.68
14 -2 -12 7.41 0.58
14 -2 13 0.22 0.22
14 2 -13 0.21 0.15
14 2 -13 0.11 0.24
-14 -2 -13 0.93 0.35
-14 2 -13 0.88 0.33
14 -2 -13 0.02 0.14
14 2 13 0.13 0.24
14 -2 -13 0.07 0.23
14 -2 14 2.83 0.33
-14 -2 -14 2.21 0.36
14 2 -14 3.01 0.25
14 2 14 2.99 0.36
14 -2 -14 2.63 0.24
14 -2 -14 2.9 0.32
-14 -2 14 3.62 0.34
-14 2 -14 2.73 0.34
15 2 0 0.2 0.23
15 2 0 -0.01 0.17
15 -2 0 0.19 0.16
15 2 -1 3.25 0.3
15 2 -1 3.09 0.38
15 -2 1 3.56 0.3
15 2 1 2.72 0.37
15 2 1 2.51 0.32
15 -2 -1 2.2 0.29
15 -2 2 0.34 0.17
15 2 -2 0.19 0.17
15 2 -2 0.19 0.22
15 -2 -2 -0.08 0.16
15 2 2 -0.26 0.18
15 2 -3 0.63 0.19
15 2 -3 0.5 0.24
15 -2 -3 0.34 0.17
15 2 -4 2 0.33
15 2 -4 1.78 0.23
15 -2 -4 1.73 0.22
15 2 -5 1.73 0.33
15 2 -5 1.87 0.23
15 -2 -5 2.8 0.46
15 -2 -5 1.83 0.24
15 2 -6 0.43 0.3
15 2 -6 0.5 0.19
15 -2 6 0.16 0.2
15 -2 -6 0.89 0.32
15 -2 -6 0.28 0.18
15 -2 7 0.04 0.3
15 2 -7 0.27 0.21
15 2 -7 0.13 0.31
15 -2 -7 0.44 0.32
15 -2 -7 0.12 0.19
-15 2 -7 0.04 0.36
15 -2 8 -0.13 0.3
15 2 -8 0.21 0.33
15 2 -8 0.2 0.22
15 -2 -8 0.37 0.31
15 2 8 0.42 0.32
15 -2 -8 -0.03 0.2
15 2 -9 0.25 0.22
15 2 -9 0.07 0.32
15 -2 -9 0.18 0.2
15 -2 -9 0.2 0.3
15 2 9 -0.05 0.34
-15 -2 9 0.86 0.34
15 2 -10 0.12 0.29
15 -2 10 0.21 0.28
15 2 -10 0.26 0.21
15 2 10 -0.17 0.32
15 -2 -10 0.09 0.19
-15 2 -10 1.8 0.56
15 -2 -10 0.1 0.28
-15 -2 10 1.01 0.32
15 2 -11 0.18 0.18
15 -2 11 0.23 0.25
15 2 -11 0.48 0.25
15 2 11 0.15 0.3
15 -2 -11 0.09 0.17
15 -2 -11 0.23 0.26
-15 2 -11 1.13 0.46
15 -2 12 0.06 0.23
15 2 -12 0.09 0.15
15 2 12 0.17 0.26
15 -2 -12 -0.12 0.24
15 -2 -12 0.16 0.15
-15 2 -12 0.45 0.36
15 -2 13 0.17 0.23
-15 -2 -13 0.62 0.35
15 2 -13 0.21 0.13
15 2 13 0.5 0.25
15 -2 -13 -0.07 0.24
-15 2 -13 0.75 0.3
-15 -2 13 0.83 0.25
15 -2 -13 0.32 0.14
16 2 0 7.37 0.48
16 -2 0 6.19 0.47
16 2 0 7.29 0.54
16 -2 1 1.24 0.18
16 2 -1 1.13 0.21
16 2 -1 1.11 0.25
16 2 1 1.1 0.2
16 -2 -1 1.06 0.18
16 2 -2 5.97 0.43
16 2 -2 5.9 0.5
16 -2 -2 5.32 0.42
16 2 -3 6.77 0.53
16 2 -3 5.95 0.45
16 -2 -3 6.4 0.45
16 2 -4 1.87 0.37
16 2 -4 1.65 0.23
16 -2 -4 1.71 0.24
16 2 -5 7.58 0.6
16 2 -5 6.53 0.5
16 -2 -5 7.29 0.49
16 2 -6 -0.03 0.19
16 2 -6 0.44 0.29
16 -2 -6 0.28 0.17
16 2 -7 12.07 0.7
16 -2 7 9.56 0.73
16 2 -7 12 0.79
16 -2 -7 11.29 0.69
-16 -2 7 8.75 0.79
16 -2 8 0.82 0.3
16 2 -8 1.33 0.24
16 2 -8 1.36 0.33
-16 2 -8 2.58 0.62
16 -2 -8 1.01 0.21
-16 -2 8 1.13 0.35
16 2 -9 5.73 0.53
-16 -2 -9 5.86 0.69
16 2 -9 6.14 0.47
16 -2 9 6.22 0.55
16 -2 -9 6.06 0.57
-16 2 -9 6.49 0.76
16 -2 -9 5.79 0.45
-16 -2 9 5.92 0.56
16 2 -10 1.92 0.32
16 2 -10 2.6 0.3
16 -2 10 2.27 0.4
-16 -2 -10 3.38 0.54
16 2 10 2.41 0.41
-16 2 -10 3 0.58
-16 -2 10 2.86 0.44
16 -2 -10 2.42 0.29
16 -2 -10 2.12 0.4
16 2 -11 0.94 0.18
16 -2 11 1.39 0.27
16 -2 -11 0.89 0.17
-16 2 -11 1.63 0.41
16 2 11 1.35 0.31
16 -2 12 2.61 0.36
-16 2 12 3.74 0.38
16 2 -12 2.63 0.26
-16 -2 -12 2.76 0.4
-16 -2 12 3.63 0.37
16 -2 -12 2.27 0.26
-16 2 -12 3.27 0.39
17 -2 0 0.24 0.15
17 2 0 -0.06 0.17
17 2 -1 14.01 0.9
17 2 -1 14.15 0.85
17 2 1 14.11 0.85
17 -2 -1 13.68 0.84
-17 -2 -2 3.3 0.41
17 2 -2 3.43 0.38
17 2 -2 3.36 0.31
17 -2 -2 3.34 0.3
17 2 -3 5.37 0.4
17 2 -3 5.38 0.48
17 -2 -3 5.24 0.4
17 2 -4 16.87 1.07
17 2 -4 17.44 1.01
17 -2 -4 16.45 1
17 2 -5 0.39 0.18
17 2 -5 0.53 0.27
17 -2 -5 0.51 0.17
17 2 -6 15.72 0.92
17 2 -6 14.54 0.99
17 -2 -6 15.15 0.91
17 2 -7 4.53 0.37
17 2 -7 4.28 0.47
17 -2 -7 4.5 0.37
17 2 -8 8.22 0.51
17 2 -8 7.49 0.57
17 -2 -8 8.23 0.5
-17 -2 8 5.77 0.59
-17 2 -8 5.45 0.71
17 2 -9 9.8 0.55
-17 -2 -9 7.48 0.75
-17 -2 9 7.47 0.62
-17 2 10 2.14 0.36
17 2 -10 3.05 0.28
-17 -2 -10 3.62 0.49
-17 -2 10 3.11 0.39
-17 2 -10 2.76 0.5
17 -2 -10 2.94 0.28
-17 -2 -11 7.94 0.67
17 2 -11 10.14 0.58
-17 2 11 8.57 0.63
-17 -2 11 9.66 0.64
-17 2 -11 9.52 0.65
17 -2 -11 10.56 0.59
18 2 -1 1.86 0.22
-18 -2 -1 1.33 0.3
18 -2 -1 1.68 0.23
18 2 -2 10.1 0.63
18 2 -2 9.73 0.68
18 -2 -2 9.71 0.62
18 2 -3 2.78 0.38
18 2 -3 3.19 0.29
18 -2 -3 2.91 0.28
18 2 -4 2.37 0.28
18 2 -4 2.41 0.37
18 -2 -4 2.36 0.27
18 2 -5 7.31 0.5
18 2 -5 7.39 0.56
18 -2 -5 7.45 0.5
18 2 -6 0.24 0.24
18 2 -6 0.25 0.16
18 -2 -6 0.19 0.15
18 2 -7 5.13 0.38
18 2 -7 4.34 0.44
-18 2 -7 4.39 0.59
18 -2 -7 5.32 0.39
-18 -2 -8 1.35 0.44
18 2 -8 0.64 0.17
-18 2 -8 -0.2 0.43
18 -2 -8 0.52 0.17
18 2 -9 2.57 0.26
-18 -2 -9 2.54 0.48
-18 2 -9 2.11 0.42
18 -2 -9 2.38 0.27
19 2 -2 0.34 0.16
19 -2 -2 0.46 0.15
19 2 -3 0.22 0.16
19 -2 -3 0.22 0.15
19 2 -4 1.13 0.18
19 -2 -4 1.06 0.18
19 2 -5 0.2 0.15
19 2 -5 -0.08 0.24
19 -2 -5 0.03 0.15
19 2 -6 0.54 0.16
19 -2 -6 0.66 0.18
19 2 -7 0.29 0.15
-19 -2 -7 0.81 0.39
19 -2 -7 0.29 0.18
20 2 -4 -0.01 0.14
0 -3 0 0.14 0.09
0 -3 0 0.2 0.16
0 3 0 0.05 0.21
0 3 0 0.14 0.1
0 3 -1 0 0.22
0 -3 1 0.19 0.21
0 -3 -1 0.17 0.17
0 3 -1 0.2 0.14
0 3 1 0.4 0.18
0 -3 1 0.16 0.18
0 -3 2 0.6 0.27
0 -3 2 -0.01 0.25
0 -3 2 0.08 0.08
0 3 2 0.17 0.15
0 -3 -2 0.31 0.16
0 3 -3 0.07 0.08
0 -3 3 0.15 0.29
0 -3 -3 0.25 0.15
0 -3 3 0.17 0.13
0 -3 3 0.68 0.33
0 3 3 0.21 0.15
0 -3 -4 -0.02 0.14
0 -3 4 0.3 0.19
0 3 4 0.02 0.25
0 -3 4 0.19 0.27
0 3 4 0.48 0.19
0 -3 4 0.35 0.34
0 -3 5 0.09 0.38
0 -3 5 0.06 0.29
0 3 5 0.04 0.29
0 -3 -5 -0.14 0.14
0 -3 5 -0.31 0.23
0 3 5 0.38 0.23
0 3 6 0.39 0.3
0 -3 6 0.31 0.33
0 3 6 -0.42 0.36
0 -3 6 0.76 0.24
0 -3 6 0.41 0.54
0 3 7 0.46 0.53
0 3 7 -0.07 0.41
0 3 7 0.34 0.23
0 -3 7 1.09 0.48
0 3 7 -0.08 0.2
0 -3 7 0.77 0.72
0 3 8 0.55 0.25
0 3 8 0.12 0.59
0 3 8 0.09 0.44
0 -3 8 0.65 0.82
0 3 8 0.88 0.29
0 3 9 0.16 0.23
0 -3 9 0.82 0.3
0 3 9 0.59 0.29
0 3 10 -0.14 0.23
0 3 10 0.38 0.27
0 -3 10 0.14 0.26
0 3 11 -0.06 0.24
0 3 11 0.39 0.3
0 -3 11 0.3 0.26
0 3 12 -0.13 0.32
0 -3 12 -0.12 0.28
0 3 13 -0.02 0.35
0 -3 13 1.01 0.34
0 -3 13 0.3 0.29
0 3 -13 1.07 0.31
0 -3 14 0.89 0.34
0 3 -14 -0.01 0.29
0 -3 14 -0.12 0.3
0 3 14 -0.63 0.43
0 -3 15 0.78 0.33
0 3 15 1.25 0.44
0 3 -15 0.53 0.3
0 3 16 0.55 0.37
0 -3 16 0.04 0.3
0 3 -16 0.1 0.29
0 -3 -16 -0.18 0.2
0 3 17 0.48 0.32
0 3 -17 0.31 0.28
0 -3 17 0.52 0.27
0 3 18 0.19 0.26
0 3 -18 0.09 0.26
0 -3 18 0.32 0.25
0 -3 19 0.05 0.23
0 3 -19 0.29 0.25
-1 -3 0 212.43 11.64
1 -3 0 199.19 11.65
-1 3 0 174.7 11.63
1 3 0 230.02 11.61
1 -3 0 216.25 11.6
-1 -3 0 191.02 11.61
1 3 0 210.72 11.61
-1 3 0 218.8 11.61
-1 -3 0 222.88 11.61
-1 -3 -1 5.6 0.34
1 3 -1 4.78 0.38
-1 3 1 5.04 0.44
1 -3 1 5.86 0.42
-1 -3 -1 5.7 0.4
1 -3 1 4.66 0.51
-1 -3 1 5.77 0.37
1 3 1 5.7 0.37
-1 3 -1 5.07 0.46
1 3 1 4.26 0.4
1 -3 -1 4.18 0.42
1 -3 -1 4.51 0.45
-1 -3 1 4.95 0.35
-1 -3 1 5.81 0.44
-1 3 2 204.29 11.4
1 -3 2 199.21 11.46
-1 3 2 187.44 11.43
-1 -3 -2 210.72 11.42
-1 3 2 182.39 11.4
1 -3 2 195.35 11.45
-1 -3 2 208.59 11.44
1 -3 -2 210.66 11.39
1 -3 -2 202.83 11.41
-1 -3 2 217.01 11.44
-1 -3 2 222.08 11.4
1 3 2 214.2 11.42
1 -3 3 33 2.22
1 -3 3 37.15 2.18
-1 3 3 33.97 2.15
1 -3 3 38.46 2.09
-1 -3 -3 38.2 2.12
-1 3 3 33.5 2.08
-1 3 3 34.91 2.13
-1 -3 3 35.1 2.18
-1 -3 3 41.03 2.1
-1 -3 3 37.11 2.15
1 3 3 40.43 2.11
1 3 3 39.17 2.14
-1 3 -3 37.86 2.07
1 -3 -3 36.32 2.1
1 -3 4 1.6 0.34
-1 3 4 2.12 0.4
-1 -3 -4 1.7 0.28
-1 3 4 1.68 0.31
1 3 4 1.87 0.37
-1 -3 4 2.52 0.43
-1 -3 4 1.9 0.26
-1 -3 4 1.57 0.35
-1 -3 -5 0.37 0.19
1 -3 5 0.1 0.39
-1 3 5 0.46 0.27
1 -3 5 -0.12 0.29
-1 3 5 0.01 0.28
-1 -3 5 0.34 0.37
1 3 5 0.56 0.21
1 3 5 0.62 0.32
-1 -3 5 0.73 0.31
-1 -3 5 0.29 0.21
1 -3 6 8.19 1.08
-1 3 6 8.07 0.57
1 -3 6 9.56 0.67
-1 3 6 9.33 0.85
1 -3 6 7.27 0.75
-1 3 6 8.04 0.83
-1 -3 -6 8.82 0.63
-1 -3 6 8.36 0.71
-1 -3 6 9.56 0.8
-1 -3 6 9.13 0.69
1 3 6 9.14 0.83
-1 -3 6 8.27 1.09
-1 3 7 24.07 1.64
1 -3 7 22.38 1.38
1 -3 7 21.53 1.9
-1 3 7 20.52 1.32
-1 3 7 20.72 1.59
1 3 7 20.5 1.57
1 3 7 23.12 1.52
1 3 7 22.05 1.34
-1 -3 7 21.4 1.4
-1 -3 7 25.18 2.02
-1 -3 7 20.67 1.48
-1 3 8 10.33 1.22
1 -3 8 9.58 1.52
1 -3 8 12.24 0.88
-1 3 8 11.21 0.82
1 3 8 10.19 0.81
1 3 8 12.14 0.88
1 3 8 10.11 1.06
-1 -3 8 12.33 0.91
1 -3 9 10.39 0.82
-1 3 9 10.71 0.79
-1 -3 9 9.81 0.83
1 3 9 10.07 0.78
1 3 9 10.12 0.81
-1 3 10 7.44 0.68
1 -3 10 6.98 0.65
1 3 10 6.34 0.62
-1 -3 10 6.38 0.66
1 3 10 6.55 0.71
-1 3 11 2.64 0.52
1 -3 11 2.44 0.35
-1 -3 11 1.95 0.35
1 3 11 1.51 0.36
1 3 11 2.02 0.33
1 -3 12 10.76 0.82
-1 3 12 10.01 0.85
1 3 12 10.27 0.83
-1 -3 12 10.12 0.84
1 3 12 8.98 0.89
1 -3 13 0.09 0.29
1 -3 13 0.13 0.31
1 3 -13 0.37 0.29
-1 3 13 -0.1 0.34
-1 -3 13 0.73 0.36
1 3 13 -0.13 0.35
-1 -3 13 -0.28 0.29
-1 3 -13 0.58 0.3
-1 3 14 6.29 0.64
1 3 -14 6.03 0.52
1 -3 14 6.56 0.57
1 -3 14 5.48 0.69
-1 -3 14 5.14 0.69
-1 -3 14 6.74 0.59
-1 3 -14 6.11 0.54
1 -3 15 -0.15 0.31
-1 3 15 1.08 0.45
1 -3 15 0.55 0.33
1 3 -15 0.49 0.29
-1 -3 15 1.02 0.34
-1 3 -15 0.61 0.3
1 3 15 0.92 0.4
-1 -3 15 -0.2 0.32
1 -3 -15 0.49 0.3
-1 3 16 3.07 0.49
1 3 -16 2.18 0.37
1 -3 16 2.16 0.41
-1 3 -16 2.32 0.37
-1 -3 16 2.55 0.41
1 -3 -16 2.03 0.38
1 3 16 2.63 0.44
1 -3 17 0.73 0.28
-1 3 17 0.44 0.33
1 3 -17 0.51 0.28
-1 -3 17 0.5 0.28
-1 3 -17 0.36 0.29
1 3 17 0.07 0.29
1 3 -18 0.84 0.27
1 -3 18 0.87 0.26
-1 3 18 0.69 0.28
-1 3 -18 0.5 0.27
-1 -3 18 0.76 0.25
1 3 -19 0.32 0.25
-1 3 19 0.33 0.24
1 -3 19 0.38 0.23
-1 3 -19 0.26 0.24
-1 -3 19 0.33 0.22
-2 -3 0 0.31 0.16
-2 3 0 -0.18 0.17
2 3 0 -0.03 0.09
-2 3 0 0.06 0.12
2 -3 0 0.06 0.23
2 3 0 -0.11 0.11
2 -3 0 0.01 0.1
-2 -3 0 -0.01 0.09
-2 3 0 0.07 0.12
-2 -3 0 -0.08 0.06
-2 -3 -1 162.43 9.4
-2 3 1 152.98 9.4
2 -3 1 168.25 9.38
2 -3 1 156.82 9.43
-2 3 1 182.01 9.37
-2 -3 -1 169.3 9.39
-2 -3 1 165.32 9.41
2 -3 -1 164.9 9.4
-2 -3 1 175.27 9.4
-2 3 -1 182.02 9.36
2 3 1 170.56 9.39
-2 -3 -2 173.06 9.38
-2 3 2 147.11 9.38
2 -3 2 170.23 9.41
2 -3 2 172.71 9.37
-2 -3 2 178.96 9.38
-2 -3 2 177.05 9.35
-2 -3 2 174.12 9.38
2 3 2 169.73 9.36
2 -3 -2 144.81 9.33
2 -3 3 60.74 3.16
-2 3 3 50.6 3.16
-2 3 3 50.76 3.21
-2 -3 -3 60.41 3.23
-2 3 3 47.73 3.24
2 -3 3 57.92 3.26
-2 -3 3 56.9 3.22
-2 -3 3 60.06 3.25
2 3 3 56.53 3.22
-2 -3 3 63.95 3.2
-2 -3 -4 47.36 2.72
2 -3 4 46.18 2.78
2 -3 4 47.62 2.66
-2 -3 4 42.88 2.75
2 3 4 49.52 2.71
-2 -3 4 48.63 2.73
-2 -3 4 47.83 2.7
2 3 4 47.59 2.73
-2 3 5 5.54 0.6
-2 3 5 4.61 0.66
-2 -3 -5 6.36 0.53
2 -3 5 5.14 0.46
2 -3 5 5.74 0.72
-2 -3 5 7.2 0.6
2 3 5 6.92 0.6
-2 -3 5 6.39 0.5
-2 -3 5 5.82 0.67
2 -3 6 68.09 3.94
-2 -3 -6 72.71 3.96
2 -3 6 76.15 4.14
2 -3 6 67.58 3.9
-2 3 6 70.45 4.04
-2 3 6 61.6 4.02
-2 3 6 70.14 3.88
-2 -3 6 60.26 3.91
-2 -3 6 66.01 3.96
2 3 6 69.82 3.91
-2 -3 6 72.05 3.99
2 3 6 72.74 4.02
-2 3 7 1.02 0.54
-2 3 7 1.25 0.58
-2 3 7 0.64 0.24
-2 -3 7 1.64 0.45
2 3 7 0.31 0.55
2 3 7 1.16 0.27
2 3 7 0.58 0.4
-2 3 8 167.51 9.64
2 -3 8 184.5 9.76
-2 3 8 179.91 9.45
2 -3 8 174.68 9.47
2 3 8 158.76 9.62
2 3 8 176.79 9.61
-2 -3 8 150.82 9.47
2 3 8 181.64 9.47
-2 -3 8 144.17 9.73
-2 3 9 2.73 0.49
2 -3 9 2.54 0.53
-2 -3 9 3.08 0.56
2 3 9 3.31 0.56
-2 3 10 25.03 1.48
2 -3 10 24.88 1.49
2 3 10 20.54 1.51
2 3 10 26.5 1.49
-2 -3 10 22.16 1.51
2 -3 11 18.95 1.18
-2 3 11 18.39 1.18
-2 -3 11 16.22 1.17
2 3 11 19.08 1.17
2 3 11 14.93 1.19
2 -3 12 4.74 0.6
-2 3 12 4.76 0.66
-2 -3 12 3.35 0.63
2 3 12 4.89 0.59
2 -3 13 4.14 0.61
-2 3 13 3.42 0.65
2 3 -13 3.1 0.42
-2 3 13 4.53 0.56
-2 3 -13 4.28 0.43
2 3 13 3.71 0.66
-2 -3 13 3.57 0.64
-2 -3 13 4.93 0.55
2 3 -14 2.04 0.34
2 -3 14 1.43 0.37
2 -3 14 1.98 0.36
2 -3 -14 2.06 0.33
-2 -3 14 1.31 0.38
-2 3 -14 2.79 0.38
2 -3 15 2.8 0.43
-2 3 15 4.09 0.6
2 3 -15 3.29 0.45
2 -3 15 3.94 0.47
-2 -3 15 4.13 0.46
-2 3 -15 4.17 0.43
2 -3 -15 4.08 0.43
-2 3 16 4.33 0.54
2 -3 16 3.37 0.44
2 3 -16 3.54 0.43
-2 -3 16 3.65 0.45
2 -3 -16 3.03 0.42
-2 3 -16 4.05 0.41
2 3 -17 0.3 0.28
2 -3 17 0.28 0.27
-2 3 17 0.31 0.33
-2 3 -17 0.3 0.29
2 -3 -17 0.06 0.26
-2 -3 17 0.5 0.28
-2 3 18 5.15 0.45
2 3 -18 5.65 0.44
2 -3 18 5.61 0.45
-2 3 -18 5.74 0.46
-2 -3 18 5.32 0.45
2 -3 19 -0.05 0.22
2 3 -19 -0.11 0.24
-2 3 19 0.06 0.23
-2 -3 19 0.33 0.21
-2 3 -19 0 0.25
-3 -3 0 61.64 3.43
3 3 0 62.8 3.42
-3 3 0 59.45 3.41
-3 -3 0 58.38 3.44
-3 -3 -1 43.54 2.69
-3 3 1 52.26 2.68
-3 3 1 45.37 2.65
-3 -3 -1 45.66 2.67
-3 -3 1 44.14 2.68
-3 -3 1 47.92 2.68
3 3 1 46.94 2.66
-3 3 -1 49.45 2.64
-3 3 2 85.72 4.56
-3 3 2 77.56 4.59
3 -3 2 78.09 4.57
-3 3 2 87.06 4.55
-3 -3 -2 80.98 4.59
-3 -3 2 83.72 4.58
-3 3 -2 77.63 4.52
3 3 2 78.79 4.56
-3 -3 2 81.59 4.58
-3 -3 2 79.01 4.56
-3 3 3 1.63 0.2
3 -3 3 2.21 0.3
-3 -3 -3 1.88 0.33
-3 3 3 1.89 0.3
-3 3 3 1.72 0.27
-3 -3 3 2.22 0.33
-3 -3 3 2.14 0.24
-3 -3 3 1.98 0.28
3 3 3 2.31 0.29
-3 3 4 10.26 0.86
3 -3 4 13.01 0.73
3 -3 4 12.24 0.87
-3 -3 -4 12.87 0.85
-3 3 4 11.99 0.84
-3 -3 4 12.76 0.83
3 3 4 12.32 0.82
-3 -3 4 12.03 0.84
-3 -3 4 13.69 0.8
3 -3 5 0.36 0.31
-3 -3 -5 0.46 0.27
-3 3 5 0.34 0.12
-3 3 5 0.02 0.3
3 -3 5 0.37 0.14
-3 3 5 0.37 0.33
-3 -3 5 0.48 0.27
-3 -3 5 0.81 0.29
3 3 5 0.77 0.23
3 3 5 0.74 0.29
3 3 5 0.65 0.19
-3 -3 5 0.62 0.23
-3 3 6 4.11 0.73
3 -3 6 4.69 0.48
-3 3 6 3.79 0.86
-3 3 6 3.66 0.4
-3 -3 -6 4.42 0.6
3 -3 6 4.51 0.51
3 3 6 4.4 0.71
-3 3 -6 5.28 0.73
-3 -3 6 5.03 0.67
-3 -3 6 5.46 0.6
-3 -3 6 6.28 0.86
3 3 6 5.08 0.61
-3 -3 6 4.35 0.53
-3 3 7 7.94 1.16
3 -3 7 8.08 0.74
3 -3 7 10.47 0.72
-3 3 7 8.79 1.05
-3 3 7 8.4 0.67
3 3 7 6.92 1
-3 3 -7 9.74 0.93
-3 -3 7 9.79 0.8
3 3 7 8.87 0.93
-3 -3 7 11.55 1.38
3 3 7 9.75 0.75
-3 -3 7 8.47 0.85
3 -3 8 18.53 1.23
-3 3 8 16.82 1.49
-3 3 8 20.56 1.18
3 -3 8 17.26 1.67
3 -3 8 20.78 1.23
3 3 8 18.95 1.2
-3 -3 8 15.62 1.84
3 3 8 18.29 1.37
-3 -3 8 18.88 1.24
3 -3 9 1.42 0.29
-3 3 9 2.24 0.44
3 -3 9 1.06 0.31
3 3 9 1.67 0.29
3 -3 10 15.4 1.03
3 -3 10 15 1.03
-3 3 10 15.75 1
-3 -3 10 13.45 1.05
3 3 10 14.59 1.03
3 -3 11 0.03 0.25
-3 3 11 -0.09 0.25
3 -3 11 0.01 0.27
-3 -3 11 -0.07 0.28
3 3 11 0.02 0.25
3 -3 12 23.82 1.43
-3 3 12 20 1.42
3 3 12 23.15 1.44
-3 -3 12 21.69 1.46
3 3 -13 0.11 0.29
-3 3 13 1.15 0.46
3 -3 13 0.02 0.29
-3 3 13 0.08 0.33
-3 -3 13 -0.13 0.32
-3 -3 13 1.14 0.39
3 3 13 -0.03 0.32
3 -3 -13 -0.16 0.21
-3 3 -13 0.74 0.32
3 3 -14 16.25 1.01
-3 3 14 13.99 1.19
3 -3 14 14.68 1
3 -3 14 16.07 1.14
-3 3 14 16.01 1.1
3 -3 -14 16.53 1
-3 -3 14 16.08 1.18
-3 3 -14 16.34 1
-3 -3 14 16.37 1.05
-3 3 15 1.05 0.46
3 -3 15 0.41 0.31
3 3 -15 0.05 0.29
-3 3 -15 0.76 0.32
-3 -3 15 0.72 0.34
3 -3 -15 0.36 0.28
-3 -3 15 -0.45 0.33
3 3 -16 5.07 0.47
3 -3 16 5.27 0.49
-3 3 16 5.17 0.58
3 -3 -16 5.2 0.48
-3 -3 16 5.46 0.51
-3 3 -16 5.39 0.49
3 -3 17 -0.03 0.27
3 3 -17 0.41 0.27
-3 3 17 0.71 0.32
-3 -3 17 0.47 0.27
3 -3 -17 0.15 0.26
-3 3 -17 0.32 0.27
3 -3 18 1.03 0.27
-3 3 18 1.28 0.29
3 3 -18 1.47 0.29
-3 3 -18 1.34 0.28
-3 -3 18 1.17 0.27
-3 3 19 0.1 0.24
3 3 -19 0.27 0.23
-3 3 -19 0.16 0.25
-3 -3 19 0.17 0.2
-4 3 0 -0.05 0.1
-4 -3 0 0.07 0.1
-4 -3 0 -0.03 0.15
-4 3 0 0.07 0.09
-4 3 0 -0.06 0.19
-4 3 1 1.47 0.2
-4 -3 -1 1.39 0.23
-4 3 1 1.72 0.3
-4 3 1 1.37 0.22
-4 -3 -1 1.55 0.28
-4 -3 1 1.3 0.22
-4 3 -1 1.37 0.18
4 3 1 1.49 0.21
-4 3 -1 1.96 0.35
-4 -3 1 1.48 0.26
-4 -3 -2 24.61 1.5
-4 3 2 25.66 1.45
-4 -3 -2 24.23 1.47
-4 3 2 23.66 1.45
-4 3 2 25.79 1.48
4 3 2 24.27 1.45
-4 -3 2 25.23 1.48
-4 3 -2 24.19 1.42
-4 -3 2 25.44 1.48
-4 -3 2 24.49 1.45
-4 3 -2 25.14 1.59
-4 3 3 8.49 0.63
-4 -3 -3 8.05 0.63
4 -3 3 8.1 0.59
-4 3 3 8.02 0.56
-4 3 3 7.86 0.53
4 3 3 8.56 0.57
-4 3 -3 8.05 0.74
-4 -3 3 8.11 0.6
-4 -3 3 8.09 0.59
-4 -3 3 8.25 0.56
-4 3 4 1.2 0.24
-4 -3 -4 1.25 0.31
-4 3 4 1.05 0.31
4 -3 4 1.25 0.26
-4 -3 4 1.45 0.29
-4 -3 4 1.33 0.26
-4 3 -4 0.97 0.36
4 3 4 1.51 0.27
-4 -3 4 1.28 0.23
-4 3 5 1.32 0.19
-4 3 5 1.84 0.43
4 -3 5 1.56 0.26
4 -3 5 1.71 0.2
-4 -3 -5 2.28 0.41
4 -3 5 1.71 0.38
-4 3 5 1.86 0.36
4 3 5 2.59 0.42
4 3 5 2.25 0.39
-4 -3 5 1.8 0.34
-4 -3 5 2.16 0.48
-4 3 -5 1.74 0.45
4 -3 6 0.34 0.2
-4 3 6 0.4 0.46
-4 3 6 0.1 0.18
-4 3 6 0.73 0.45
4 -3 6 -0.39 0.44
-4 -3 -6 0.43 0.38
4 -3 6 0.26 0.26
4 3 6 0.61 0.27
-4 -3 6 0.86 0.44
-4 -3 6 0.65 0.29
4 3 6 0.14 0.43
-4 3 -6 0.41 0.45
-4 -3 6 0.23 0.34
-4 -3 6 0.59 0.32
4 -3 7 0.1 0.27
-4 -3 -7 -0.5 0.36
-4 3 7 0.1 0.54
-4 3 7 0.1 0.22
4 -3 7 0.55 0.24
4 3 7 -0.33 0.51
-4 3 -7 -0.24 0.24
-4 -3 7 0.93 0.57
-4 -3 7 0.34 0.39
-4 3 -7 0.19 0.48
4 3 7 0.47 0.26
4 3 7 -0.17 0.36
4 -3 8 4.86 1.03
-4 3 8 6.66 0.59
4 -3 8 7.14 0.61
4 -3 8 6.19 0.64
4 3 8 6.63 0.61
-4 3 -8 5.29 0.58
-4 -3 8 7.38 0.71
4 -3 9 1.66 0.3
4 -3 9 1.49 0.32
-4 -3 9 1.58 0.33
-4 3 -9 1.15 0.26
4 3 9 1.07 0.26
4 -3 10 0.54 0.29
4 -3 10 0.75 0.27
-4 3 10 0.67 0.25
-4 -3 10 0.7 0.3
4 3 10 0.45 0.25
4 -3 11 0.18 0.27
-4 3 11 0.21 0.26
4 -3 11 0.38 0.3
-4 -3 11 0.41 0.3
4 3 11 -0.03 0.26
-4 3 12 -0.04 0.28
4 -3 12 0.03 0.31
4 -3 12 0 0.28
-4 -3 12 -0.16 0.31
4 3 12 -0.12 0.28
4 3 -13 0.42 0.31
-4 3 13 -0.11 0.33
4 -3 13 0.04 0.24
-4 3 13 1.43 0.46
4 -3 13 0.08 0.29
-4 -3 13 1.62 0.41
4 3 13 0.04 0.34
4 -3 -13 0.68 0.3
4 3 13 0.12 0.31
-4 3 -13 1.32 0.36
-4 -3 13 -0.15 0.34
-4 3 14 -0.21 0.36
4 -3 14 -0.02 0.3
4 3 -14 0.36 0.29
4 -3 14 0.04 0.32
4 3 14 -0.28 0.35
4 3 14 0.37 0.34
4 -3 -14 0.23 0.28
-4 -3 14 -0.12 0.35
-4 -3 14 0.96 0.38
-4 3 -14 1.15 0.35
4 3 -15 0.57 0.3
-4 3 15 -0.03 0.38
4 -3 15 0.84 0.31
-4 3 15 1.36 0.45
-4 3 -15 1.18 0.33
4 3 15 0.55 0.34
-4 -3 15 1.23 0.34
4 -3 -15 0.77 0.3
-4 -3 15 -0.12 0.34
-4 3 16 0.62 0.38
4 -3 16 0.26 0.29
4 3 -16 0.27 0.27
-4 3 -16 0.38 0.3
-4 -3 16 0.23 0.31
4 -3 -16 -0.06 0.27
4 3 16 -0.16 0.27
-4 3 17 0.76 0.33
4 3 -17 0.62 0.27
4 -3 17 0.29 0.27
-4 -3 17 0.76 0.29
-4 3 -17 0.73 0.28
4 -3 -17 0.51 0.27
4 3 -18 1.11 0.25
-4 3 18 0.94 0.28
-4 3 -18 1.02 0.27
-4 -3 18 1.09 0.26
-4 3 19 0.1 0.23
4 3 -19 0.08 0.23
-4 -3 19 0.19 0.21
-4 3 -19 -0.03 0.26
-5 -3 0 14.95 0.98
-5 3 0 16.22 1.04
-5 -3 0 16.31 1.02
-5 3 0 15.71 0.96
-5 3 0 15.89 0.95
-5 3 1 6.78 0.47
-5 -3 -1 6.7 0.53
-5 3 1 6.51 0.52
-5 3 1 6.42 0.47
-5 -3 -1 6.31 0.49
-5 -3 1 6.53 0.48
-5 3 -1 6.28 0.44
-5 -3 1 6.51 0.52
-5 3 -1 6.48 0.6
-5 3 -1 6.64 0.48
5 3 1 6.59 0.46
-5 3 2 30.14 1.75
-5 3 2 30.93 1.73
-5 -3 -2 29.08 1.79
-5 -3 -2 29.88 1.76
-5 3 2 28.3 1.73
-5 -3 2 30.38 1.76
-5 3 -2 28.75 1.7
-5 -3 2 30.14 1.74
-5 -3 2 28.61 1.75
5 3 2 29.88 1.73
-5 3 -2 28.95 1.86
-5 3 3 0.2 0.14
-5 -3 -3 0.32 0.24
5 -3 3 0.13 0.15
-5 -3 -3 0.39 0.17
-5 3 3 0.28 0.22
-5 3 3 0.22 0.16
5 3 3 0.02 0.08
-5 -3 3 0.48 0.18
-5 -3 3 0.2 0.17
-5 3 -3 0.32 0.32
-5 -3 3 0.42 0.23
5 3 3 0.5 0.19
-5 -3 -4 4.98 0.58
5 -3 4 4.24 0.46
-5 3 4 5.25 0.48
-5 3 4 4.25 0.34
-5 3 4 3.92 0.53
5 -3 4 4.36 0.5
-5 3 -4 4.09 0.7
5 3 4 4.12 0.44
-5 -3 4 5.63 0.53
5 3 4 4.91 0.48
-5 -3 4 4.99 0.5
-5 -3 4 4.46 0.43
-5 3 5 1.47 0.43
-5 3 5 1.3 0.21
5 -3 5 0.94 0.38
-5 -3 -5 2.04 0.46
5 -3 5 1.38 0.27
5 3 5 2.49 0.43
-5 3 -5 1.46 0.53
-5 -3 5 1.64 0.35
5 3 5 1.46 0.29
-5 -3 5 1.84 0.33
-5 -3 5 2.48 0.53
5 3 5 1.4 0.39
-5 -3 -6 0.17 0.43
-5 3 6 -0.06 0.19
-5 3 6 0.36 0.47
5 -3 6 0.23 0.26
5 -3 6 -0.54 0.41
-5 3 6 0.41 0.43
5 3 6 0.77 0.28
5 3 6 0.03 0.14
5 3 6 0.28 0.42
-5 3 -6 0.5 0.53
-5 -3 6 0.97 0.42
-5 -3 6 0.4 0.34
-5 3 7 1.54 0.64
-5 3 7 2.5 0.4
5 -3 7 2.82 0.52
5 -3 7 2.15 0.62
5 -3 7 2.99 0.43
5 3 7 2.85 0.59
-5 -3 7 1.9 0.47
5 3 7 3.63 0.53
-5 -3 7 2.25 0.59
-5 3 -7 2.91 0.61
5 -3 8 7.24 0.7
5 -3 8 8.52 0.67
-5 3 8 8.7 0.63
5 3 8 8.16 0.7
-5 3 -8 7.89 0.67
-5 -3 8 7.84 0.72
5 -3 9 2.36 0.48
5 -3 9 1.46 0.32
-5 3 -9 2.56 0.44
5 3 9 1.78 0.31
-5 -3 9 1.74 0.34
-5 3 10 6.61 0.61
5 -3 10 6.56 0.69
5 -3 10 6.12 0.64
5 3 10 6.15 0.61
-5 3 -10 4.98 0.58
-5 -3 10 5.32 0.66
5 -3 11 0.16 0.28
-5 3 11 0.13 0.26
5 -3 11 0.17 0.3
5 3 11 0.17 0.27
-5 -3 11 -0.06 0.31
5 -3 12 6.19 0.67
-5 3 12 5.96 0.59
-5 3 12 6.07 0.7
5 -3 12 6.79 0.75
-5 -3 12 4.87 0.72
-5 3 -12 5.92 0.56
5 3 12 6.27 0.7
-5 3 13 0.77 0.44
5 -3 13 0.13 0.33
5 -3 13 -0.33 0.28
5 3 -13 -0.17 0.31
-5 3 13 -0.06 0.33
5 3 13 -0.34 0.34
-5 3 -13 0.84 0.38
-5 -3 13 0.6 0.41
5 3 13 -0.27 0.34
5 -3 -13 0.09 0.27
-5 3 14 3.58 0.55
5 3 -14 3.15 0.42
5 3 14 2.83 0.43
-5 3 -14 3.63 0.47
5 3 14 2.13 0.45
5 -3 -14 3.04 0.39
-5 -3 14 3.63 0.51
-5 -3 -15 0.07 0.33
5 3 -15 0.21 0.28
-5 3 15 1.24 0.44
5 -3 -15 0.13 0.27
5 3 15 -0.17 0.33
-5 3 -15 0.69 0.32
-5 -3 15 0.82 0.33
5 3 -16 0.66 0.28
-5 -3 -16 -0.03 0.29
-5 3 16 0.83 0.39
5 -3 16 -0.03 0.29
5 3 16 0.22 0.31
-5 -3 16 0.81 0.31
-5 3 -16 0.64 0.3
5 -3 -16 0.39 0.27
5 3 -17 1.05 0.26
-5 3 17 0.84 0.33
-5 -3 17 1.01 0.28
5 3 17 0.52 0.23
5 -3 -17 0.72 0.26
-5 3 -17 0.9 0.28
5 3 -18 0.46 0.25
-5 3 18 0.65 0.26
-5 3 -18 0.22 0.24
-5 -3 18 0.31 0.23
5 -3 -18 0.32 0.2
-5 3 19 0.3 0.23
-5 -3 19 0.38 0.21
-5 3 -19 0.3 0.26
-6 -3 0 0.14 0.14
-6 3 0 0.1 0.23
-6 3 0 0.12 0.13
-6 -3 0 0.16 0.23
6 3 0 0.02 0.1
-6 3 0 0.04 0.13
-6 -3 -1 109.69 5.87
-6 -3 -1 105.89 5.89
-6 3 1 106.39 5.84
-6 3 1 97.67 5.86
-6 3 1 105.93 5.84
-6 3 -1 103.02 5.92
-6 3 -1 104.39 5.85
6 3 1 91.39 5.79
-6 3 -1 104.49 5.82
-6 -3 1 102.11 5.86
-6 -3 1 106.18 5.87
-6 3 2 38.73 2.24
-6 3 2 36.56 2.25
-6 -3 -2 39.25 2.32
-6 3 2 38.95 2.26
-6 -3 -2 38.43 2.28
-6 -3 2 40.07 2.27
-6 3 -2 40.56 2.4
6 3 2 35.57 2.2
6 3 2 37.74 2.24
-6 3 -2 38.13 2.21
-6 -3 2 39.52 2.26
-6 -3 2 38.63 2.27
-6 -3 -3 10.48 0.85
6 -3 3 10.55 0.73
-6 -3 -3 10.77 0.77
-6 3 3 9.3 0.7
-6 3 3 10.57 0.73
-6 3 3 10.06 0.77
-6 3 -3 9.54 0.98
-6 -3 3 10.78 0.74
6 3 3 9.4 0.68
-6 -3 3 10.86 0.77
6 3 3 10.64 0.75
-6 -3 3 11.1 0.78
-6 3 4 66.7 3.97
-6 -3 -4 68.98 4.02
-6 -3 -4 69.57 3.97
-6 3 4 71.1 3.94
6 -3 4 65.85 3.89
-6 3 4 65.57 3.84
6 3 4 66.82 3.87
-6 3 -4 69.13 4.11
-6 -3 4 70.93 3.97
-6 -3 4 68.61 3.94
-6 -3 4 71.46 3.94
6 3 4 65.54 3.89
6 3 4 68.45 3.93
6 -3 5 15.19 1.04
-6 3 5 14.83 0.96
-6 3 5 13.69 1.15
-6 -3 -5 15.65 1.21
-6 3 5 14.85 1.11
6 3 5 15.74 1.1
-6 3 -5 16.14 1.38
-6 -3 5 16.39 1.14
6 3 5 16.73 1.07
6 3 5 14.83 0.96
-6 -3 5 16.74 1.07
6 -3 6 133.72 7.81
6 -3 6 137.67 7.95
-6 3 6 141.09 7.76
-6 -3 -6 132.19 7.95
-6 -3 6 143.72 7.94
6 3 6 143.04 7.81
6 3 6 126.33 7.87
6 3 6 137.71 7.77
-6 3 -6 146.01 8.05
-6 -3 6 144.94 7.89
-6 3 7 2.01 0.36
6 -3 7 0.89 0.42
6 -3 7 1.39 0.23
6 -3 7 1.52 0.29
-6 -3 7 2.76 0.55
6 3 7 1.82 0.31
6 -3 8 80.11 4.33
-6 3 8 81.96 4.31
6 -3 8 74.45 4.35
-6 3 -8 73.78 4.32
6 3 8 80.55 4.36
-6 -3 8 65.18 4.33
-6 3 9 4.26 0.5
6 -3 9 3.86 0.55
6 -3 9 3.64 0.5
-6 -3 9 2.86 0.56
6 3 9 3.33 0.51
-6 3 -9 3.69 0.51
6 -3 10 16.01 1.1
-6 3 10 16.29 1.04
6 -3 10 16.08 1.08
-6 -3 10 12.91 1.09
-6 3 -10 15.69 1.04
6 3 10 16.24 1.08
-6 3 11 1.62 0.33
6 -3 11 1.63 0.36
-6 -3 11 1.24 0.37
6 3 11 1.61 0.34
-6 3 12 4.73 0.57
6 -3 12 4.8 0.71
6 3 -12 2.6 0.49
-6 3 12 3.56 0.64
6 3 12 3.75 0.51
6 -3 -12 4.38 0.44
-6 3 -12 5.09 0.57
6 3 12 3.4 0.64
-6 3 13 6.45 0.64
-6 3 13 4.12 0.73
6 3 -13 4.96 0.52
6 -3 13 5.21 0.74
6 3 13 5.17 0.74
6 -3 -13 5.24 0.5
-6 3 -13 5.3 0.53
-6 -3 13 5.33 0.61
-6 -3 13 3.79 0.74
6 3 13 4.68 0.59
-6 3 14 1.33 0.44
-6 -3 -14 1.73 0.39
6 3 -14 1.11 0.32
6 -3 14 0.43 0.33
-6 -3 14 1.32 0.39
6 3 14 0.42 0.33
6 -3 -14 1.09 0.29
6 3 14 0.46 0.37
-6 -3 -15 3.76 0.45
-6 3 15 3.82 0.56
6 3 -15 3.4 0.43
-6 -3 15 3.77 0.47
-6 3 -15 3.7 0.42
6 -3 -15 3.37 0.41
6 3 15 3.1 0.51
-6 -3 -16 2.43 0.37
-6 3 16 2.81 0.45
6 3 -16 3.13 0.38
6 3 16 2.53 0.37
-6 -3 16 3.14 0.38
-6 3 -16 2.97 0.37
6 -3 -16 2.51 0.37
-6 3 17 0.44 0.3
6 3 -17 0.45 0.25
6 -3 -17 0.2 0.25
-6 3 -17 0.37 0.26
-6 -3 17 0.54 0.26
6 3 17 0.18 0.26
6 3 -18 0.92 0.25
-6 3 18 0.89 0.26
-6 3 -18 0.81 0.26
-6 -3 18 0.85 0.24
-7 3 0 120.74 6.76
-7 3 0 120.46 6.83
-7 3 0 118.81 6.78
7 3 0 107.27 6.72
-7 -3 0 124.44 6.81
-7 -3 0 127.7 6.84
-7 3 1 0.72 0.3
-7 -3 -1 1.19 0.37
-7 3 1 0.95 0.21
-7 3 1 1.43 0.25
-7 -3 -1 1.01 0.26
-7 -3 1 1.11 0.26
-7 -3 1 1.19 0.28
-7 -3 1 1.22 0.34
-7 3 -1 0.65 0.22
7 3 1 0.76 0.18
-7 3 -1 1.39 0.23
-7 3 -1 1.24 0.4
-7 3 2 108.35 6.37
-7 3 2 110.73 6.37
-7 -3 -2 118.45 6.41
-7 -3 -2 110.5 6.43
-7 3 2 109.31 6.36
7 -3 2 114.78 6.32
7 3 2 106.62 6.31
-7 3 -2 114.73 6.5
-7 -3 2 116.64 6.38
-7 3 -2 109.3 6.33
-7 -3 2 111.9 6.39
-7 -3 2 115.17 6.39
-7 3 -2 113.97 6.4
7 -3 3 4.46 0.52
-7 3 3 4.43 0.48
-7 -3 -3 4.22 0.54
-7 3 3 4.32 0.53
-7 -3 -3 4.7 0.67
-7 3 -3 4.78 0.88
-7 -3 3 4.47 0.5
-7 -3 3 4.29 0.55
-7 -3 3 5.07 0.59
7 3 3 4.11 0.44
7 3 3 4.39 0.51
-7 -3 -4 129.63 7.08
-7 3 4 122.69 6.93
7 -3 4 128.78 6.98
-7 -3 -4 125.82 7.12
-7 3 4 120.52 7.07
-7 3 4 113.9 7.02
7 3 4 123.52 6.98
-7 -3 4 128.37 7.07
-7 3 -4 126.28 7.23
-7 -3 4 129.34 7.04
7 3 4 119.45 7.02
7 3 4 118.39 6.95
-7 3 5 1.37 0.46
7 -3 5 1.2 0.27
-7 3 5 1.05 0.2
-7 -3 -5 1.09 0.34
-7 -3 -5 1.39 0.51
-7 -3 5 1.67 0.39
7 3 5 1.49 0.38
-7 3 -5 1.51 0.62
7 3 5 1.31 0.3
-7 -3 5 1.54 0.36
7 3 5 0.97 0.2
-7 3 6 2.77 0.58
-7 -3 6 3.95 0.7
-7 3 -6 5.32 0.93
-7 -3 6 4.03 0.54
-7 3 7 7.04 0.56
7 -3 7 6.54 0.64
7 3 7 6.97 0.66
7 -3 8 12.99 0.96
7 3 8 13.38 0.95
7 -3 9 1.41 0.31
-7 3 9 1.51 0.27
-7 3 -9 1.55 0.29
-7 -3 9 0.67 0.31
7 3 9 1 0.27
-7 3 10 13.19 0.93
7 -3 10 12.18 0.97
7 3 10 11.41 0.95
-7 3 -10 13.54 0.95
7 3 -11 -0.17 0.28
7 -3 11 0.13 0.27
7 -3 11 0.5 0.32
-7 3 11 0.38 0.3
-7 3 -11 0.02 0.28
-7 -3 11 0.19 0.35
7 3 11 0.3 0.31
7 3 11 0.38 0.31
-7 3 -11 0.89 0.5
7 -3 -11 0.92 0.31
-7 3 12 21.35 1.3
7 -3 12 21.35 1.3
7 3 -12 21.83 1.31
-7 3 12 19.56 1.39
7 -3 12 22.33 1.44
7 -3 -12 21.43 1.28
-7 -3 12 17.83 1.4
-7 3 -12 20.22 1.31
7 3 12 20.4 1.3
7 3 12 20.19 1.44
-7 3 13 1.04 0.43
7 -3 13 0.36 0.33
7 -3 13 0.21 0.36
-7 3 13 0 0.36
7 3 -13 0.42 0.33
7 3 13 0.02 0.37
7 -3 -13 0.26 0.27
7 3 13 0.18 0.33
-7 -3 13 0.89 0.41
-7 -3 13 -0.61 0.36
7 -3 14 11.55 0.79
7 3 -14 11.35 0.76
-7 3 14 10.14 0.82
-7 -3 -14 10.99 0.78
7 3 14 11.47 0.97
-7 -3 14 10.54 0.78
7 3 14 9.32 0.78
-7 3 -14 11.85 0.78
7 -3 -14 9.66 0.72
7 3 -15 1.58 0.31
-7 3 15 2.42 0.45
-7 -3 -15 2.08 0.38
7 -3 15 1.01 0.32
7 3 15 1.28 0.33
7 -3 -15 1.7 0.31
-7 3 -15 2.09 0.36
-7 -3 15 2.12 0.37
-7 3 16 1.56 0.38
7 3 -16 1.75 0.32
7 -3 16 1.07 0.3
-7 -3 -16 1.93 0.33
-7 3 -16 1.86 0.36
7 3 16 1.23 0.32
-7 -3 16 1.84 0.33
7 -3 -16 1.72 0.33
-7 3 17 1.61 0.32
7 3 -17 1.16 0.26
7 3 17 1.02 0.28
7 -3 -17 1.05 0.25
-7 3 -17 1.42 0.28
-7 -3 17 1.58 0.28
-7 3 18 0.5 0.24
-7 -3 18 0.28 0.23
7 -3 -18 0.58 0.19
-7 3 -18 0.49 0.25
-8 -3 0 0.08 0.35
-8 3 0 0.07 0.2
-8 -3 0 -0.08 0.22
8 3 0 0.04 0.17
-8 3 0 -0.04 0.35
-8 3 0 -0.07 0.19
-8 3 1 12.86 0.9
-8 3 1 12.95 0.9
-8 -3 -1 13.27 1.04
-8 -3 -1 13.42 0.96
8 3 -1 12.48 0.86
-8 3 1 11.73 0.97
-8 3 -1 12.04 0.86
-8 3 -1 14.07 1.11
8 3 1 13.09 0.86
-8 -3 1 13.08 0.93
-8 -3 1 13.66 1.03
-8 3 -1 13.21 0.94
-8 -3 1 13.73 0.95
-8 -3 -2 18.06 1.22
-8 3 2 16.94 1.16
-8 3 2 16.1 1.14
-8 -3 -2 17.89 1.28
-8 -3 2 17.8 1.2
-8 3 -2 17.68 1.2
-8 3 -2 19.01 1.4
-8 -3 2 17.92 1.17
-8 -3 2 18.03 1.23
8 3 2 16.97 1.08
-8 -3 -3 8.15 0.88
-8 3 3 8.78 0.77
8 -3 3 9.85 0.7
-8 -3 -3 9.01 0.78
-8 3 -3 9.3 1.07
8 3 3 8.38 0.64
-8 -3 3 9.22 0.72
-8 3 -3 8.83 0.77
-8 -3 3 8.77 0.76
-8 3 4 23.38 1.35
8 -3 4 24.42 1.43
-8 -3 -4 21.24 1.62
-8 3 4 21.64 1.52
-8 -3 -4 21.88 1.52
-8 -3 4 23.24 1.48
8 3 4 24.48 1.44
-8 -3 4 22.63 1.52
8 3 4 22.38 1.38
-8 3 -4 24 1.78
8 -3 5 0.99 0.24
-8 -3 -5 0.22 0.25
-8 3 5 1.09 0.2
-8 -3 5 0.57 0.32
8 3 5 0.66 0.39
-8 3 -5 1.06 0.63
8 3 5 0.72 0.17
8 3 5 1.33 0.31
8 -3 6 30.11 1.87
-8 3 6 30.59 1.81
8 3 6 32.04 1.9
8 -3 7 -0.16 0.22
-8 3 7 0.09 0.19
8 3 7 -0.18 0.25
8 -3 8 28.19 1.78
-8 3 8 30.38 1.72
8 3 8 27.27 1.78
-8 3 9 1.44 0.28
8 -3 9 1.35 0.31
8 3 9 0.91 0.3
-8 3 -9 1.53 0.31
8 -3 10 8.89 0.8
-8 3 10 8.55 0.72
8 -3 -10 6.41 0.6
-8 3 -10 8.64 0.74
8 3 10 7.63 0.75
8 3 10 6.04 0.63
-8 3 11 1.85 0.4
8 -3 11 1.31 0.35
-8 3 11 0.63 0.33
8 3 -11 0.73 0.38
8 -3 11 1.05 0.35
8 -3 -11 1.08 0.31
8 3 11 1.38 0.34
8 3 11 0.86 0.34
-8 3 -11 1.06 0.35
8 -3 12 2.44 0.41
8 -3 12 1.61 0.41
8 3 -12 1.88 0.41
-8 3 12 2.76 0.45
8 -3 -12 2.49 0.37
8 3 12 2.24 0.39
8 3 12 1.59 0.42
8 3 -13 2.17 0.38
8 -3 13 1.56 0.4
-8 3 13 2.86 0.45
8 -3 13 1.88 0.36
8 3 13 1.7 0.43
-8 -3 13 2.46 0.43
8 -3 -13 1.81 0.36
8 3 13 1.78 0.35
-8 3 14 1.06 0.42
8 -3 14 0.15 0.3
8 3 14 0.19 0.35
-8 -3 14 0.79 0.36
8 3 14 0.23 0.29
-8 3 -14 1.26 0.37
-8 -3 14 0.88 0.38
-8 -3 -15 2.99 0.42
8 -3 15 2.13 0.35
-8 3 15 3.09 0.46
8 3 -15 2.44 0.39
-8 -3 15 2.58 0.41
-8 3 -15 2.69 0.41
8 3 15 2.18 0.36
8 -3 -15 2.53 0.37
8 3 -16 0.24 0.24
-8 -3 -16 0.49 0.29
-8 3 16 0.23 0.33
8 -3 16 -0.33 0.25
-8 -3 16 -0.03 0.28
8 3 16 -0.1 0.25
8 -3 -16 0.1 0.23
-8 3 -16 0.32 0.28
-8 3 17 0.32 0.27
8 3 -17 0.38 0.22
-8 -3 17 0.02 0.24
8 3 17 0.16 0.24
-8 3 -17 0.34 0.24
8 -3 -17 0.34 0.22
-8 3 18 0.47 0.23
8 -3 -18 0.1 0.22
-8 3 -18 0.28 0.25
9 3 -1 2.35 0.39
-9 -3 -1 2.46 0.45
-9 -3 -1 1.92 0.48
9 3 1 1.85 0.37
-9 -3 1 2.5 0.46
-9 -3 1 2.29 0.4
-9 3 -1 1.7 0.47
-9 -3 -2 12.17 0.92
-9 -3 -2 10.19 1.01
9 3 -2 11.33 0.79
-9 -3 2 11.4 0.89
-9 3 -2 10.7 1.08
-9 -3 2 11.57 0.88
9 3 2 12.12 0.78
-9 -3 -3 0.88 0.46
-9 3 -3 0.98 0.56
-9 -3 3 1.54 0.34
9 -3 4 1.41 0.26
-9 3 4 0.78 0.16
9 3 4 0.71 0.25
9 3 4 1.16 0.21
-9 -3 4 0 0.38
-9 3 5 4.72 0.42
9 -3 5 4.46 0.52
9 3 5 4.26 0.57
-9 3 6 0.83 0.2
9 -3 6 0.85 0.27
9 3 6 0.76 0.29
-9 3 7 3.03 0.41
9 -3 7 2.34 0.35
9 3 7 2 0.36
9 -3 8 0.01 0.26
-9 3 8 0.28 0.23
9 3 8 0.39 0.31
-9 3 9 2.59 0.52
9 -3 9 2.01 0.37
-9 3 -9 1.94 0.35
9 3 9 1.82 0.37
9 -3 10 2.8 0.43
9 -3 10 2.72 0.41
-9 3 10 2.46 0.39
9 -3 -10 2.15 0.36
-9 3 -10 3.46 0.66
9 3 10 2.58 0.44
9 3 10 2.43 0.39
9 3 -11 0.77 0.28
-9 3 11 0.06 0.34
9 -3 11 0.97 0.36
9 -3 11 0.61 0.34
9 3 -11 0.03 0.38
-9 3 11 1.26 0.37
9 -3 -11 0.55 0.3
-9 3 -11 0.66 0.35
9 3 11 0.94 0.34
9 3 11 0.71 0.38
-9 3 12 2.58 0.44
9 -3 12 1.96 0.36
9 3 -12 2.08 0.34
9 -3 12 1.88 0.42
9 3 -12 1.26 0.4
-9 3 12 0.95 0.4
9 3 12 2.09 0.45
9 3 12 2.39 0.39
9 -3 -12 1.58 0.32
9 3 -13 -0.34 0.3
-9 3 13 0.4 0.39
9 3 -13 -0.04 0.26
9 -3 13 -0.13 0.27
9 -3 13 -0.08 0.35
9 3 13 -0.08 0.37
9 -3 -13 -0.1 0.25
9 3 13 0.03 0.31
9 3 -14 0.87 0.27
9 -3 14 0.96 0.3
9 3 -14 0.85 0.3
-9 3 14 1.32 0.42
-9 -3 14 0.51 0.34
-9 3 -14 1.56 0.38
9 3 14 0.85 0.31
9 -3 -14 0.93 0.28
-9 3 15 0.56 0.35
9 -3 15 0.22 0.26
9 3 -15 0.11 0.18
9 3 -15 0.1 0.25
-9 -3 -15 0.69 0.35
-9 3 -15 0.45 0.31
9 3 15 0.2 0.27
-9 -3 15 0.29 0.32
9 -3 -15 0.26 0.24
-9 -3 15 0.22 0.29
-9 -3 -16 0.32 0.29
-9 3 16 0.18 0.31
9 3 -16 0.14 0.22
9 -3 16 0.08 0.24
-9 -3 16 -0.09 0.26
9 3 16 0.09 0.24
-9 3 -16 0.47 0.26
9 -3 -16 0.12 0.22
-9 3 17 0.71 0.26
9 3 17 0.44 0.23
-9 3 -17 0.51 0.24
9 -3 -17 0.28 0.21
10 3 0 0 0.17
10 3 -1 11.87 0.81
10 3 1 11.64 0.81
10 3 -2 22.82 1.43
10 3 2 24.01 1.43
10 3 -3 0 0.13
10 3 3 0.14 0.14
10 3 4 30.08 1.74
10 3 4 28.42 1.78
-10 3 5 0.27 0.16
10 -3 5 0.16 0.22
10 3 5 0.27 0.25
-10 3 6 50.93 2.96
10 -3 6 53.66 3.04
10 3 6 50.6 3.05
-10 3 7 0.3 0.22
10 -3 7 0.33 0.27
10 3 7 0.31 0.31
10 3 -9 -0.27 0.3
10 -3 9 0.34 0.33
-10 3 9 0.18 0.28
10 3 -9 0.66 0.28
10 -3 9 0.34 0.31
10 -3 -9 0.46 0.32
-10 3 -9 0.28 0.32
10 3 9 0.62 0.35
10 3 9 0.49 0.34
10 -3 10 5.3 0.72
10 -3 10 5.04 0.56
-10 3 10 3.63 0.64
10 3 -10 4.19 0.47
10 3 -10 3.25 0.57
10 3 10 4.9 0.6
10 3 10 5.2 0.77
-10 3 -10 6.34 0.7
10 -3 -10 4.37 0.51
-10 3 -10 5.63 0.76
10 3 -11 1.93 0.4
10 -3 11 2.02 0.37
10 3 -11 2.11 0.45
10 -3 11 2.2 0.43
-10 3 11 2.39 0.41
-10 3 -11 1.61 0.41
10 3 11 2.47 0.42
10 -3 -11 2.38 0.37
10 3 11 1.66 0.43
10 3 -12 0.22 0.34
10 3 -12 0.7 0.28
10 -3 12 0.57 0.38
-10 3 12 0.95 0.4
10 -3 12 0.54 0.29
10 -3 -12 1.11 0.32
10 3 12 0.33 0.39
10 3 12 0.83 0.33
-10 3 13 1.96 0.42
10 -3 13 1.82 0.33
10 3 -13 1.33 0.35
10 3 -13 1.73 0.36
10 3 13 1.82 0.34
-10 3 -13 2.81 0.46
10 3 13 1.36 0.4
10 -3 -13 1.99 0.33
-10 3 14 1 0.39
10 3 -14 1.28 0.28
10 3 -14 1.06 0.29
10 -3 14 0.96 0.28
-10 3 -14 2 0.37
10 3 14 0.91 0.3
10 -3 -14 1.3 0.28
10 -3 15 0.73 0.26
-10 3 15 1.26 0.35
-10 -3 -15 1.51 0.33
10 3 -15 0.92 0.26
10 3 -15 0.58 0.22
10 -3 -15 1.04 0.25
10 3 15 0.8 0.26
-10 3 -15 1.27 0.31
10 -3 16 4.44 0.39
-10 3 16 3.41 0.39
-10 -3 -16 4.04 0.38
10 3 -16 3.89 0.35
10 -3 -16 3.4 0.34
10 3 16 4.04 0.39
-10 3 -16 4.25 0.37
-10 3 17 0.08 0.23
10 3 17 0.05 0.21
10 -3 -17 0.12 0.19
-10 3 -17 0.16 0.25
11 3 -1 0.36 0.18
11 3 1 0.47 0.18
11 3 -2 36.04 2.13
11 3 2 35.77 2.12
11 3 -3 -0.05 0.16
11 3 3 0.76 0.19
11 3 4 10.11 0.75
11 3 5 3.02 0.53
11 3 6 2.52 0.42
11 3 -7 0.37 0.23
11 -3 7 0.26 0.29
11 -3 7 0.23 0.25
11 3 7 0.33 0.35
11 -3 -7 0.23 0.36
11 3 -8 5.03 0.47
11 3 -8 3.65 0.51
11 -3 8 4.48 0.55
11 -3 8 3.98 0.67
11 -3 -8 4.51 0.5
11 3 8 4.07 0.74
11 -3 9 2.76 0.45
11 3 -9 2.18 0.43
11 3 -9 1.92 0.45
11 -3 9 2.57 0.4
11 3 9 2.75 0.49
11 3 9 3.26 0.46
11 -3 -9 3.03 0.42
-11 3 -9 3.28 0.66
11 -3 10 14.76 1.22
11 3 -10 15.33 1
11 3 -10 15.8 1.08
11 -3 10 14.8 1.03
-11 3 -10 15.61 1.15
11 -3 -10 15.38 1.02
-11 3 -10 16.17 1.17
11 3 10 15.11 1.23
11 3 10 14.91 1.06
11 -3 11 0.07 0.29
-11 3 11 -0.19 0.37
11 -3 -11 0.15 0.29
-11 3 -11 1.7 0.55
11 3 11 -0.32 0.33
11 3 11 0.09 0.38
-11 -3 -12 14.06 1.07
11 -3 12 14.27 0.95
11 3 -12 14.51 0.93
-11 3 12 11.75 0.96
11 3 -12 16.07 0.99
11 3 12 14.15 1.17
11 -3 -12 14.99 0.95
-11 3 -12 14.01 0.98
11 3 12 14.52 0.96
-11 3 13 0.1 0.37
-11 3 -13 0.97 0.39
11 3 -14 11.79 0.76
11 3 -14 11.72 0.78
-11 -3 -14 12.45 0.82
11 -3 14 11.96 0.78
-11 -3 14 12.2 0.8
11 -3 -14 11.26 0.76
11 3 14 11.21 0.79
-11 3 -14 10.73 0.78
11 -3 -14 11.14 0.7
11 3 -15 0.39 0.22
11 3 -15 -0.01 0.21
-11 -3 -15 0.15 0.3
11 -3 15 0.07 0.22
-11 3 15 0.01 0.31
-11 3 -15 0.49 0.29
11 3 15 0.19 0.24
11 -3 -15 0.17 0.14
11 -3 -15 0.09 0.2
11 -3 16 3.86 0.36
11 3 16 3.75 0.38
11 -3 -16 4.15 0.34
-11 3 -16 3.93 0.36
12 3 0 0.2 0.18
12 3 -1 3.82 0.46
12 3 1 3.94 0.45
12 3 -2 9.95 0.74
12 3 -5 0.37 0.22
12 -3 -5 0.16 0.14
12 3 5 0.18 0.24
12 3 -6 16.4 0.95
12 3 6 15.29 1.12
12 -3 -6 12.25 0.86
12 3 -7 -0.46 0.3
12 -3 7 0.28 0.31
12 3 -7 0.7 0.29
12 -3 -7 0.24 0.17
12 -3 -7 0.21 0.31
12 3 7 0.49 0.37
12 3 -8 16.22 1.08
12 3 -8 16.78 1.03
12 -3 8 16.22 1.05
-12 3 -8 16.96 1.19
12 3 8 12.88 1.06
12 -3 -8 15.44 0.96
12 -3 -8 16.21 1.06
12 3 8 15.72 1.29
12 -3 9 1.92 0.38
12 3 -9 1.92 0.34
12 3 -9 1.38 0.43
12 3 9 1.55 0.46
12 -3 -9 1.84 0.38
12 3 9 1.61 0.42
12 -3 -9 1.31 0.25
-12 3 -9 1.52 0.4
12 -3 10 6.22 0.6
12 3 -10 5.69 0.65
12 3 -10 4.97 0.52
-12 3 -10 6.15 0.83
12 3 10 6.27 0.65
12 3 10 6.42 0.91
12 -3 -10 5.61 0.46
-12 3 -10 6.28 0.73
12 -3 -10 6.13 0.58
12 -3 11 2.14 0.34
12 3 -11 1.98 0.38
12 3 -11 2.2 0.42
12 -3 -11 2.33 0.43
12 -3 -11 1.88 0.27
12 3 11 1.49 0.43
12 3 11 2.27 0.39
12 -3 12 2.1 0.33
12 3 -12 1.83 0.31
12 3 -12 1.15 0.35
12 3 12 2.02 0.36
12 -3 -12 1.27 0.23
12 -3 -12 1.83 0.32
12 -3 13 1.08 0.26
12 3 -13 0.76 0.29
-12 3 13 0.12 0.36
12 3 -13 1.12 0.27
12 -3 -13 1.1 0.26
12 3 13 0.95 0.29
12 -3 -13 0.79 0.19
-12 3 -13 1.87 0.4
12 3 -14 0.14 0.23
-12 -3 -14 0.98 0.35
12 -3 14 0.1 0.22
12 3 -14 0.39 0.23
12 -3 -14 0.18 0.21
-12 3 -14 0.78 0.32
12 3 14 0.29 0.24
12 -3 -14 0.05 0.15
12 3 -15 0.46 0.14
12 3 -15 0.32 0.2
12 -3 15 0.18 0.2
-12 -3 -15 0 0.3
-12 -3 15 0.69 0.23
-12 3 -15 0.46 0.26
12 3 15 0.24 0.22
12 -3 -15 0.35 0.11
12 -3 -15 0.16 0.2
13 3 0 0.05 0.14
13 -3 0 0.22 0.12
13 -3 1 0.13 0.12
13 3 -1 0.02 0.14
13 -3 -1 0.05 0.12
13 3 1 0.07 0.16
13 3 -2 0.15 0.15
13 -3 2 0.29 0.15
13 -3 -2 0.13 0.13
13 3 2 0.15 0.18
13 -3 3 0.76 0.17
13 3 -3 0.47 0.21
13 3 3 0.8 0.22
13 -3 -3 0.47 0.15
13 3 -4 0.04 0.25
13 3 -4 0.07 0.13
13 -3 -4 0.07 0.15
13 3 -5 -0.05 0.19
13 3 -5 -0.24 0.27
13 3 -5 0.73 0.28
13 -3 -5 0.43 0.17
13 -3 6 0.27 0.23
13 3 -6 -0.26 0.3
13 3 -6 0.48 0.28
13 3 -6 -0.14 0.2
13 -3 -6 -0.13 0.16
13 -3 -6 0.21 0.3
13 -3 7 0.54 0.32
13 3 -7 0.39 0.23
13 3 -7 0.43 0.33
13 -3 -7 0.47 0.2
13 3 7 0.1 0.36
13 -3 -7 0.92 0.33
13 -3 8 0.06 0.32
13 3 -8 0.2 0.27
13 3 -8 -0.3 0.21
13 3 -8 -0.25 0.35
13 3 8 0.06 0.36
-13 3 -8 -0.12 0.35
13 -3 -8 -0.15 0.19
13 -3 -8 0.17 0.32
13 3 8 0.19 0.37
13 3 -9 0.19 0.22
13 3 -9 0.43 0.26
13 -3 9 0.15 0.31
13 3 -9 0.24 0.37
13 3 9 0.15 0.37
13 -3 -9 0.14 0.32
13 3 9 0.18 0.36
-13 3 -9 0.13 0.39
13 -3 -9 0.14 0.2
13 -3 10 0.07 0.29
13 3 -10 -0.21 0.36
13 3 -10 0.07 0.26
13 3 10 0.19 0.35
13 -3 -10 -0.38 0.19
13 -3 -10 -0.01 0.3
13 -3 11 -0.04 0.26
13 3 11 0.13 0.32
13 -3 -11 0.19 0.27
-13 -3 11 1.15 0.34
-13 3 -11 1.87 0.53
13 3 -12 0.04 0.25
13 3 -12 -0.03 0.2
13 3 -12 -0.43 0.29
13 -3 12 -0.12 0.23
13 -3 -12 0.11 0.24
-13 3 -12 0.63 0.42
13 3 12 0.14 0.29
13 -3 -12 -0.27 0.18
-13 -3 -13 0.67 0.37
13 -3 13 0.01 0.21
13 3 -13 -0.14 0.24
13 3 -13 0.21 0.16
13 3 -13 0.09 0.24
-13 3 -13 0.68 0.34
13 -3 -13 0.08 0.22
13 3 13 -0.03 0.25
13 -3 -13 -0.16 0.16
13 3 -14 0.31 0.18
13 -3 14 0.07 0.21
13 3 -14 0.31 0.14
-13 -3 -14 0.29 0.31
13 3 14 0.08 0.23
-13 3 -14 0.45 0.29
13 -3 -14 0.01 0.21
-13 -3 14 0.71 0.25
13 -3 -14 0.11 0.14
13 3 -15 0.3 0.13
13 -3 15 0.11 0.19
-13 3 -15 0.05 0.26
13 3 15 0.14 0.22
13 -3 -15 0.21 0.21
-13 -3 15 0.36 0.22
14 -3 0 -0.12 0.15
14 3 0 0.1 0.22
14 -3 1 2.63 0.28
14 3 -1 2.1 0.34
14 -3 -1 2.4 0.26
14 3 1 2.77 0.34
14 3 -2 15.31 1.04
14 -3 2 17.34 0.99
14 -3 -2 16.54 0.98
14 3 2 17.45 1.03
14 3 -3 3.11 0.39
14 3 -3 3.29 0.31
14 -3 -3 3.42 0.3
14 3 -4 17.81 1.02
14 3 -4 16.27 1.08
14 -3 -4 17.1 1.01
14 3 -5 0.58 0.29
14 3 -5 0.64 0.2
14 -3 -5 0.4 0.18
14 -3 -5 0.83 0.31
14 3 -6 13.3 0.86
14 -3 6 13.35 0.93
14 3 -6 14.24 0.95
14 -3 -6 14.92 0.97
14 -3 -6 14.04 0.85
14 -3 7 -0.22 0.3
14 3 -7 0.15 0.21
14 3 -7 -0.16 0.32
14 3 -7 0.7 0.31
-14 3 -7 -0.35 0.35
14 -3 -7 0.34 0.33
14 -3 -7 -0.09 0.19
14 3 -8 10 0.8
14 3 -8 8.4 0.67
14 3 -8 10.48 0.75
14 -3 -8 10.2 0.78
14 3 8 10.18 0.8
-14 3 -8 10.53 1
14 -3 -8 10.05 0.65
14 3 -9 0.7 0.25
14 3 -9 0.11 0.35
14 3 -9 0.95 0.32
14 -3 9 0.38 0.3
14 3 9 0.24 0.37
14 -3 -9 0.33 0.33
14 -3 -9 0.34 0.2
14 3 -10 0.64 0.24
14 3 -10 0.72 0.36
14 -3 10 0.92 0.29
14 3 -10 1.36 0.32
14 -3 -10 0.93 0.33
14 -3 -10 0.71 0.21
14 3 10 1.28 0.37
14 -3 11 1.89 0.31
14 3 -11 1.31 0.25
14 3 -11 1.8 0.33
14 3 -11 1.34 0.35
-14 -3 11 2.42 0.41
-14 3 -11 2.57 0.53
14 -3 -11 1.26 0.22
14 -3 -11 1.67 0.32
14 3 11 1.7 0.36
14 3 -12 0.51 0.18
14 -3 12 0.24 0.23
14 3 -12 0.4 0.26
14 -3 -12 0.37 0.17
14 -3 -12 0.24 0.25
14 3 12 0.15 0.27
14 3 -13 1.1 0.18
14 -3 13 1.3 0.25
14 3 -13 0.96 0.23
-14 -3 -13 1.65 0.36
14 -3 -13 1.38 0.27
14 3 13 1.31 0.28
14 -3 -13 1.14 0.17
-14 3 -13 1.64 0.34
14 3 -14 0.51 0.13
-14 -3 -14 0.08 0.29
14 -3 14 0.39 0.21
14 -3 -14 0.48 0.24
14 3 14 0.34 0.24
14 -3 -14 0.16 0.13
-14 3 -14 0.86 0.28
15 3 0 136.36 7.9
15 -3 0 146.05 7.9
15 3 0 141.9 7.94
15 3 -1 0.01 0.23
15 3 -1 -0.25 0.18
15 -3 1 -0.16 0.17
15 -3 -1 0.15 0.17
15 3 1 0.07 0.24
15 3 1 -0.13 0.12
15 3 -2 64.01 3.5
15 -3 2 60.87 3.5
15 3 -2 59.48 3.54
15 -3 -2 65.14 3.5
15 3 2 61.12 3.53
15 3 -3 0.84 0.2
-15 -3 -3 0.83 0.32
15 3 -3 0.81 0.26
15 -3 -3 0.64 0.18
15 3 -4 15.1 0.91
15 3 -4 14.65 0.97
15 -3 -4 15.26 0.9
15 3 -5 1.25 0.22
15 3 -5 1.14 0.31
15 -3 -5 1.7 0.35
15 -3 -5 1.36 0.21
15 3 -6 1.79 0.35
15 3 -6 0.86 0.22
15 -3 6 1.84 0.32
15 -3 -6 1.49 0.22
-15 -3 6 0.81 0.36
-15 3 -6 1.29 0.39
15 -3 -6 2.41 0.46
15 3 -7 4.1 0.51
15 3 -7 3.41 0.36
15 -3 7 3.14 0.48
-15 -3 7 3.48 0.55
15 -3 -7 4.59 0.52
-15 3 -7 2.74 0.47
15 -3 -7 3.46 0.35
15 -3 8 3.75 0.52
15 3 -8 5.96 0.45
15 3 -8 4.83 0.58
-15 -3 8 5.21 0.57
15 -3 -8 5.56 0.57
15 -3 -8 5.18 0.42
15 -3 9 6.31 0.58
15 3 -9 5.99 0.59
15 3 -9 6.8 0.5
-15 3 -9 6.79 0.82
15 3 9 7 0.66
-15 -3 9 6.52 0.6
15 -3 -9 6.5 0.6
15 -3 -9 6.25 0.47
15 3 -10 13.21 0.87
15 -3 10 11.79 0.86
-15 -3 -10 11.96 0.99
15 3 -10 14.88 0.82
-15 -3 10 12.68 0.88
15 3 10 13.12 0.91
15 -3 -10 13.65 0.79
-15 3 -10 11.46 0.98
15 -3 -10 12.49 0.87
15 3 -11 0.6 0.27
15 -3 11 0.99 0.27
15 3 -11 0.81 0.2
-15 3 -11 1.51 0.44
15 -3 -11 0.92 0.29
15 -3 -11 0.5 0.18
15 3 11 0.94 0.32
-15 -3 -12 7.64 0.65
15 -3 12 7.86 0.56
15 3 -12 8.12 0.5
-15 3 -12 7.36 0.6
15 -3 -12 7.14 0.56
15 3 12 8.17 0.6
15 -3 -12 7.48 0.5
-15 -3 12 8.05 0.57
15 3 -13 0.29 0.13
15 -3 13 0.04 0.2
-15 -3 -13 -0.26 0.3
15 -3 -13 0.18 0.12
15 3 13 0.02 0.25
15 -3 -13 -0.15 0.24
-15 3 -13 0.32 0.28
-15 -3 13 0.69 0.24
16 -3 0 0.18 0.17
16 3 0 0.01 0.19
16 3 0 0.13 0.22
16 3 -1 19.21 1.1
16 3 -1 18.17 1.14
16 -3 1 18.54 1.09
16 3 1 18.84 1.1
16 3 1 18.06 1.13
16 -3 -1 18.22 1.09
16 3 -2 17.56 1.14
16 3 -2 20.26 1.1
16 -3 -2 17.75 1.09
16 3 -3 7.08 0.56
16 3 -3 7.21 0.5
-16 -3 -3 7.61 0.64
16 -3 -3 6.52 0.48
16 3 -4 22.15 1.38
16 3 -4 23.04 1.32
16 -3 -4 22.81 1.32
16 3 -5 4.98 0.42
16 3 -5 4.97 0.51
16 -3 -5 5.49 0.39
16 3 -6 30.37 1.76
16 3 -6 30.85 1.82
16 -3 -6 30.32 1.75
16 -3 7 -0.09 0.26
16 3 -7 0.18 0.29
16 3 -7 0.22 0.2
16 -3 -7 -0.01 0.17
-16 -3 7 0.12 0.33
16 -3 8 25.7 1.54
16 3 -8 27.19 1.5
16 3 -8 26.03 1.57
16 -3 -8 27.39 1.58
16 -3 -8 26.63 1.5
-16 -3 8 21.71 1.55
16 3 -9 1.57 0.23
16 3 -9 1.42 0.32
16 -3 9 0.94 0.29
16 -3 -9 1.28 0.36
-16 -3 9 2.05 0.43
16 -3 -9 1.19 0.21
-16 3 -9 2.26 0.54
16 3 -10 7 0.54
16 -3 10 7.24 0.55
16 3 -10 6.66 0.47
-16 -3 -10 6.66 0.7
16 -3 -10 7.14 0.47
-16 3 -10 5.92 0.69
16 -3 -10 7.11 0.59
-16 -3 10 6.58 0.58
-16 -3 -11 3.49 0.47
16 -3 11 2.32 0.36
16 3 -11 2.49 0.27
-16 3 -11 2.9 0.46
16 -3 -11 2.24 0.25
-16 -3 11 3.31 0.4
16 -3 -11 2.13 0.39
-16 -3 -12 1.9 0.35
16 3 -12 1.45 0.21
16 -3 12 1.47 0.28
-16 3 -12 1.77 0.35
-16 -3 12 2.18 0.32
16 -3 -12 1.63 0.21
17 3 0 5.3 0.41
17 -3 0 5.27 0.4
17 3 0 5.27 0.45
17 3 -1 0.11 0.18
17 3 -1 0.11 0.21
17 -3 -1 0.19 0.15
-17 -3 -2 1.25 0.34
17 3 -2 1.16 0.21
17 3 -2 1.63 0.28
17 -3 -2 1.15 0.18
-17 -3 -3 -0.01 0.32
17 3 -3 0.28 0.17
17 3 -3 0.26 0.22
17 -3 -3 0.03 0.15
17 3 -4 0.17 0.24
17 3 -4 0.13 0.17
17 -3 -4 0.11 0.15
17 3 -5 0.6 0.27
17 3 -5 0.6 0.18
17 -3 -5 0.6 0.17
17 3 -6 0.15 0.17
17 3 -6 -0.05 0.26
17 -3 -6 0.04 0.15
17 3 -7 0.21 0.18
17 3 -7 0.25 0.27
17 -3 -7 0.34 0.16
-17 3 -7 0.46 0.53
17 3 -8 1.08 0.29
17 3 -8 1.22 0.2
17 -3 -8 1.06 0.19
-17 3 -8 1.5 0.51
-17 -3 8 0.62 0.31
17 3 -9 0.17 0.16
17 -3 9 -0.1 0.23
17 3 -9 0.18 0.25
-17 3 -9 -0.4 0.43
-17 -3 9 0.08 0.27
17 -3 -9 0.33 0.16
-17 -3 -10 3.41 0.5
17 3 -10 2.29 0.24
-17 -3 10 1.7 0.35
17 -3 -10 2.21 0.25
-17 3 -10 2.49 0.43
-18 -3 -1 0.9 0.3
18 3 -1 0.95 0.19
18 -3 -1 1.13 0.18
18 3 -2 1.96 0.29
18 3 -2 1.68 0.25
-18 -3 -2 1.56 0.33
18 -3 -2 1.72 0.24
18 3 -3 0.31 0.16
18 3 -3 0.28 0.22
18 -3 -3 0.36 0.15
18 3 -4 2.24 0.27
18 3 -4 2.1 0.36
18 -3 -4 1.95 0.25
18 3 -5 0.33 0.24
18 3 -5 0.1 0.16
18 -3 -5 -0.02 0.14
18 3 -6 3.66 0.4
18 3 -6 3.51 0.31
18 -3 -6 3.23 0.31
18 3 -7 0.13 0.24
18 3 -7 0.2 0.15
-18 3 -7 -0.79 0.43
18 -3 -7 0.09 0.16
-18 -3 -8 4 0.53
18 3 -8 4.01 0.31
18 3 -8 3.5 0.4
18 -3 -8 3.68 0.33
-18 -3 -9 0.99 0.4
18 3 -9 0.17 0.14
18 -3 -9 0.05 0.17
-19 -3 0 8.22 0.57
19 3 -2 10.03 0.63
19 3 -3 0.18 0.16
19 -3 -3 0.27 0.15
19 3 -4 2.95 0.38
19 3 -4 3.21 0.3
19 -3 -4 3.5 0.3
19 3 -5 0.56 0.16
19 3 -5 0.37 0.26
19 -3 -5 0.53 0.17
19 3 -6 0.31 0.25
19 3 -6 0.7 0.15
19 -3 -6 0.29 0.18
19 3 -7 1.13 0.17
-19 -3 -7 1.51 0.42
19 -3 -7 1.14 0.21
-20 -3 3 -0.2 0.13
0 4 0 132.94 7.14
0 -4 0 122.05 7.19
0 4 0 125.8 7.14
0 -4 0 131.42 7.15
0 -4 1 57.33 3.34
0 -4 -1 57.45 3.33
0 -4 1 54.9 3.27
0 -4 -1 59.34 3.26
0 -4 1 51.33 3.32
0 4 -1 64.18 3.26
0 4 1 61.5 3.29
0 -4 -1 60.51 3.26
0 4 2 72.57 3.88
0 -4 2 71.13 3.83
0 -4 -2 69.62 3.88
0 -4 2 70.76 3.92
0 -4 2 58.5 3.82
0 4 3 727.11 41.66
0 4 3 797.95 41.62
0 -4 3 749.84 41.61
0 -4 -3 717.62 41.64
0 -4 3 749.03 41.69
0 4 4 494.46 24.84
0 4 4 449.41 24.89
0 -4 4 479.58 24.91
0 -4 4 367.29 24.82
0 -4 -4 438.95 24.83
0 -4 5 487.05 24.58
0 4 5 467.63 24.57
0 4 5 502.86 24.52
0 -4 5 380.76 24.49
0 -4 5 370.37 24.6
0 -4 -5 428.59 24.48
0 -4 6 21.13 1.29
0 4 6 21.8 1.45
0 -4 6 22.42 1.78
0 -4 6 18.59 1.33
0 -4 6 22.43 1.47
0 4 6 23.14 1.36
0 4 6 18.08 1.25
0 4 7 219.57 11.7
0 4 7 192.3 11.58
0 -4 7 213.47 11.89
0 -4 7 201.44 11.61
0 4 7 207.41 11.6
0 4 7 211.1 11.74
0 -4 8 18.08 1.93
0 4 8 15.15 1.43
0 4 8 18.5 1.16
0 -4 8 18.69 1.19
0 4 8 17.95 1.15
0 4 9 35.23 2.08
0 -4 9 34.22 2.1
0 4 9 35.81 2.07
0 4 10 7.19 0.65
0 4 10 7.21 0.62
0 -4 10 6.49 0.65
0 -4 11 4.21 0.6
0 4 11 4.92 0.64
0 4 11 5.2 0.56
0 4 12 0.23 0.34
0 -4 12 0.07 0.27
0 4 -13 4.32 0.44
0 -4 13 3.64 0.49
0 -4 14 1.7 0.36
0 -4 -14 1.67 0.33
0 4 15 1.93 0.47
0 4 -15 1.75 0.33
0 -4 15 1.91 0.35
0 -4 -15 1.33 0.33
0 -4 -16 0.08 0.28
0 -4 16 0.3 0.29
0 4 -16 0.2 0.29
0 4 16 0.48 0.37
0 4 17 6.01 0.54
0 -4 17 6.73 0.53
0 4 -17 7.33 0.54
0 4 -18 -0.15 0.25
0 4 18 0.05 0.26
0 -4 18 0.03 0.24
0 -4 19 3.44 0.32
0 4 -19 3.26 0.33
-1 -4 0 -0.01 0.09
1 -4 0 -0.04 0.27
1 4 0 0.01 0.1
-1 -4 0 0.18 0.19
1 -4 0 -0.02 0.17
1 4 0 0.02 0.13
1 -4 1 205.44 12.43
-1 -4 -1 229.25 12.41
-1 -4 -1 209.26 12.44
1 -4 1 215.85 12.48
-1 4 1 228.95 12.43
1 4 -1 241.99 12.41
-1 4 -1 239.04 12.39
1 -4 -1 206.32 12.45
-1 -4 1 231.24 12.43
-1 -4 1 219.75 12.45
1 4 1 222.76 12.42
-1 -4 -2 2.1 0.31
1 -4 2 1.62 0.34
1 -4 2 2.17 0.46
-1 -4 2 2.42 0.37
-1 -4 2 2.8 0.35
1 4 2 2.53 0.3
1 -4 -2 2.04 0.32
-1 -4 2 1.98 0.19
1 -4 3 112.66 7.17
1 -4 3 124.18 7.15
-1 -4 -3 128.27 7.09
-1 4 3 137.22 7.07
-1 4 3 123.77 7.12
1 -4 -3 125 7.09
-1 -4 3 138.16 7.07
1 4 3 130.09 7.11
-1 -4 3 128.09 7.12
-1 -4 3 116.12 7.13
1 -4 4 32.83 2.27
1 -4 4 31.82 2.08
-1 4 4 35.11 2.16
-1 4 4 40.35 2.11
-1 -4 -4 33.51 2.1
1 -4 4 39.84 2.21
1 4 4 37.76 2.1
1 4 4 37.83 2.15
-1 -4 4 36.9 2.09
-1 -4 4 39.26 2.17
1 -4 -4 35.65 2.09
1 -4 5 2.14 0.42
1 -4 5 1.75 0.53
-1 4 5 2.45 0.43
-1 -4 -5 1.79 0.33
-1 -4 5 1.98 0.33
1 4 5 2.57 0.42
-1 -4 5 1.4 0.46
1 4 5 2.3 0.37
-1 4 6 7.88 0.74
-1 4 6 5.09 0.79
-1 4 6 5.3 0.46
1 -4 6 5.53 1.18
1 4 6 6.31 0.54
1 4 6 5.99 0.62
-1 -4 6 8.78 1.2
1 4 6 6.32 0.79
-1 -4 6 6.74 0.59
-1 -4 6 4.86 0.59
-1 -4 6 6.78 0.84
1 -4 7 19.13 1.87
1 -4 7 20.1 1.25
-1 4 7 18.98 1.52
-1 4 7 20.32 1.42
-1 4 7 18.48 1.19
-1 -4 7 20.61 1.28
1 4 7 19.61 1.37
1 4 7 19.54 1.24
1 4 7 19.9 1.49
-1 -4 7 18.29 1.44
-1 4 8 0.39 0.68
1 -4 8 -0.05 0.73
-1 -4 8 2.59 0.96
1 4 8 0.79 0.63
1 4 8 1.26 0.28
1 -4 9 13.25 0.92
-1 4 9 13.32 0.88
-1 4 9 11.79 0.87
-1 -4 9 13.07 0.95
1 4 9 11.72 0.88
1 4 9 12.75 0.93
-1 4 10 1.46 0.3
-1 4 10 0.62 0.24
1 -4 10 1.27 0.29
-1 -4 10 1.15 0.29
1 4 10 1 0.27
1 4 10 1.19 0.31
-1 4 11 11.66 0.87
1 -4 11 11.67 0.86
1 4 11 9.91 0.89
1 4 11 11.51 0.84
-1 -4 11 10.82 0.85
-1 4 12 -0.2 0.31
1 -4 12 -0.14 0.25
1 4 12 -0.24 0.27
1 4 12 -0.4 0.33
-1 -4 12 -0.32 0.27
1 4 -13 17.33 1.05
1 -4 13 16.54 1.05
-1 4 13 15.58 1.22
1 -4 13 19.16 1.18
1 4 13 14.19 1.21
-1 -4 13 16.56 1.06
-1 -4 13 18.32 1.2
-1 4 -13 16.73 1.04
-1 4 14 -0.67 0.38
1 -4 14 0.02 0.3
1 -4 14 0.55 0.32
1 4 -14 0.1 0.29
-1 4 14 0.41 0.48
-1 4 -14 0.55 0.3
1 -4 -14 -0.02 0.29
-1 -4 14 -0.33 0.3
-1 -4 14 0.6 0.33
1 -4 15 2.32 0.42
1 4 -15 2.24 0.41
-1 4 15 2.89 0.51
-1 -4 -15 2.29 0.36
-1 4 -15 2.5 0.38
-1 -4 15 2.34 0.44
1 -4 -15 2.34 0.4
1 4 -16 1.45 0.32
-1 -4 -16 0.76 0.3
-1 4 16 1.29 0.4
1 -4 16 1.13 0.31
1 -4 -16 0.86 0.3
-1 -4 16 1.4 0.32
1 4 16 0.71 0.35
-1 4 -16 0.95 0.31
1 -4 17 2.78 0.38
-1 4 17 2.28 0.42
1 4 -17 2.78 0.39
-1 4 -17 2.54 0.39
-1 -4 17 2.83 0.38
1 -4 -17 2.36 0.35
1 -4 18 0.24 0.24
1 4 -18 0.17 0.25
-1 4 18 0.27 0.27
-1 4 -18 0.23 0.25
-1 -4 18 0.48 0.24
1 -4 19 0.34 0.23
1 4 -19 0.39 0.24
-1 -4 19 0.39 0.22
-1 4 -19 0.32 0.25
-2 -4 0 0.45 0.19
2 -4 0 0.29 0.27
2 4 0 0.19 0.13
2 -4 0 0.14 0.1
-2 -4 0 0.26 0.11
-2 4 1 3.71 0.24
-2 4 1 3.96 0.35
-2 -4 -1 3.44 0.35
2 -4 1 3.07 0.48
2 -4 1 3.69 0.3
-2 -4 -1 3.09 0.28
-2 -4 1 3.52 0.31
2 -4 -1 3.31 0.42
-2 -4 1 3.65 0.37
2 4 1 3.28 0.32
2 -4 2 0.34 0.16
-2 -4 -2 0.17 0.11
-2 -4 -2 0.29 0.18
-2 4 2 0.47 0.21
2 -4 2 0.33 0.28
2 -4 -2 0.5 0.2
-2 -4 2 0.42 0.22
-2 -4 2 0.29 0.14
2 4 2 0.43 0.16
-2 -4 -3 21.28 1.29
2 -4 3 21.78 1.33
-2 4 3 19.28 1.3
2 -4 3 22.39 1.37
-2 -4 3 22.07 1.3
-2 -4 3 21.18 1.3
-2 -4 3 21.13 1.24
2 -4 -3 20.7 1.24
2 4 3 21.53 1.28
-2 4 4 2.7 0.45
-2 -4 -4 3.42 0.4
2 -4 4 2.52 0.55
-2 -4 4 4 0.48
2 4 4 4.05 0.43
-2 -4 4 3.48 0.48
-2 -4 4 4.12 0.33
2 -4 5 0.2 0.15
-2 4 5 0.22 0.11
2 -4 5 -0.03 0.41
-2 4 5 -0.07 0.3
-2 -4 -5 0.15 0.24
-2 4 5 0.25 0.29
-2 -4 5 0.55 0.34
-2 -4 5 0.22 0.19
2 4 5 0.36 0.2
2 4 5 0.53 0.19
-2 -4 5 0.72 0.33
2 4 5 0.56 0.31
2 -4 6 0.35 0.62
-2 4 6 1.62 0.53
-2 -4 -6 0.76 0.31
-2 4 6 1.04 0.19
-2 4 6 1.68 0.43
2 4 6 1.86 0.5
-2 -4 6 1.24 0.32
-2 -4 6 1.73 0.5
2 4 6 1.28 0.31
2 -4 7 -0.57 0.68
-2 4 7 0.25 0.46
-2 4 7 0.73 0.23
-2 4 7 0.94 0.57
2 4 7 0.65 0.37
-2 -4 7 1.01 0.4
2 4 7 0.84 0.59
2 -4 8 0.02 0.17
-2 4 8 0.3 0.24
-2 4 8 -0.95 0.56
2 -4 8 -0.95 0.66
-2 -4 8 0.92 0.9
2 4 8 0.36 0.25
2 4 8 0.19 0.24
2 -4 9 2.34 0.47
-2 4 9 2.29 0.44
2 4 9 1.42 0.29
2 4 9 1.11 0.31
-2 -4 9 2.53 0.52
2 -4 10 0.87 0.26
-2 4 10 1.14 0.27
2 4 10 0.46 0.25
-2 -4 10 0.64 0.28
2 4 10 0.69 0.31
2 -4 11 0.27 0.25
-2 4 11 0.08 0.26
-2 -4 11 0.03 0.26
2 4 11 0 0.25
2 4 11 -0.25 0.31
-2 4 12 0.59 0.3
2 -4 12 0.69 0.28
-2 -4 12 0.42 0.3
2 4 12 0.31 0.29
-2 4 13 0 0.46
2 -4 13 -0.15 0.28
-2 4 13 -0.3 0.33
2 4 -13 0.03 0.28
2 -4 13 0.37 0.32
-2 -4 13 0.59 0.34
-2 4 -13 0.49 0.3
2 -4 -13 -0.26 0.26
2 4 13 -0.24 0.3
-2 -4 13 -0.05 0.31
-2 4 14 1.26 0.49
2 -4 14 0.09 0.3
2 4 -14 0.64 0.3
2 -4 14 0.65 0.32
2 -4 -14 0.5 0.29
-2 4 -14 0.98 0.32
-2 -4 14 1.22 0.36
-2 -4 14 -0.01 0.33
2 4 -15 0.12 0.29
2 -4 15 -0.41 0.3
2 -4 15 0.07 0.31
-2 4 15 0.75 0.46
-2 4 -15 0.1 0.3
2 -4 -15 -0.15 0.28
-2 -4 15 0.34 0.32
-2 -4 15 -0.38 0.33
2 4 -16 0.55 0.29
-2 4 16 0.72 0.4
2 -4 16 0.05 0.28
-2 -4 16 0.55 0.31
2 -4 -16 0.27 0.29
-2 4 -16 0.56 0.3
2 4 -17 0.16 0.27
2 -4 17 0.21 0.27
-2 4 17 0.48 0.33
-2 -4 17 0.13 0.27
2 -4 -17 -0.27 0.26
-2 4 -17 0.03 0.28
2 4 -18 0.35 0.25
2 -4 18 0.02 0.24
-2 4 18 0.13 0.27
-2 -4 18 0.32 0.24
-2 4 -18 0.13 0.25
2 -4 -18 -0.14 0.22
2 4 -19 0.12 0.24
2 -4 19 0.02 0.23
-2 4 19 -0.12 0.23
-2 -4 19 0.13 0.2
-2 4 -19 -0.01 0.24
-3 4 0 -0.19 0.13
3 4 0 0.09 0.12
-3 -4 0 0.09 0.16
-3 -4 0 0 0.1
-3 4 1 27.9 1.56
-3 4 1 25.28 1.6
-3 -4 -1 26.38 1.62
-3 -4 -1 28.08 1.59
-3 -4 1 26.76 1.62
-3 -4 1 28.27 1.6
-3 4 -1 28.83 1.56
3 4 1 27.36 1.59
-3 4 2 16.74 0.93
-3 -4 -2 16.64 0.96
-3 -4 -2 15.5 1
-3 4 2 13.56 0.99
3 -4 2 15.88 0.96
-3 -4 2 16.04 0.97
-3 -4 2 15.73 1
3 4 2 15.74 0.96
3 -4 3 70.28 4.03
-3 4 3 74.27 4
-3 4 3 60.33 4.04
-3 -4 -3 72.8 4.05
-3 -4 3 70.99 4.04
-3 -4 3 72.36 4
-3 -4 3 73.51 4.04
3 4 3 71.69 4.02
-3 -4 -4 0.14 0.22
-3 4 4 -0.19 0.21
-3 4 4 0.13 0.07
-3 4 4 -0.01 0.28
3 -4 4 0.19 0.23
-3 -4 4 0.18 0.2
3 4 4 0.3 0.21
-3 -4 4 0.27 0.16
-3 -4 4 0.29 0.25
3 -4 5 0.22 0.17
-3 4 5 0.48 0.38
-3 4 5 -0.12 0.33
-3 4 5 0.45 0.13
3 -4 5 -0.11 0.36
-3 -4 -5 0.59 0.29
3 -4 5 0.46 0.16
3 4 5 0.77 0.31
3 4 5 0.86 0.22
-3 4 -5 0.34 0.16
-3 -4 5 1.01 0.24
-3 -4 5 1.04 0.35
-3 -4 5 1.08 0.34
-3 -4 -6 2.04 0.4
3 -4 6 1.41 0.28
-3 4 6 1.75 0.53
-3 4 6 1.31 0.49
-3 4 6 1.51 0.22
3 -4 6 2.36 0.39
3 -4 6 0.41 0.58
-3 4 -6 1.4 0.27
3 4 6 1.63 0.35
3 4 6 2.21 0.52
-3 -4 6 2.12 0.49
-3 -4 6 2.42 0.45
-3 4 7 3.13 0.67
3 -4 7 1.95 0.79
-3 4 7 3.45 0.44
3 -4 7 3.82 0.54
-3 4 -7 4.03 0.51
3 4 7 3.84 0.69
3 4 7 3.37 0.65
-3 -4 7 4.3 0.6
-3 4 8 0.6 0.23
3 -4 8 0.87 0.26
3 -4 8 -0.63 0.61
3 -4 8 0.35 0.27
-3 -4 8 -0.18 0.81
-3 4 -8 0.67 0.24
3 4 8 0.85 0.25
3 4 8 0.25 0.29
-3 4 -8 0.48 0.44
3 -4 9 1.1 0.3
3 -4 9 1.42 0.28
-3 4 9 2.24 0.42
3 4 9 1.18 0.27
-3 -4 9 1.74 0.33
-3 4 10 2.18 0.44
3 -4 10 1.64 0.3
3 -4 10 1.55 0.32
3 4 10 1.55 0.3
-3 -4 10 1.78 0.34
-3 4 11 10.1 0.81
3 -4 11 9.72 0.83
3 -4 11 10.95 0.83
-3 -4 11 10.29 0.84
3 4 11 11.35 0.83
3 -4 12 0.11 0.27
-3 4 12 0.1 0.29
3 -4 12 0.02 0.26
-3 -4 12 -0.24 0.29
3 4 12 -0.1 0.29
-3 4 13 11.01 0.97
3 4 -13 12.23 0.83
-3 4 13 13.11 0.93
3 -4 13 12.72 0.93
3 4 13 13.02 1
-3 4 -13 11.64 0.81
3 -4 -13 12.44 0.82
-3 -4 13 11.45 0.98
-3 -4 13 13.12 0.87
3 -4 14 -0.14 0.29
3 -4 14 0.36 0.31
-3 4 14 1.35 0.5
3 4 -14 0.37 0.3
-3 4 14 -0.2 0.37
-3 -4 14 0.99 0.35
3 -4 -14 0.27 0.29
3 4 14 -0.42 0.33
-3 -4 14 0.14 0.34
3 4 14 0.11 0.22
-3 4 -14 0.87 0.32
3 4 -15 3.16 0.45
3 -4 15 3.88 0.46
-3 4 15 4.77 0.61
-3 -4 15 4.07 0.47
3 -4 -15 3.81 0.44
-3 4 -15 3.96 0.43
3 -4 16 0.2 0.28
-3 4 16 0.86 0.42
3 4 -16 0.4 0.29
3 4 16 0.27 0.23
3 -4 -16 0.36 0.28
-3 4 -16 0.11 0.29
-3 -4 16 0.42 0.3
3 4 -17 2.24 0.34
-3 4 17 2.72 0.43
3 -4 17 2.47 0.37
-3 4 -17 2.28 0.34
3 -4 -17 2.18 0.34
-3 -4 17 2.34 0.35
-3 4 18 0.17 0.28
3 4 -18 0.43 0.24
3 -4 18 0.08 0.23
-3 -4 18 0.23 0.23
-3 4 -18 0.26 0.24
3 -4 -18 -0.06 0.22
3 4 -19 0.26 0.24
-3 4 19 0.2 0.24
-3 -4 19 0.14 0.2
-3 4 -19 -0.02 0.24
-4 -4 0 17.25 1.04
-4 -4 0 15.82 1.06
-4 4 0 16.3 1.02
4 4 0 17.15 1.03
-4 4 0 19.22 1.04
-4 -4 -1 20.12 1.29
-4 4 1 22.34 1.27
-4 -4 -1 20.4 1.26
-4 4 1 20.74 1.23
-4 4 -1 23.37 1.23
4 4 1 20.43 1.25
-4 -4 1 20.66 1.26
-4 -4 1 20.23 1.28
-4 4 2 44 2.42
-4 4 2 43.11 2.45
-4 -4 -2 42.97 2.49
-4 4 2 39.6 2.47
-4 -4 -2 43.2 2.45
-4 4 -2 43.84 2.39
-4 -4 2 42.81 2.44
-4 -4 2 41.98 2.46
4 4 2 41.75 2.44
-4 -4 2 41.16 2.46
-4 4 3 49.07 3.09
-4 -4 -3 53.33 3.1
4 -4 3 53.18 3.07
-4 4 3 56.76 3.04
-4 -4 -3 54.52 3.07
-4 4 3 49.65 3.02
-4 -4 3 54.66 3.08
-4 4 -3 50.05 2.99
4 4 3 53.09 3.05
-4 -4 3 57.29 3.09
-4 -4 3 54.79 3.05
-4 -4 -4 1.42 0.33
-4 4 4 1.42 0.27
4 -4 4 1.68 0.31
4 -4 4 1.18 0.23
-4 4 4 1.37 0.38
-4 4 4 1.29 0.21
-4 -4 4 1.46 0.28
-4 -4 4 1.59 0.28
4 4 4 0.9 0.21
-4 4 -4 1.41 0.29
-4 -4 4 1.66 0.34
4 4 4 2.01 0.38
-4 4 5 53.21 3.53
4 -4 5 61.28 3.43
4 -4 5 62.14 3.56
4 -4 5 54.49 3.39
-4 -4 -5 61.68 3.52
-4 4 5 60.36 3.38
-4 -4 5 63.73 3.55
-4 -4 5 63.44 3.49
4 4 5 60.9 3.43
-4 4 -5 52.76 3.41
-4 -4 5 64.85 3.46
4 4 5 61.95 3.5
4 -4 6 0.2 0.2
4 -4 6 -0.11 0.26
-4 4 6 0.36 0.5
-4 -4 -6 0 0.38
-4 -4 6 0.83 0.49
-4 -4 6 0.14 0.26
4 4 6 0.07 0.46
-4 -4 6 0.19 0.3
-4 4 -6 -0.24 0.45
-4 -4 6 0.08 0.41
-4 4 -6 0.18 0.24
4 4 6 0.58 0.27
-4 4 7 111.09 6.81
-4 4 7 125.41 6.6
4 -4 7 127.28 6.63
4 -4 7 121.78 6.9
4 -4 7 119.16 6.65
-4 4 -7 105.92 6.61
4 4 7 125.5 6.65
-4 4 -7 132.48 6.85
-4 -4 7 100.48 6.83
-4 -4 7 105.89 6.63
4 4 7 119.96 6.78
4 -4 8 0.6 0.24
4 -4 8 0.6 0.27
-4 4 8 0.58 0.21
4 4 8 0.83 0.26
-4 4 -8 1.06 0.27
-4 -4 8 1.27 0.31
4 -4 9 36.37 2.04
-4 4 9 36.1 2.02
4 -4 9 34.88 2.06
-4 4 -9 31.36 2.01
4 4 9 35.87 2.05
-4 -4 9 31.03 2.06
-4 4 10 0.89 0.25
4 -4 10 0.56 0.28
4 -4 10 0.52 0.26
-4 -4 10 0.56 0.29
4 4 10 0.24 0.24
-4 4 11 5.8 0.64
4 -4 11 6.33 0.66
4 -4 11 6.52 0.62
4 4 11 6.22 0.64
-4 -4 11 4.86 0.65
-4 4 12 0.13 0.28
-4 4 12 -0.09 0.39
4 4 -12 -0.13 0.29
4 -4 12 0.04 0.3
4 -4 12 0.06 0.27
4 -4 -12 -0.03 0.23
-4 4 -12 -0.16 0.33
4 4 12 -0.33 0.28
-4 -4 12 -0.07 0.31
4 -4 13 0.45 0.3
-4 4 13 0.44 0.34
4 4 13 0.65 0.33
4 4 13 -0.03 0.34
-4 -4 13 0.01 0.33
-4 4 14 0.04 0.37
4 4 -14 0.29 0.31
4 -4 14 0.06 0.3
4 -4 14 -0.17 0.29
4 4 14 -0.06 0.33
4 4 14 -0.13 0.36
4 -4 -14 0.08 0.27
-4 -4 14 0.74 0.35
-4 -4 14 -0.35 0.33
4 -4 15 2.02 0.35
4 4 -15 2.07 0.4
4 4 15 1.28 0.37
4 -4 -15 1.78 0.33
-4 -4 15 1.83 0.35
4 4 -16 0.79 0.28
-4 4 16 1.22 0.41
4 -4 16 0.54 0.3
-4 4 -16 0.71 0.3
-4 -4 16 0.91 0.31
4 4 16 0.34 0.32
4 -4 -16 0.65 0.28
4 -4 17 7.61 0.56
4 4 -17 7.78 0.55
-4 4 17 7.64 0.61
-4 -4 17 7.68 0.57
-4 4 -17 7.85 0.57
4 -4 -17 7.38 0.55
-4 4 18 0.54 0.27
4 4 -18 0.42 0.24
4 -4 -18 0.05 0.22
-4 4 -18 0.32 0.25
-4 -4 18 0.44 0.23
-4 4 19 3.71 0.36
-4 4 -19 4.26 0.37
-4 -4 19 4.37 0.34
5 4 0 -0.04 0.05
-5 -4 0 -0.01 0.19
-5 4 0 -0.05 0.24
-5 4 0 -0.17 0.14
-5 4 0 0.06 0.11
-5 -4 0 -0.05 0.12
-5 4 1 46.68 2.7
-5 -4 -1 46.28 2.71
-5 -4 -1 46.69 2.68
-5 4 1 47.52 2.67
-5 4 1 46.1 2.64
5 4 1 45.77 2.65
-5 -4 1 44.78 2.69
-5 -4 1 46.2 2.67
-5 4 -1 47.83 2.63
-5 4 -1 44.11 2.77
-5 -4 -2 2.62 0.35
-5 -4 -2 2.6 0.4
-5 4 2 2.22 0.36
-5 4 2 2.48 0.35
-5 4 2 2.22 0.29
-5 -4 2 2.51 0.33
-5 4 -2 3.06 0.5
5 4 2 1.97 0.26
5 4 2 2.55 0.32
-5 4 -2 2.69 0.23
-5 -4 2 2.82 0.3
-5 -4 2 2.51 0.4
5 -4 3 69.82 3.82
-5 4 3 69.44 3.83
-5 4 3 62.87 3.81
-5 -4 -3 70.63 3.91
-5 4 3 63.28 3.88
-5 -4 -3 71.11 3.87
5 4 3 66.13 3.84
-5 -4 3 72.75 3.88
-5 4 -3 67.5 4
-5 -4 3 68.86 3.87
-5 4 -3 60.09 3.77
-5 -4 3 71.5 3.84
5 4 3 60.72 3.79
-5 -4 -4 4.04 0.6
5 -4 4 3.57 0.51
-5 4 4 3.11 0.32
-5 4 4 2.83 0.57
-5 4 4 3.53 0.45
5 -4 4 3.87 0.47
5 4 4 4.02 0.49
-5 -4 4 3.72 0.41
5 4 4 3.53 0.35
5 4 4 4.3 0.44
-5 4 -4 3.17 0.69
-5 -4 4 4 0.5
5 -4 5 6.16 0.81
-5 -4 -5 8.35 0.82
5 -4 5 6.76 0.52
-5 4 5 6.94 0.53
-5 4 5 7 0.84
5 -4 5 7.77 0.65
-5 -4 5 9.04 0.8
5 4 5 6.96 0.54
-5 4 -5 7.72 0.94
-5 -4 5 8.63 0.79
5 4 5 8.12 0.74
-5 4 6 0.91 0.21
-5 4 6 0.75 0.52
-5 -4 -6 0.83 0.44
5 -4 6 0.67 0.19
5 -4 6 0.07 0.44
5 -4 6 0.84 0.25
5 4 6 1.42 0.31
-5 -4 6 1.5 0.49
-5 -4 6 0.83 0.34
5 4 6 0.52 0.16
-5 4 -6 0.65 0.28
5 4 6 1 0.48
-5 4 -6 1.07 0.57
5 -4 7 4.17 0.89
-5 4 7 5.68 0.48
5 -4 7 5.69 0.52
5 -4 7 4.61 0.59
5 4 7 5.66 0.61
-5 -4 7 6.97 0.66
-5 4 -7 4.52 0.84
-5 -4 7 5.87 1.03
5 -4 8 2.53 0.43
-5 4 8 2.73 0.42
5 -4 8 2.16 0.34
5 4 8 2.71 0.49
-5 -4 8 3.38 0.58
-5 4 -8 2.66 0.51
-5 4 9 15.55 0.97
5 -4 9 15.06 1.01
5 -4 9 14.57 1.04
-5 4 -9 15.65 0.99
-5 -4 9 13.79 1.04
5 4 9 14.26 1.01
5 -4 10 2.09 0.35
-5 4 10 2.4 0.44
5 -4 10 1.73 0.32
-5 -4 10 1.79 0.35
5 4 10 1.92 0.32
-5 4 -10 2.47 0.5
-5 4 11 12.89 0.94
5 -4 11 13.29 0.96
5 -4 11 13.49 0.98
5 4 11 12.38 0.96
-5 -4 11 11.84 0.97
-5 4 12 0.86 0.39
5 -4 12 0.1 0.28
5 4 -12 -0.24 0.32
5 -4 12 -0.03 0.32
-5 4 12 -0.21 0.27
5 4 12 -0.34 0.28
-5 -4 12 -0.13 0.32
5 -4 -12 -0.09 0.28
-5 4 -12 0.6 0.36
5 4 12 0.14 0.32
-5 4 13 16.16 1.09
5 4 -13 16.27 1.04
-5 4 13 15.28 1.16
5 -4 13 17 1.14
5 4 13 16.43 1.08
5 -4 -13 15.98 1.02
-5 4 -13 15.38 1.02
-5 -4 13 16.2 1.06
-5 -4 13 14.84 1.18
5 4 13 16.52 1.22
-5 4 14 -0.4 0.38
5 -4 14 0.47 0.32
5 4 -14 0.75 0.3
-5 4 14 1.67 0.46
-5 4 -14 1.29 0.35
5 4 14 0.57 0.35
-5 -4 14 1.03 0.36
5 4 14 0.34 0.38
5 -4 -14 0.52 0.27
5 -4 15 3.06 0.46
-5 4 15 3.98 0.57
5 4 -15 3.1 0.4
-5 -4 15 3.06 0.44
5 4 15 3 0.51
5 -4 -15 2.84 0.4
-5 4 -15 3.27 0.44
-5 4 16 1.4 0.4
5 4 -16 0.94 0.28
5 -4 16 0.72 0.3
5 4 16 0.7 0.32
-5 4 -16 0.93 0.31
-5 -4 16 1.05 0.3
5 -4 -16 0.62 0.28
5 4 -17 3.26 0.37
-5 4 17 3.1 0.41
5 -4 -17 3.49 0.36
-5 -4 17 2.84 0.35
-5 4 -17 2.88 0.35
5 4 17 2.69 0.4
-5 4 18 0.98 0.28
5 4 -18 1.06 0.26
-5 4 -18 0.89 0.26
-5 -4 18 0.94 0.24
5 -4 -18 0.67 0.24
-6 4 0 0.68 0.31
-6 4 0 0.32 0.17
-6 -4 0 0.48 0.19
6 4 0 0.34 0.14
-6 4 0 0.4 0.16
-6 -4 0 0.68 0.28
-6 4 1 0.84 0.29
-6 4 1 0.83 0.19
-6 -4 -1 0.99 0.34
-6 4 1 0.9 0.22
-6 -4 -1 0.97 0.22
-6 4 -1 1.04 0.4
-6 -4 1 0.82 0.2
-6 4 -1 0.82 0.19
-6 -4 1 1.29 0.32
6 4 1 0.61 0.16
-6 4 -1 0.71 0.17
-6 4 2 1.5 0.29
-6 -4 -2 1.1 0.25
-6 -4 -2 1.13 0.34
-6 4 2 1.08 0.26
-6 4 2 0.77 0.19
6 4 2 1.07 0.18
-6 -4 2 1.19 0.32
6 4 2 1.62 0.3
-6 -4 2 1.12 0.24
-6 4 -2 1.47 0.48
-6 4 -2 1.2 0.21
-6 -4 2 0.91 0.22
-6 -4 -3 37.45 2.21
-6 4 3 36.63 2.16
-6 4 3 34.89 2.21
-6 -4 -3 38.66 2.27
6 -4 3 39.29 2.15
-6 4 -3 35.32 2.38
-6 -4 3 35.93 2.17
6 4 3 36.17 2.18
6 4 3 35.47 2.12
-6 -4 3 37.67 2.21
-6 -4 3 36.76 2.22
-6 4 4 10.69 0.88
-6 4 4 11.4 0.99
6 -4 4 13.28 0.9
-6 4 4 12 0.79
-6 -4 -4 12.98 1.06
-6 -4 -4 12.88 0.94
-6 4 -4 12.56 1.2
6 4 4 12.51 0.83
6 4 4 13.02 0.92
6 4 4 13.15 0.94
-6 -4 4 13.77 0.89
-6 -4 4 14.01 1
-6 -4 4 13.5 0.95
-6 -4 -5 10.61 1
-6 -4 -5 10.62 0.86
-6 4 5 10 0.7
6 -4 5 11.45 0.83
-6 4 5 8.85 0.97
-6 -4 5 10.84 0.82
-6 -4 5 11.56 0.93
6 4 5 11.12 0.74
6 4 5 12.13 0.86
6 4 5 11.31 0.92
-6 4 -5 10.33 1.17
-6 4 6 0.27 0.18
-6 4 6 -0.32 0.48
6 -4 6 -0.02 0.38
6 -4 6 0.18 0.24
6 -4 6 0.05 0.16
6 4 6 0.27 0.17
6 4 6 0.3 0.4
6 4 6 0.59 0.28
-6 -4 6 -0.01 0.31
-6 4 -6 0.46 0.58
-6 -4 6 0.26 0.4
-6 -4 7 7.59 0.67
-6 4 8 0.36 0.19
6 -4 8 0.01 0.2
6 -4 8 -0.01 0.24
6 4 8 0.45 0.25
-6 4 -8 0.21 0.25
-6 -4 8 0.17 0.29
6 -4 9 13.21 0.88
-6 4 9 13.06 0.85
6 -4 9 12.62 0.92
6 4 9 12.08 0.89
-6 4 -9 12.42 0.88
-6 -4 9 10.31 0.92
6 -4 10 0.64 0.29
-6 4 10 0.8 0.25
6 -4 10 0.54 0.27
6 4 10 0.54 0.27
-6 4 -10 0.95 0.3
-6 -4 10 0.23 0.32
-6 4 11 0.84 0.29
6 -4 11 0.74 0.33
6 -4 11 0.78 0.3
6 -4 -11 0.57 0.27
-6 -4 11 0.72 0.35
6 4 11 0.12 0.25
6 4 11 0.96 0.32
6 -4 12 0.37 0.34
6 -4 12 -0.08 0.29
6 4 -12 0.29 0.33
-6 4 12 0.42 0.31
6 4 12 0.1 0.32
-6 -4 12 -0.11 0.35
6 -4 -12 0.65 0.29
6 4 12 0.15 0.32
-6 4 13 1.91 0.44
-6 4 13 0.36 0.36
6 4 -13 1.09 0.33
6 -4 -13 1.22 0.31
-6 -4 13 1.86 0.4
6 4 13 0.3 0.37
6 4 13 0.85 0.36
-6 4 14 -0.17 0.37
6 -4 14 0.59 0.24
6 4 -14 0.53 0.29
6 -4 -14 0.78 0.27
-6 -4 14 1.19 0.36
6 4 14 0.53 0.38
6 4 14 0.56 0.33
-6 4 -14 1.04 0.35
6 -4 15 0.2 0.19
6 4 -15 0.24 0.27
-6 4 15 0.85 0.43
-6 -4 15 0.67 0.32
-6 4 -15 0.46 0.31
6 -4 -15 0.13 0.26
6 4 15 -0.06 0.32
-6 4 16 0.76 0.38
6 4 -16 0.43 0.26
6 4 16 0.33 0.29
-6 -4 16 0.67 0.29
-6 4 -16 0.49 0.29
6 -4 -16 0.47 0.26
6 4 -17 0.5 0.24
-6 4 17 0.66 0.32
6 4 17 0.3 0.27
-6 4 -17 0.54 0.26
-6 -4 17 0.44 0.26
6 -4 -17 0.28 0.23
-6 4 18 0.55 0.26
6 4 -18 0.13 0.24
-6 4 -18 0.1 0.24
6 -4 -18 0.05 0.2
-6 -4 18 0.27 0.22
-7 -4 0 0.02 0.21
-7 4 0 -0.09 0.35
-7 4 0 0.11 0.18
-7 4 0 -0.08 0.18
-7 -4 0 0.42 0.37
7 4 0 0.23 0.18
-7 -4 -1 56.65 3.13
-7 -4 -1 56.31 3.18
-7 4 1 50.6 3.13
-7 4 1 51.09 3.08
-7 4 1 51.68 3.08
7 4 -1 50 3.04
-7 4 -1 56.85 3.25
-7 4 -1 52.91 3.06
-7 4 -1 53.07 3.1
-7 -4 1 55.98 3.15
-7 -4 1 53.52 3.12
7 4 1 51.1 3.04
-7 -4 -2 16.98 1.22
-7 4 2 13.78 1.11
-7 4 2 16.27 1.09
-7 4 2 16.7 1.12
-7 -4 -2 17.18 1.16
-7 4 -2 18.65 1.39
-7 -4 2 17.1 1.11
-7 4 -2 17.64 1.13
7 4 2 16.52 1.05
-7 -4 2 17.8 1.14
-7 -4 2 18.2 1.2
7 4 2 16.98 1.12
-7 4 3 28.56 1.88
-7 -4 -3 30.49 1.96
-7 -4 -3 31.02 1.9
-7 -4 3 30.88 1.91
7 4 3 30.36 1.85
-7 -4 3 30.89 1.85
-7 -4 3 32.06 1.89
-7 4 -3 30 2.11
7 4 3 28.43 1.77
-7 4 4 -0.28 0.19
-7 4 4 -0.18 0.33
-7 -4 -4 0.03 0.24
-7 4 4 0.02 0.15
-7 -4 -4 0.01 0.43
7 -4 4 -0.13 0.24
7 4 4 0.3 0.28
-7 4 -4 -0.01 0.55
7 4 4 -0.06 0.16
-7 -4 4 0.1 0.26
7 4 4 0.18 0.31
-7 -4 4 0.07 0.26
-7 4 5 4.21 0.4
-7 -4 -5 4.28 0.58
7 -4 5 4.88 0.55
-7 -4 -5 3.72 0.65
7 4 5 4.39 0.44
7 4 5 5.13 0.59
-7 -4 5 4.97 0.56
7 4 5 5.33 0.6
-7 4 -5 4.49 0.98
-7 -4 5 4.42 0.65
7 -4 6 0.47 0.25
7 -4 6 0.14 0.13
-7 4 6 0.61 0.18
-7 4 -6 -0.02 0.52
7 4 6 0.31 0.16
7 4 6 0.71 0.27
7 4 6 0.47 0.49
-7 -4 6 -0.15 0.39
7 -4 7 0.42 0.24
-7 4 7 0.75 0.19
7 -4 7 0.38 0.18
-7 4 -7 0.8 0.24
7 4 7 0.63 0.27
-7 4 8 0.48 0.2
7 -4 8 0.11 0.25
7 -4 8 0.05 0.2
7 4 8 0.43 0.24
-7 4 -8 0.45 0.23
7 -4 9 0.98 0.29
7 -4 9 0.87 0.27
-7 4 9 1.22 0.25
7 4 9 0.94 0.28
-7 -4 9 0.29 0.31
-7 4 -9 1.23 0.29
-7 4 10 0.44 0.26
7 -4 10 0.12 0.26
7 -4 10 0.23 0.29
-7 -4 10 -0.19 0.31
-7 4 -10 0.61 0.3
7 4 10 0.35 0.27
-7 4 11 5.67 0.65
7 -4 11 5.61 0.74
-7 4 11 5.95 0.54
7 4 -11 4.65 0.55
-7 4 -11 5.81 0.6
7 4 11 5.29 0.57
-7 -4 11 4.12 0.68
7 -4 -11 5.4 0.5
7 4 11 5.49 0.68
-7 4 -11 5.78 0.68
-7 4 12 -0.16 0.31
7 -4 12 -0.18 0.34
-7 4 12 0.85 0.38
7 -4 12 -0.15 0.33
7 4 -12 -0.23 0.33
7 4 12 -0.29 0.32
7 4 12 0.21 0.33
7 -4 -12 0.02 0.29
-7 -4 12 -0.55 0.34
-7 4 13 2.05 0.43
7 -4 13 1.1 0.4
-7 4 13 0.52 0.39
7 4 -13 1.08 0.33
7 -4 13 1.23 0.34
7 4 13 1.17 0.35
-7 -4 13 1.71 0.41
7 4 13 0.77 0.4
7 -4 -13 1.23 0.31
-7 4 14 1.15 0.41
7 4 -14 0.08 0.29
7 -4 14 0.15 0.32
-7 -4 -14 0.31 0.4
7 4 14 0.25 0.3
-7 -4 14 1 0.36
7 4 14 0.06 0.37
7 -4 -14 0.12 0.25
-7 4 15 0.51 0.41
7 4 -15 0.49 0.27
7 -4 15 0.06 0.29
-7 -4 -15 -0.35 0.33
-7 4 -15 0.51 0.32
7 -4 -15 0.18 0.25
-7 -4 15 0.49 0.31
7 4 15 0.05 0.29
7 4 -16 0.71 0.26
-7 4 16 0.85 0.36
7 -4 16 0.28 0.17
7 4 16 0.57 0.29
7 -4 -16 0.62 0.26
-7 -4 16 0.57 0.29
-7 4 -16 0.9 0.28
-7 4 17 0.45 0.3
7 4 -17 0.49 0.24
-7 -4 17 0.25 0.25
-7 4 -17 0.35 0.25
7 4 17 -0.06 0.25
7 -4 -17 0.24 0.23
-7 4 18 0.66 0.24
7 4 -18 0.44 0.21
-7 4 -18 0.41 0.25
7 -4 -18 0.38 0.19
-7 -4 18 0.41 0.21
-8 4 0 3.76 0.47
-8 4 0 4 0.67
-8 -4 0 4.6 0.68
-8 -4 0 3.79 0.51
8 4 0 4.15 0.45
-8 -4 -1 10.94 0.93
-8 4 1 9.36 0.74
8 4 -1 9.34 0.69
-8 -4 -1 10.66 0.8
-8 -4 1 9.67 0.77
-8 -4 1 10.35 0.8
-8 -4 1 9.78 0.9
8 4 1 10.15 0.71
-8 4 -1 10.15 0.78
-8 4 -1 10.24 1
-8 -4 -2 0.07 0.23
-8 4 2 0.09 0.25
-8 4 2 -0.08 0.17
-8 -4 -2 -0.07 0.38
8 4 -2 0.18 0.19
-8 -4 2 0.27 0.27
-8 4 -2 0.23 0.22
-8 -4 2 0.39 0.26
-8 -4 2 0.18 0.36
-8 4 -2 0.25 0.52
8 4 2 0.11 0.15
-8 -4 -3 62 3.75
-8 4 3 53.21 3.67
-8 -4 -3 67.36 3.72
8 4 3 64.62 3.59
-8 4 -3 67.63 3.92
-8 -4 3 61.05 3.66
-8 -4 3 64.38 3.7
-8 -4 -4 -0.5 0.41
-8 -4 -4 0.15 0.25
8 -4 4 0.12 0.2
-8 4 4 0.11 0.14
-8 -4 4 0.43 0.28
8 4 4 0.54 0.28
-8 -4 4 -0.19 0.28
8 4 4 0.14 0.15
8 4 4 0.56 0.26
-8 4 -4 0.63 0.64
8 -4 6 0.75 0.25
-8 4 6 0.71 0.18
8 4 6 0.38 0.15
8 4 6 0.62 0.28
8 -4 7 105.9 6.17
-8 4 7 109.82 6.12
8 4 7 110.19 6.19
8 -4 8 0.43 0.25
-8 4 8 0.83 0.23
-8 4 -8 1.01 0.25
8 4 8 0.65 0.29
-8 4 9 31.89 1.88
8 -4 9 31.01 1.94
8 4 9 31.49 1.95
-8 4 -9 30.78 1.9
8 -4 10 1.38 0.32
-8 4 10 1.7 0.31
8 4 -10 0.76 0.32
8 -4 10 1.33 0.34
8 -4 -10 1.98 0.37
8 4 10 2.28 0.38
-8 4 -10 1.77 0.36
8 4 10 1.07 0.32
-8 4 11 2.4 0.4
8 -4 11 3.29 0.44
-8 4 11 4.01 0.52
8 -4 11 2.46 0.43
8 4 -11 1.88 0.42
8 4 11 2.87 0.42
8 -4 -11 3.34 0.43
-8 4 -11 4.19 0.62
8 4 11 2.69 0.44
8 -4 12 0.3 0.33
-8 4 12 0.96 0.38
8 -4 12 0.43 0.36
-8 4 12 0.08 0.34
8 4 -12 0.27 0.34
8 4 12 0.46 0.34
8 -4 -12 0.29 0.28
8 4 12 0.39 0.37
-8 4 13 2.02 0.42
8 -4 13 1.84 0.36
8 4 -13 1.8 0.35
8 -4 -13 1.55 0.3
8 4 13 0.84 0.41
8 4 13 1.33 0.34
-8 -4 -14 1.46 0.4
8 4 -14 0.18 0.29
-8 4 14 0.87 0.4
8 -4 14 0.39 0.31
-8 4 -14 1.17 0.35
-8 -4 14 0.81 0.39
8 4 14 0.18 0.35
-8 -4 14 0.77 0.34
8 -4 -14 0.7 0.27
8 4 14 0.07 0.3
8 4 -15 2.82 0.39
-8 4 15 3.09 0.5
-8 -4 -15 2.47 0.39
8 -4 15 2.51 0.36
-8 4 -15 3.15 0.38
8 4 15 2.37 0.36
8 -4 -15 2.76 0.38
-8 -4 15 1.98 0.38
-8 4 16 0.78 0.34
8 4 -16 0.62 0.24
8 -4 16 0.34 0.26
-8 4 -16 0.83 0.28
8 -4 -16 0.43 0.23
8 4 16 0.39 0.26
-8 -4 16 0.51 0.27
-8 4 17 2 0.32
8 4 -17 1.94 0.3
-8 -4 17 1.49 0.28
-8 4 -17 2.01 0.31
8 4 17 2.14 0.33
8 -4 -17 1.61 0.27
-9 -4 0 -0.09 0.22
9 4 0 0.18 0.18
9 4 -1 53.7 2.84
-9 -4 -1 44.84 2.98
-9 -4 -1 44 2.93
-9 -4 1 51.74 2.93
-9 -4 1 48.12 2.94
9 4 1 51.85 2.83
-9 -4 -2 0.78 0.25
-9 -4 -2 0.07 0.4
-9 -4 2 0.79 0.28
-9 -4 2 1.16 0.3
-9 4 -2 -0.21 0.43
-9 4 4 0.1 0.14
9 4 4 0.22 0.15
9 4 4 -0.17 0.23
-9 4 5 4.35 0.41
9 -4 5 4.79 0.54
9 4 5 4.17 0.58
9 4 5 3.73 0.42
9 -4 6 0.4 0.24
-9 4 6 0.31 0.17
9 4 6 0.49 0.3
-9 4 7 9.84 0.66
9 -4 7 9.01 0.77
9 4 7 7.61 0.8
-9 4 8 1.14 0.26
9 -4 8 1.16 0.32
-9 4 -8 1.16 0.29
9 4 8 0.8 0.31
9 -4 9 19.41 1.25
9 -4 9 19.66 1.36
-9 4 9 21.06 1.29
9 4 9 18.26 1.37
9 -4 -9 18.86 1.22
-9 4 -9 22.19 1.33
9 -4 10 0.07 0.31
-9 4 10 0.02 0.28
9 -4 10 -0.02 0.32
9 4 10 0.25 0.34
-9 4 -10 0.18 0.33
9 -4 -10 0.12 0.31
9 4 10 -0.02 0.32
-9 4 11 21.55 1.51
9 -4 11 24.89 1.58
9 4 -11 24.65 1.48
-9 4 11 22.38 1.42
9 -4 11 24.28 1.44
-9 4 -11 23.58 1.52
9 4 11 23.59 1.45
9 4 11 24.22 1.62
9 -4 -11 23.26 1.42
-9 4 -11 20.98 1.45
9 -4 12 -0.06 0.29
9 4 -12 0.11 0.25
-9 4 12 0.53 0.36
9 4 12 -0.16 0.37
9 -4 -12 0 0.26
9 4 12 -0.18 0.31
-9 4 -12 1.4 0.44
-9 4 13 10.18 0.84
9 -4 13 10.68 0.8
-9 -4 -13 12.13 0.87
9 4 -13 11.45 0.83
-9 4 -13 11.45 0.83
9 4 13 11.57 1.05
9 -4 -13 11.96 0.79
-9 -4 13 11.98 0.83
9 4 13 11.68 0.84
9 4 -14 0.14 0.28
-9 4 14 0.81 0.38
9 4 -14 0.06 0.19
9 -4 14 -0.08 0.28
9 -4 -14 0.33 0.27
-9 4 -14 0.78 0.34
9 4 14 0.05 0.41
9 4 14 0.21 0.29
9 -4 15 5.72 0.48
9 4 -15 4.72 0.45
-9 4 15 4.97 0.53
-9 -4 -15 4.36 0.46
9 -4 -15 5.33 0.44
9 4 15 5.25 0.48
-9 4 -15 4.45 0.44
-9 -4 15 3.72 0.46
9 4 -16 0.55 0.22
9 -4 16 0.2 0.24
-9 4 16 0.46 0.31
9 4 16 0.19 0.24
9 -4 -16 0.26 0.21
-9 4 -16 0.36 0.26
9 4 -17 2.2 0.26
-9 4 17 1.85 0.31
9 4 17 1.87 0.29
9 -4 -17 2.37 0.27
-9 4 -17 2.15 0.29
10 4 0 0.98 0.21
10 4 -1 1.28 0.23
10 4 1 1.09 0.21
10 4 -2 0.28 0.19
10 4 2 0.42 0.17
10 4 -3 17.86 1.19
10 4 3 19.86 1.18
-10 4 4 0.47 0.15
10 4 4 0.25 0.22
10 4 4 0.39 0.15
-10 4 5 12.71 0.81
10 4 5 11.69 0.94
10 4 5 12.33 0.83
-10 4 6 0.73 0.2
10 4 6 0.74 0.32
-10 4 7 20.8 1.31
10 -4 7 22.03 1.41
10 4 7 20.65 1.45
10 -4 8 1.1 0.32
10 -4 8 0.97 0.33
-10 4 8 0.8 0.27
10 4 8 1 0.38
-10 4 -8 1.27 0.32
10 -4 -8 0.88 0.28
10 4 -9 5.91 0.67
10 -4 9 7.88 0.65
10 -4 9 9.09 0.83
-10 4 9 7.9 0.71
10 4 9 7.08 0.71
-10 4 -9 7.84 0.83
-10 4 -9 8.28 0.77
10 4 9 8.38 0.87
10 -4 -9 7.05 0.65
-10 4 10 -0.17 0.29
-10 4 10 -0.48 0.33
10 -4 10 0.26 0.35
10 4 -10 0.25 0.26
10 4 -10 -0.57 0.37
10 -4 10 0.22 0.32
-10 4 -10 0.38 0.36
10 4 10 0.31 0.37
10 -4 -10 -0.03 0.31
10 4 10 0.37 0.37
-10 4 11 1.52 0.38
-10 4 11 0.23 0.35
10 -4 11 1.03 0.32
10 4 -11 0.97 0.31
10 4 -11 0.35 0.38
10 4 11 0.85 0.36
-10 4 -11 0.46 0.37
10 4 11 0.7 0.4
10 -4 -11 0.86 0.32
10 4 -12 0.48 0.28
10 -4 12 0.21 0.27
10 4 -12 -0.14 0.32
-10 4 12 0.8 0.38
10 4 12 0.1 0.32
10 -4 -12 0.35 0.29
10 4 12 0.26 0.38
-10 4 13 0.64 0.38
10 4 -13 0.29 0.3
10 -4 13 0.19 0.27
10 4 -13 0.39 0.26
10 4 13 0.23 0.3
10 4 13 0.4 0.35
10 -4 -13 0.42 0.28
10 4 -14 0.31 0.26
10 -4 14 0.34 0.26
10 4 -14 0.43 0.24
-10 4 14 0.76 0.37
10 4 14 0.29 0.27
10 -4 -14 0.44 0.25
-10 4 -14 1.04 0.34
-10 -4 -15 1.65 0.34
10 4 -15 1.63 0.32
10 -4 15 0.87 0.26
-10 4 15 1.52 0.35
-10 -4 15 2.11 0.32
10 4 15 0.84 0.28
-10 4 -15 1.69 0.32
10 -4 -15 1.13 0.25
10 -4 16 0.18 0.22
10 4 -16 0.47 0.22
-10 4 16 0.16 0.29
10 -4 -16 0.4 0.21
10 4 16 0.18 0.24
-10 4 -16 0.41 0.25
-10 4 17 1.14 0.25
10 -4 -17 1.1 0.22
10 4 17 0.84 0.23
11 4 0 0.02 0.18
11 4 -1 1.6 0.26
11 4 1 1.96 0.37
11 4 -2 0.15 0.2
11 4 2 0.12 0.17
11 4 -3 0.8 0.2
-11 4 4 0.15 0.1
11 4 4 0.36 0.17
11 4 4 0 0.24
-11 4 5 -0.05 0.13
11 4 5 0.16 0.27
-11 4 6 0.38 0.19
11 4 6 0.17 0.32
-11 4 7 -0.09 0.23
11 4 -7 -0.18 0.29
11 -4 7 0.03 0.24
11 4 -7 -0.04 0.22
-11 4 -7 0.13 0.26
11 4 7 0.1 0.36
11 -4 -7 -0.38 0.23
11 4 -8 0.92 0.28
-11 4 8 0.38 0.28
11 -4 8 0.86 0.34
11 4 -8 -0.06 0.34
11 -4 -8 0.62 0.33
11 4 8 0.43 0.4
11 -4 -8 0.3 0.13
-11 4 -8 0.65 0.31
11 4 8 0.13 0.28
11 4 -9 0.09 0.28
11 -4 9 0.04 0.32
11 -4 -9 -0.27 0.31
-11 4 -9 -0.22 0.33
11 4 9 0.06 0.39
11 4 9 0.03 0.38
11 -4 -9 -0.07 0.17
11 4 -10 0.24 0.29
11 4 -10 -0.45 0.36
11 -4 10 0.08 0.31
11 4 10 0.06 0.36
11 4 10 0.31 0.41
11 -4 -10 0.17 0.31
-11 4 -10 -0.09 0.36
11 -4 -10 -0.12 0.2
11 4 -11 0.25 0.35
11 -4 11 0.46 0.3
11 4 -11 0.56 0.29
-11 4 11 0.71 0.36
11 -4 -11 0.28 0.3
11 4 11 0.63 0.36
11 -4 -11 -0.04 0.21
11 4 11 0.54 0.4
-11 4 -12 1.5 0.44
11 4 -13 0.23 0.29
-11 4 13 0.38 0.37
11 4 -13 0.27 0.25
11 -4 13 0.23 0.25
11 4 13 0.19 0.28
11 -4 -13 -0.07 0.18
11 -4 -13 0.36 0.26
-11 4 -13 1.16 0.38
11 4 -14 0.44 0.26
11 4 -14 0.21 0.25
-11 -4 -14 1.06 0.37
11 -4 14 0.3 0.24
-11 4 14 0.27 0.35
11 -4 -14 0.31 0.23
11 -4 -14 0.31 0.16
11 4 14 0.25 0.26
-11 4 -14 0.8 0.32
11 -4 15 0.14 0.22
-11 -4 -15 0.16 0.3
-11 4 15 -0.1 0.3
11 4 -15 0.39 0.22
11 -4 -15 0.22 0.21
11 4 15 0.22 0.24
-11 -4 15 0.75 0.26
-11 4 -15 0.22 0.27
11 -4 16 -0.01 0.19
11 4 -16 0.28 0.16
-11 4 16 -0.13 0.25
-11 4 -16 0.41 0.24
11 4 16 0.17 0.21
11 -4 -16 0.16 0.2
12 4 0 0.37 0.2
12 4 -1 2.78 0.47
12 4 1 2.99 0.44
12 4 -2 3.01 0.44
12 4 2 2.84 0.42
12 4 -5 8.95 0.64
12 4 -6 0.89 0.27
12 -4 6 0.14 0.2
12 4 -6 0.41 0.31
12 -4 -6 0.37 0.13
12 4 6 0.6 0.34
12 -4 7 15.6 1
12 4 -7 15.62 0.97
12 4 -7 14.19 1.01
12 4 7 15.53 1.24
-12 4 -7 15.73 1.11
12 -4 -7 13.41 0.88
12 -4 -7 13.89 0.99
12 -4 8 1.86 0.37
12 4 -8 1.99 0.39
12 4 -8 1.22 0.4
-12 4 -8 1.24 0.36
12 4 8 1.26 0.45
12 4 8 1.76 0.38
12 -4 -8 2.33 0.41
12 -4 -8 1.5 0.22
12 4 -9 5.82 0.68
12 -4 9 6.91 0.63
12 4 -9 6.27 0.57
12 4 9 6.92 0.73
-12 4 -9 8.39 0.86
12 4 9 7.96 0.96
12 -4 -9 5.58 0.49
-12 4 -9 7.68 0.86
12 -4 -9 6.65 0.64
12 4 -10 0.67 0.38
12 -4 10 1.25 0.33
12 4 -10 1.06 0.3
12 -4 -10 0.7 0.22
12 4 10 1.39 0.4
-12 4 -10 0.8 0.4
12 -4 -10 1.08 0.34
12 4 10 1.19 0.45
12 4 -11 1.51 0.39
12 4 -11 1.97 0.39
-12 4 11 1.58 0.41
12 -4 11 2.55 0.35
12 4 11 2.53 0.4
12 -4 -11 1.44 0.24
12 4 -12 0.42 0.26
-12 4 12 -0.16 0.37
12 -4 12 0.2 0.25
12 4 -12 0.07 0.31
12 -4 -12 -0.04 0.18
12 4 12 0.01 0.3
12 -4 -12 0.19 0.26
12 -4 13 0.55 0.24
12 4 -13 0.54 0.26
12 4 -13 0.48 0.28
-12 4 13 0.31 0.36
-12 -4 -13 1.59 0.44
12 -4 -13 0.12 0.17
12 -4 -13 0.5 0.24
12 4 13 0.39 0.28
-12 -4 -14 0.83 0.35
-12 4 14 0.1 0.32
12 4 -14 0.52 0.23
12 4 -14 0.28 0.24
12 -4 14 0.34 0.22
-12 4 -14 0.81 0.31
12 -4 -14 0.27 0.22
12 -4 -14 0.28 0.14
12 4 14 0.12 0.25
12 4 -15 1.31 0.18
12 4 -15 1.43 0.27
12 -4 15 0.77 0.22
12 -4 -15 0.9 0.23
-12 4 -15 1.34 0.27
-12 -4 15 1.13 0.25
12 4 15 1.1 0.25
13 -4 0 0.03 0.13
13 4 0 -0.04 0.19
13 4 0 0.22 0.21
13 4 -1 40.02 2.49
13 4 -1 46.49 2.59
13 -4 1 41.92 2.46
13 4 1 41.84 2.49
13 4 1 47.45 2.59
13 -4 2 0.62 0.16
13 4 -2 0.63 0.24
13 4 -2 0.59 0.22
13 4 2 0.59 0.21
13 -4 -2 0.49 0.14
13 4 -3 23.84 1.41
13 -4 -3 22.58 1.35
13 4 3 24.01 1.39
13 4 -4 3.86 0.45
13 -4 -4 3.99 0.31
13 4 -5 0.74 0.32
13 4 -5 0.8 0.21
13 -4 -5 1.15 0.19
13 4 -6 5.36 0.57
13 -4 6 6.1 0.56
13 4 -6 6.27 0.46
13 4 -6 7.05 0.56
13 -4 -6 4.72 0.54
-13 4 -6 6.09 0.73
13 -4 -6 5.5 0.42
13 4 -7 5.89 0.62
13 -4 7 5.51 0.61
13 4 -7 7.04 0.49
13 4 -7 6.71 0.58
13 -4 -7 6.28 0.62
13 -4 -7 5.93 0.45
-13 4 -7 6.12 0.78
13 4 -8 0.19 0.36
13 4 -8 0.56 0.23
13 -4 8 0.46 0.32
13 4 -8 0.9 0.29
13 -4 -8 0.26 0.2
-13 4 -8 0.42 0.38
13 4 8 0.78 0.38
13 -4 -8 0.44 0.34
13 4 -9 9.54 0.75
13 -4 9 8.31 0.72
13 4 -9 7.78 0.66
-13 -4 9 9 0.72
13 -4 -9 8.66 0.74
13 4 9 9.02 0.8
-13 4 -9 9.9 0.91
13 -4 -9 9.41 0.6
-13 4 -9 9.36 0.95
13 -4 10 0.02 0.28
13 4 -10 -0.11 0.26
13 4 -10 -0.2 0.34
-13 4 -10 1.69 0.58
13 -4 -10 -0.01 0.3
13 4 10 -0.06 0.35
13 -4 11 8.18 0.64
13 4 -11 9.25 0.72
13 4 -11 7.88 0.63
-13 -4 -11 8.74 0.8
13 -4 -11 8.52 0.57
-13 -4 11 8.96 0.68
-13 4 -11 9.62 0.79
13 4 11 8.62 0.7
13 -4 -11 8.59 0.67
13 4 -12 0.09 0.19
13 -4 12 -0.02 0.23
13 4 12 -0.14 0.29
-13 -4 12 1.01 0.29
13 -4 -12 -0.04 0.25
-13 4 -12 0.55 0.39
-13 -4 -13 7.7 0.63
13 4 -13 8.08 0.5
13 -4 13 7.39 0.55
13 4 -13 8.13 0.58
-13 4 -13 7.66 0.59
13 -4 -13 7.39 0.49
13 4 13 7.95 0.6
-13 -4 13 7.7 0.56
13 -4 -13 7.22 0.55
13 -4 14 0.04 0.21
13 4 -14 0.23 0.13
-13 -4 -14 -0.15 0.29
13 4 -14 0.33 0.22
13 -4 -14 -0.05 0.22
-13 4 -14 -0.01 0.28
13 4 14 -0.04 0.23
13 -4 15 4.39 0.36
13 -4 -15 4.17 0.36
-13 -4 15 3.31 0.35
13 4 15 4.35 0.4
-13 4 -15 4.4 0.37
14 -4 0 1.85 0.25
14 4 0 1.82 0.32
14 4 -1 8.04 0.59
14 -4 1 8.8 0.54
14 4 1 8.52 0.59
14 -4 -1 7.62 0.53
14 -4 2 12.99 0.78
14 4 -2 12.19 0.83
14 4 2 12.64 0.82
14 -4 -2 13.18 0.78
14 4 -3 43.5 2.55
14 -4 -3 44.87 2.5
14 4 -4 13 0.77
14 4 -4 12.21 0.84
14 -4 -4 12.21 0.76
14 4 -5 46.19 2.73
14 4 -5 49.83 2.67
14 -4 -5 45.13 2.66
-14 4 -5 46.99 2.82
14 4 -6 1.61 0.24
14 -4 6 1.28 0.33
14 4 -6 1.18 0.35
-14 -4 6 1.36 0.36
14 -4 -6 1.61 0.22
-14 4 -6 1.36 0.39
14 -4 -6 2.27 0.47
14 -4 7 24.11 1.45
14 4 -7 22.82 1.39
14 4 -7 24.32 1.48
14 -4 -7 23.06 1.38
14 -4 -7 24.03 1.49
-14 4 -7 23.98 1.61
14 -4 8 0.39 0.3
14 4 -8 0.36 0.22
14 4 -8 0.4 0.36
14 4 8 0.25 0.29
14 -4 -8 0.7 0.36
14 -4 -8 0.58 0.2
-14 4 -8 0.36 0.37
14 -4 9 5.33 0.56
14 4 -9 5.59 0.61
14 4 -9 5.38 0.48
14 -4 -9 5.8 0.59
14 4 9 5.82 0.65
-14 -4 9 6.11 0.57
-14 4 -9 6.79 0.8
14 -4 -9 5.05 0.44
-14 4 -10 1.57 0.56
-14 -4 10 2.23 0.47
14 4 -11 1.68 0.36
14 -4 11 1.58 0.3
14 4 -11 1.68 0.25
-14 -4 11 2.56 0.43
-14 4 -11 2.95 0.57
14 -4 -11 1.81 0.26
14 4 11 1.92 0.37
14 -4 -11 1.83 0.35
14 -4 12 0.32 0.22
-14 -4 -12 1.28 0.43
14 4 -12 0.37 0.26
14 4 -12 0.38 0.17
-14 -4 12 0.88 0.26
14 -4 -12 -0.09 0.15
14 4 12 0.02 0.28
14 -4 -12 0.22 0.25
-14 4 -12 0.78 0.37
-14 -4 -13 0.72 0.34
14 4 -13 0.63 0.23
14 4 -13 0.59 0.15
14 -4 13 0.22 0.21
-14 4 -13 0.84 0.32
14 -4 -13 0.4 0.23
14 -4 -13 0.29 0.13
14 4 13 0.18 0.26
14 -4 14 0.16 0.2
14 4 -14 0.33 0.12
-14 -4 14 0.64 0.23
14 4 14 0.23 0.27
14 -4 -14 0.2 0.24
-14 4 -14 0.06 0.26
15 4 0 0.27 0.23
15 -4 0 0.24 0.17
15 4 0 0.16 0.2
15 -4 1 4.54 0.37
15 4 -1 3.92 0.43
15 4 1 4.63 0.44
15 -4 -1 4.69 0.36
15 4 -2 0.04 0.18
15 4 -2 -0.03 0.23
15 4 2 0.41 0.22
15 -4 -2 0.02 0.16
15 4 -3 1.89 0.24
-15 -4 -3 2.76 0.51
15 4 -3 2.12 0.33
15 -4 -3 1.76 0.23
15 4 -4 -0.08 0.18
-15 -4 -4 0.68 0.35
15 4 -4 0.09 0.24
-15 4 -4 -0.43 0.29
15 -4 -4 -0.03 0.15
15 4 -5 0.26 0.28
-15 -4 -5 0.73 0.4
15 4 -5 0.23 0.2
15 -4 5 0.11 0.18
-15 4 -5 -0.05 0.32
15 -4 -5 0.46 0.31
15 -4 -5 0.45 0.17
15 4 -6 0.36 0.2
15 4 -6 0.58 0.31
15 -4 6 0.29 0.27
-15 4 -6 0.03 0.34
-15 -4 6 0.23 0.33
15 -4 -6 0.81 0.32
15 -4 -6 0.38 0.18
15 4 -7 0.14 0.2
15 -4 7 -0.05 0.29
15 4 -7 -0.04 0.32
-15 4 -7 -0.37 0.33
-15 -4 7 0.5 0.34
15 -4 -7 -0.02 0.18
15 -4 -7 0.45 0.34
15 -4 8 -0.06 0.29
15 4 -8 0.19 0.33
15 4 -8 0.39 0.21
15 -4 -8 0.67 0.35
-15 -4 8 1.05 0.33
15 -4 -8 0.26 0.19
15 4 -9 0.01 0.21
15 4 -9 0.17 0.32
15 -4 9 0.09 0.27
15 4 9 0.26 0.32
15 -4 -9 0.01 0.18
-15 -4 9 0.54 0.31
-15 4 -9 0.53 0.54
15 -4 -9 0.04 0.32
15 4 -10 0.16 0.3
15 4 -10 0.26 0.2
15 4 10 0.15 0.33
-15 4 -10 1.05 0.5
-15 -4 10 0.86 0.3
15 -4 11 0.06 0.23
-15 -4 -11 1.12 0.46
15 4 -11 0.11 0.17
15 4 -11 0.11 0.25
15 -4 -11 0.05 0.28
15 4 11 -0.03 0.3
15 -4 -11 -0.02 0.15
-15 4 -11 0.53 0.4
-15 -4 -12 0.55 0.35
15 4 -12 0.27 0.22
15 4 -12 0.23 0.14
15 -4 12 0.26 0.22
15 4 12 0.18 0.28
-15 4 -12 -0.06 0.32
15 -4 -12 0.11 0.26
15 -4 -12 0.1 0.13
15 4 -13 0.17 0.13
15 -4 13 0.15 0.2
-15 -4 -13 -0.39 0.29
15 -4 -13 -0.01 0.25
-15 -4 13 0.56 0.23
15 4 13 0.49 0.26
-15 4 -13 0.16 0.27
16 4 0 1.7 0.28
16 4 0 1.67 0.25
16 -4 0 1.85 0.22
16 4 -1 0.52 0.24
16 4 -1 0.28 0.18
16 -4 1 0.69 0.18
16 4 1 0.68 0.24
16 -4 -1 0.63 0.18
16 4 -2 0.12 0.18
16 4 -2 0.4 0.23
16 -4 -2 0.37 0.16
-16 -4 -3 8.74 0.7
16 4 -3 7.3 0.6
16 4 -3 8.11 0.52
16 -4 -3 7.09 0.52
16 4 -4 0.52 0.26
16 4 -4 0.27 0.18
-16 -4 -4 1.19 0.36
16 -4 -4 0.34 0.17
16 4 -5 5.73 0.43
-16 -4 -5 4.45 0.64
16 4 -5 5.72 0.51
16 -4 -5 5.42 0.4
16 -4 6 0.1 0.23
16 4 -6 0.48 0.29
16 4 -6 0.65 0.2
-16 -4 6 -0.5 0.3
16 -4 -6 0.5 0.16
16 -4 7 5.57 0.5
16 4 -7 5.19 0.41
16 4 -7 5.4 0.53
-16 4 -7 4.33 0.78
-16 -4 7 4.29 0.56
16 -4 -7 4.75 0.38
16 4 -8 0.71 0.2
16 4 -8 0.68 0.3
16 -4 8 0.1 0.26
-16 -4 8 0.59 0.31
16 -4 -8 0.74 0.34
-16 4 -8 0.61 0.55
16 -4 -8 0.43 0.18
16 4 -9 2.47 0.31
16 4 -9 2.79 0.41
16 -4 9 2.91 0.4
16 -4 -9 2.52 0.28
-16 4 -9 3.19 0.55
-16 -4 9 3.07 0.44
16 -4 -9 2.92 0.45
16 4 -10 0.63 0.17
16 -4 10 0.44 0.25
16 4 -10 0.66 0.26
16 -4 -10 0.57 0.17
-16 -4 10 1.06 0.29
16 -4 -10 0.57 0.34
-16 4 -10 0.63 0.42
16 4 -11 0.49 0.15
16 4 -11 0.72 0.24
16 -4 11 0.74 0.24
-16 4 -11 1.21 0.36
16 -4 -11 0.82 0.16
16 -4 -11 0.86 0.31
-16 -4 -12 -0.02 0.3
16 4 -12 0.47 0.13
16 -4 12 0.28 0.23
-16 -4 12 0.78 0.23
-16 4 -12 0.06 0.28
17 4 0 -0.26 0.17
17 4 0 0.28 0.21
17 -4 0 -0.09 0.15
17 4 -1 20.97 1.29
17 4 -1 22.34 1.25
17 -4 -1 20.81 1.24
17 4 -2 0.01 0.18
17 4 -2 0.14 0.21
-17 -4 -2 0.37 0.3
17 -4 -2 0.3 0.16
-17 -4 -3 19.62 1.22
17 4 -3 18.86 1.19
17 4 -3 20.33 1.14
17 -4 -3 18.59 1.13
17 4 -4 1.54 0.3
17 4 -4 1.69 0.22
-17 -4 -4 1.39 0.37
17 -4 -4 1.53 0.21
17 4 -5 2.77 0.4
17 4 -5 3.07 0.31
17 -4 -5 2.66 0.3
17 4 -6 0.71 0.19
17 4 -6 0.59 0.27
17 -4 -6 0.71 0.18
17 4 -7 0.44 0.17
17 4 -7 0.63 0.28
-17 4 -7 -0.1 0.51
17 -4 -7 0.67 0.18
17 -4 8 -0.07 0.23
17 4 -8 0.2 0.16
17 4 -8 -0.04 0.26
-17 -4 8 0.11 0.27
17 -4 -8 0.12 0.16
-17 -4 -9 3.41 0.52
17 4 -9 2.84 0.26
17 -4 9 2.24 0.36
17 4 -9 2.47 0.37
-17 -4 9 2.02 0.39
17 -4 -9 2.79 0.28
-17 4 -9 2.2 0.46
17 -4 10 -0.17 0.22
17 4 -10 0.18 0.22
17 4 -10 0.04 0.14
17 -4 -10 -0.02 0.15
-17 -4 10 0.03 0.24
18 4 -1 0.83 0.18
-18 -4 -1 0.69 0.29
18 4 -2 -0.01 0.16
-18 -4 -2 0.13 0.28
18 4 -2 0.29 0.22
18 -4 -2 0.23 0.14
18 4 -3 10.22 0.59
18 4 -3 8.93 0.63
-18 -4 -3 7.41 0.67
18 -4 -3 9.53 0.58
18 4 -4 0.23 0.16
18 4 -4 0.22 0.23
18 -4 -4 0.27 0.15
18 4 -5 15.11 0.88
18 4 -5 14.32 0.94
18 -4 -5 14.49 0.87
18 4 -6 0.51 0.16
18 4 -6 0.87 0.27
18 -4 -6 0.71 0.17
18 4 -7 12.48 0.86
18 4 -7 13.78 0.79
18 -4 -7 13.11 0.79
18 4 -8 0.09 0.25
18 4 -8 0.33 0.14
18 -4 -8 0.05 0.16
-18 -4 -9 4.57 0.54
18 4 -9 6.05 0.39
18 -4 -9 6.54 0.41
-19 -4 -1 1.07 0.25
-19 -4 1 0.79 0.23
19 4 -3 1.28 0.18
19 4 -4 0.33 0.15
19 4 -4 0.22 0.24
19 -4 -4 0.41 0.16
19 4 -5 0.25 0.14
19 4 -5 0.16 0.25
19 -4 -5 0.16 0.17
19 4 -6 0.48 0.26
19 4 -6 0.6 0.14
19 -4 -6 0.65 0.18
19 4 -7 0.01 0.1
19 4 -7 -0.14 0.16
19 -4 -7 0.03 0.18
-20 -4 3 0.11 0.15
0 -5 0 0.1 0.16
0 -5 0 0.18 0.24
0 5 0 -0.02 0.08
0 5 0 0.06 0.14
0 -5 -1 0.17 0.22
0 5 1 0.28 0.16
0 -5 1 0.16 0.23
0 -5 -1 0.17 0.06
0 5 -1 -0.09 0.1
0 -5 1 0.31 0.24
0 -5 -2 0.02 0.05
0 -5 -2 0.04 0.24
0 -5 2 0.17 0.25
0 -5 2 -0.05 0.29
0 5 2 0.18 0.19
0 -5 -3 -0.24 0.2
0 -5 3 -0.13 0.33
0 -5 3 -0.02 0.09
0 5 3 0.21 0.21
0 -5 3 0.14 0.27
0 5 4 0.13 0.26
0 -5 4 0.03 0.43
0 5 4 0.19 0.12
0 -5 -4 -0.17 0.2
0 -5 4 0.04 0.13
0 -5 4 0.2 0.34
0 5 5 0.06 0.34
0 -5 5 0.3 0.41
0 -5 5 0.02 0.17
0 5 5 0.09 0.17
0 5 5 0.2 0.18
0 -5 5 0.5 0.52
0 -5 6 -0.22 0.5
0 5 6 0.27 0.25
0 -5 6 0.71 0.24
0 5 6 0.61 0.22
0 -5 6 2.14 0.83
0 5 6 1.08 0.51
0 -5 7 -0.01 0.57
0 5 7 0.03 0.22
0 -5 7 1.72 0.95
0 5 7 0.17 0.58
0 5 7 -0.26 0.18
0 5 8 0.62 0.26
0 -5 8 0.72 0.27
0 5 8 0.22 0.24
0 -5 8 -0.11 0.79
0 5 9 0.5 0.24
0 -5 9 0.61 0.27
0 5 10 0.18 0.27
0 5 10 0.09 0.24
0 -5 10 -0.09 0.24
0 5 11 0.25 0.29
0 5 11 0.43 0.27
0 -5 11 0.34 0.25
0 5 12 -0.29 0.33
0 -5 12 0.01 0.26
0 5 12 -0.43 0.26
0 -5 -13 0.4 0.28
0 -5 13 0.5 0.29
0 5 13 0.12 0.37
0 -5 -14 -0.24 0.3
0 5 -14 0.21 0.29
0 -5 14 -0.07 0.31
0 -5 14 0.39 0.32
0 5 15 0.98 0.44
0 -5 15 0.67 0.31
0 -5 15 -0.18 0.31
0 5 -15 0.56 0.3
0 -5 -15 0.34 0.31
0 5 16 0.67 0.38
0 -5 -16 0.32 0.29
0 5 -16 0.14 0.29
0 -5 16 0.43 0.29
0 -5 -17 -0.09 0.26
0 5 17 0.08 0.3
0 5 -17 -0.01 0.27
0 -5 17 -0.1 0.24
0 -5 18 0.08 0.22
0 5 -18 0.35 0.25
0 -5 -18 -0.1 0.24
0 5 -19 0.18 0.24
0 -5 19 0.21 0.21
1 -5 0 25.67 1.65
-1 -5 0 26.08 1.6
-1 -5 0 27.46 1.54
-1 5 0 25.73 1.51
1 -5 0 25.62 1.51
-1 5 0 28.34 1.53
1 5 0 28.51 1.54
1 -5 1 0.4 0.3
-1 -5 -1 0.41 0.2
-1 -5 -1 0.39 0.1
1 -5 1 0.2 0.18
1 5 -1 0.33 0.12
-1 -5 1 0.51 0.15
1 5 1 0.65 0.17
-1 5 -1 0.67 0.13
-1 -5 1 0.61 0.22
1 -5 -1 0.39 0.27
1 -5 2 117.34 6.68
1 -5 2 109.81 6.65
-1 5 2 122.27 6.61
-1 -5 -2 123.26 6.57
-1 -5 -2 116.37 6.62
1 5 2 123.18 6.6
1 -5 -2 114.14 6.64
-1 -5 2 115.32 6.63
-1 -5 2 116.52 6.64
-1 -5 -3 0.62 0.22
1 -5 3 0.58 0.32
-1 5 3 0.62 0.26
-1 -5 3 0.55 0.12
1 5 3 0.8 0.22
-1 -5 3 0.55 0.26
-1 -5 3 0.67 0.25
1 -5 4 8.87 0.79
-1 5 4 9.39 0.56
-1 -5 -4 7.42 0.61
-1 5 4 8.03 0.7
-1 -5 4 8.86 0.73
-1 -5 4 6.31 0.82
1 5 4 8.76 0.68
-1 -5 4 8.47 0.54
1 -5 5 22.9 1.81
1 -5 5 26.07 1.64
-1 -5 -5 21.2 1.47
-1 5 5 26.41 1.47
1 -5 5 22.6 1.43
-1 5 5 24.55 1.58
1 5 5 25.22 1.56
-1 -5 5 26 1.62
1 5 5 24.53 1.46
1 5 5 24.38 1.45
1 -5 6 9.98 0.7
-1 5 6 8.36 0.63
-1 5 6 10.09 0.71
1 -5 6 9.39 1.03
-1 5 6 8.87 0.75
-1 5 6 9.55 0.97
1 -5 6 9.14 1.43
-1 -5 6 10.24 1.06
1 5 6 8.59 0.73
-1 -5 6 10.23 0.74
1 5 6 9.66 0.7
1 5 6 10.2 0.96
-1 5 7 30.63 1.86
1 -5 7 32.8 1.9
-1 5 7 31.56 2.13
-1 5 7 33.53 1.9
1 -5 7 32.15 2.47
-1 -5 7 35.06 2.58
1 5 7 33.18 1.9
-1 -5 7 27.8 2.07
-1 -5 7 32.57 1.92
1 5 7 30.12 2.13
-1 5 8 15.93 1.03
1 -5 8 17.19 1.05
-1 5 8 15.8 1.01
1 -5 8 13.99 1.72
-1 -5 8 16.01 1.06
1 5 8 16.09 1.04
-1 -5 8 12.33 1.96
1 5 8 14.64 1.02
-1 5 9 23.05 1.41
1 -5 9 22.88 1.42
-1 5 9 23.19 1.39
-1 -5 9 22.18 1.42
1 5 9 23.01 1.42
1 5 9 21.59 1.41
-1 5 10 12.32 0.86
-1 5 10 11.46 0.86
1 -5 10 12.25 0.86
1 5 10 10.97 0.88
1 5 10 11.83 0.86
-1 -5 10 12.14 0.9
1 -5 11 4.66 0.54
-1 5 11 4.88 0.58
-1 5 11 4.05 0.53
1 5 11 3.37 0.62
1 5 11 4.57 0.56
-1 -5 11 4.32 0.57
1 -5 12 27.4 1.63
-1 5 12 25.78 1.64
1 5 12 21.46 1.64
-1 -5 12 27.08 1.63
1 5 12 27.31 1.63
-1 5 13 0.4 0.37
1 5 -13 0.82 0.3
1 -5 13 0.78 0.31
1 -5 13 1.43 0.34
1 -5 -13 0.75 0.33
-1 5 -13 1.16 0.32
1 5 13 -0.06 0.32
-1 -5 13 0.79 0.33
-1 -5 13 1.27 0.34
1 -5 14 7.52 0.74
-1 5 14 6.7 0.73
1 -5 14 8 0.61
-1 -5 -14 7.24 0.59
1 5 -14 7.25 0.57
1 -5 -14 7.31 0.59
-1 -5 14 7.03 0.59
-1 5 -14 7 0.57
-1 -5 14 7.49 0.77
-1 -5 -15 1.91 0.4
1 -5 15 2.07 0.36
-1 5 15 2.22 0.49
1 5 -15 2.14 0.41
-1 -5 15 2.21 0.36
1 -5 -15 1.78 0.34
-1 5 -15 2.57 0.41
1 -5 16 2.38 0.37
-1 -5 -16 2.26 0.38
-1 5 16 2.33 0.43
1 5 -16 1.98 0.37
-1 5 -16 2.15 0.4
1 -5 -16 2.18 0.37
-1 -5 16 2.51 0.41
1 -5 17 1.12 0.28
-1 5 17 1.08 0.34
1 5 -17 0.99 0.29
-1 -5 -17 0.78 0.27
-1 -5 17 1.02 0.29
1 -5 -17 0.84 0.29
-1 5 -17 1.11 0.3
1 -5 18 0.85 0.25
-1 5 18 0.46 0.28
1 5 -18 0.61 0.25
-1 -5 18 0.74 0.24
-1 5 -18 0.63 0.25
1 -5 -18 0.57 0.24
1 -5 19 0.76 0.23
1 5 -19 0.63 0.25
-1 5 -19 0.67 0.25
-1 -5 19 0.76 0.22
2 -5 0 -0.07 0.28
-2 -5 0 0.16 0.18
2 5 0 0.02 0.12
-2 -5 0 0.25 0.11
-2 -5 -1 2.81 0.36
2 -5 1 2.64 0.5
-2 5 1 3.69 0.35
2 -5 1 3.85 0.28
-2 -5 -1 2.91 0.27
2 5 -1 3.32 0.28
2 -5 -1 2.41 0.47
-2 -5 1 2.98 0.37
-2 5 -1 3.68 0.23
-2 -5 1 2.96 0.3
2 5 1 3.15 0.3
-2 -5 -2 1.06 0.19
-2 -5 -2 0.99 0.23
2 -5 2 1.62 0.27
-2 5 2 1.73 0.33
2 -5 -2 1.01 0.27
2 5 2 1.44 0.25
-2 -5 2 1.34 0.27
-2 -5 2 1.16 0.24
-2 -5 -3 15.05 0.97
-2 5 3 14.75 0.99
2 -5 3 15.68 1.09
2 -5 3 14.18 1.01
-2 5 3 15.41 0.89
-2 -5 3 15.72 0.91
2 -5 -3 14.1 0.94
-2 -5 3 15.39 0.99
-2 -5 3 14.86 0.99
2 5 3 15.57 0.95
-2 5 4 148.06 8.43
2 -5 4 155.45 8.56
-2 5 4 146.49 8.5
2 -5 4 162.91 8.56
-2 -5 -4 145.71 8.47
-2 -5 4 154.54 8.5
-2 -5 4 150.87 8.43
2 5 4 152.89 8.48
-2 -5 4 138.34 8.51
-2 -5 -5 2.3 0.44
-2 5 5 2.12 0.27
-2 5 5 2.7 0.46
2 -5 5 2.63 0.36
-2 5 5 2.65 0.5
-2 -5 5 3.45 0.63
-2 -5 5 2.8 0.34
2 5 5 3 0.54
-2 5 -5 1.97 0.35
-2 5 6 187.26 10.49
2 -5 6 194.4 10.77
-2 5 6 197.35 10.66
2 -5 6 192.04 10.51
2 5 6 193.06 10.52
-2 -5 6 192.46 10.63
-2 -5 6 163.82 10.54
-2 -5 6 173.46 10.51
2 5 6 186.47 10.62
2 5 6 199.19 10.57
-2 5 7 3.07 0.42
-2 5 7 2.39 0.65
2 -5 7 1.42 0.83
-2 5 7 4.2 0.48
2 5 7 3.26 0.67
2 -5 8 27.49 1.55
-2 5 8 26.25 1.54
-2 5 8 26.68 1.51
-2 -5 8 24.32 1.56
2 5 8 26.43 1.55
-2 5 -8 20.96 1.5
2 -5 9 39.81 2.29
-2 5 9 36.27 2.26
-2 5 9 41.88 2.27
-2 -5 9 37.56 2.3
2 5 9 39.03 2.29
2 -5 10 16.74 1.11
-2 5 10 17.24 1.1
2 5 10 16.94 1.11
-2 -5 10 15.91 1.13
2 -5 11 16.51 1.11
-2 5 11 17.39 1.13
2 5 11 16.35 1.13
-2 -5 11 15.56 1.12
2 -5 12 2.96 0.5
-2 5 12 1.73 0.35
2 5 12 1.75 0.35
-2 -5 12 1.71 0.36
2 -5 13 2.16 0.39
-2 5 13 1.08 0.39
2 -5 13 1.45 0.34
2 5 -13 2.06 0.38
-2 5 13 2.06 0.51
-2 -5 13 1.33 0.35
2 -5 -13 1.74 0.36
2 5 13 1.21 0.36
-2 -5 -14 1.1 0.35
2 -5 14 0.98 0.33
-2 5 14 2.13 0.52
2 -5 14 0.37 0.31
2 5 -14 1.03 0.31
2 -5 -14 1.53 0.33
-2 -5 14 0.67 0.34
-2 5 -14 1.55 0.33
-2 -5 14 1.73 0.35
-2 -5 -15 2.62 0.41
-2 5 15 4.06 0.58
2 -5 15 1.97 0.38
2 -5 15 3.24 0.43
2 5 -15 2.7 0.4
-2 -5 15 2.21 0.41
2 -5 -15 2.7 0.4
-2 5 -15 3.3 0.43
-2 -5 15 3.18 0.44
2 5 -16 6.41 0.53
-2 5 16 6.59 0.62
2 -5 16 6.17 0.53
-2 -5 -16 5.8 0.51
-2 5 -16 6.56 0.53
2 -5 -16 5.95 0.51
-2 -5 16 5.94 0.54
-2 -5 -17 -0.02 0.21
-2 5 17 0.6 0.33
2 5 -17 0.47 0.27
2 -5 17 0.49 0.27
-2 -5 17 0.43 0.27
-2 5 -17 0.47 0.28
2 -5 -17 0.4 0.27
2 -5 18 3.04 0.32
-2 5 18 2.58 0.34
2 5 -18 3.15 0.35
-2 5 -18 2.9 0.35
2 -5 -18 2.1 0.31
-2 -5 18 2.99 0.32
2 -5 19 0.03 0.22
2 5 -19 0.1 0.26
-2 5 -19 0.11 0.24
-2 -5 19 0.28 0.21
-3 -5 0 57.75 3.04
-3 5 0 45.17 3.02
3 -5 0 50.91 3.1
3 5 0 59.36 3.03
-3 -5 0 53.65 3.07
-3 5 1 18.45 1
-3 -5 -1 17.88 1.05
-3 5 1 15.23 1.06
3 -5 1 17.8 1.17
-3 -5 -1 17.33 1.09
-3 5 -1 15.64 1.01
3 -5 -1 17.85 1.12
-3 -5 1 17.77 1.06
-3 -5 1 18 1.1
3 5 1 18.43 1.05
-3 -5 -2 72.7 3.99
3 -5 2 68.85 3.98
-3 5 2 61.36 4
3 -5 2 70.37 4.08
-3 5 2 73.97 3.95
-3 -5 -2 70.45 4.02
-3 -5 2 73.68 4.01
-3 -5 2 71.47 4.02
3 5 2 70.18 3.99
3 -5 3 1.42 0.32
-3 -5 -3 0.9 0.26
-3 -5 -3 0.94 0.18
-3 5 3 0.61 0.29
-3 -5 3 0.67 0.27
-3 -5 3 1.04 0.23
3 5 3 1.54 0.26
-3 -5 3 0.95 0.18
3 -5 4 33.91 2.04
3 -5 4 35.12 2.18
-3 -5 -4 36.16 2.14
-3 5 4 32.96 2.17
-3 -5 4 38.41 2.08
3 5 4 37.38 2.12
-3 -5 4 36.94 2.16
-3 -5 4 35.59 2.16
-3 -5 -5 20.95 1.41
-3 5 5 22.98 1.51
3 -5 5 21.79 1.35
3 -5 5 19.77 1.55
-3 5 5 21.49 1.28
3 -5 5 20.74 1.3
3 5 5 23.12 1.44
3 5 5 23.56 1.35
-3 -5 5 21.52 1.34
-3 5 -5 20.8 1.33
-3 -5 5 23.41 1.53
-3 -5 5 23.45 1.46
-3 -5 -6 0.56 0.36
3 -5 6 0.63 0.3
-3 5 6 1.02 0.54
3 -5 6 1 0.22
3 5 6 1.18 0.53
-3 5 -6 1.24 0.28
-3 -5 6 1.08 0.52
-3 -5 6 0.93 0.3
-3 5 7 14.3 0.97
-3 5 7 13.13 1.35
3 -5 7 16.33 1.01
3 -5 7 15.77 1.06
-3 -5 7 15.42 1.58
3 5 7 14.89 1.28
3 5 7 17.4 1.05
-3 5 -7 14.98 1.02
-3 -5 7 15.97 1.08
3 -5 8 0.95 0.24
3 -5 8 0.8 0.29
-3 5 8 0.93 0.23
3 5 8 0.64 0.23
-3 -5 8 1.05 0.3
3 -5 9 0.74 0.29
-3 5 9 0.88 0.23
3 -5 9 0.93 0.25
-3 -5 9 0.83 0.29
-3 5 -9 1.06 0.25
3 5 9 0.81 0.25
-3 5 10 3.12 0.47
3 -5 10 3.03 0.49
3 -5 10 1.88 0.34
3 5 10 2.57 0.48
-3 -5 10 2.24 0.35
-3 5 11 0.33 0.27
3 -5 11 -0.04 0.2
3 -5 11 0.42 0.25
3 5 11 0.36 0.27
-3 -5 11 0.09 0.29
3 -5 12 14.44 1
-3 5 12 14.19 1.02
3 5 -12 13.7 0.89
-3 5 -12 11.8 0.87
3 5 12 13.99 1.03
-3 -5 12 13.98 1.03
-3 5 13 1.51 0.48
3 -5 13 0.12 0.29
3 -5 13 0.34 0.3
3 5 -13 0.46 0.31
-3 5 13 -0.17 0.33
-3 -5 13 -0.28 0.32
3 5 13 -0.05 0.33
3 5 13 -0.06 0.22
3 -5 -13 0.43 0.29
-3 5 -13 0.74 0.32
-3 -5 13 0.84 0.35
3 5 -14 4.71 0.5
-3 5 14 3.31 0.53
3 -5 14 4.22 0.63
3 -5 14 4.53 0.5
-3 5 14 5.66 0.66
3 5 14 4.73 0.56
-3 -5 14 4.9 0.51
-3 5 -14 5.24 0.46
-3 -5 14 4.2 0.7
3 -5 -14 5.16 0.47
-3 5 15 2.2 0.49
-3 -5 -15 1.61 0.36
3 -5 15 1.99 0.34
3 5 -15 1.99 0.39
3 -5 -15 1.63 0.31
-3 -5 15 1.91 0.34
-3 5 -15 2.26 0.41
3 5 15 1.33 0.37
-3 5 16 3.01 0.5
3 -5 16 2.53 0.39
3 5 -16 2 0.38
-3 -5 -16 1.8 0.33
-3 -5 16 2.4 0.39
3 5 16 1.25 0.31
3 -5 -16 2.17 0.35
-3 5 -16 2.12 0.39
3 5 -17 1.55 0.31
3 -5 17 1.46 0.29
-3 5 17 1.67 0.36
3 -5 -17 0.83 0.28
-3 -5 17 1.62 0.3
-3 5 -17 1.18 0.3
3 5 -18 0.7 0.24
-3 5 18 0.62 0.28
3 -5 18 0.79 0.25
-3 -5 18 0.88 0.24
-3 5 -18 0.71 0.27
3 -5 -18 0.75 0.24
3 5 -19 0.64 0.26
-3 5 19 0.25 0.23
-3 -5 19 0.51 0.21
-3 5 -19 0.25 0.23
-4 -5 0 0.09 0.2
-4 5 0 0.03 0.09
-4 -5 0 0.01 0.12
4 5 0 0.08 0.13
-4 5 1 0.32 0.21
-4 -5 -1 0.62 0.16
-4 -5 -1 0.89 0.26
-4 5 1 0.77 0.17
-4 -5 1 0.87 0.17
-4 5 -1 0.6 0.17
-4 -5 1 0.99 0.26
4 5 1 0.94 0.19
-4 5 2 0 0.1
-4 5 2 0.13 0.23
-4 -5 -2 -0.02 0.21
-4 -5 -2 0.09 0.14
4 5 2 0.17 0.17
-4 -5 2 0.13 0.15
-4 -5 2 0.37 0.24
-4 -5 -3 0.33 0.26
-4 -5 -3 0.36 0.17
-4 5 3 0.35 0.19
-4 5 3 0.58 0.31
4 -5 3 0.51 0.2
4 5 3 0.77 0.24
-4 -5 3 0.37 0.19
-4 -5 3 0.55 0.3
-4 5 -3 0.62 0.18
-4 -5 3 0.47 0.17
4 -5 4 12.94 0.82
-4 5 4 10.62 0.94
-4 -5 -4 12.03 0.83
4 -5 4 11.26 0.91
4 -5 4 10.97 0.75
-4 -5 -4 12.21 0.93
-4 5 -4 11.83 0.82
-4 -5 4 13.88 0.92
4 5 4 12.44 0.89
-4 -5 4 12.1 0.8
4 5 4 12.18 0.84
-4 -5 4 13.59 0.95
-4 -5 -5 0.31 0.37
-4 5 5 0.07 0.15
4 -5 5 0.26 0.17
4 -5 5 -0.34 0.39
-4 5 5 0.18 0.47
4 -5 5 0.41 0.27
-4 -5 5 0.97 0.37
-4 -5 5 0.6 0.24
-4 -5 5 1.18 0.47
-4 5 -5 0.26 0.22
4 5 5 0.5 0.39
4 -5 6 1.54 0.32
4 -5 6 1.56 0.24
-4 5 6 1.94 0.64
-4 5 6 1.11 0.2
-4 -5 -6 1.05 0.41
4 5 6 2.25 0.55
-4 5 -6 1.25 0.26
-4 -5 6 0.61 0.44
-4 -5 6 1.59 0.35
4 -5 7 0.48 0.29
4 -5 7 0.63 0.22
4 -5 7 -0.46 0.55
-4 5 7 -0.59 0.6
-4 5 7 0.24 0.19
-4 -5 7 0.87 0.29
4 5 7 -0.07 0.55
-4 -5 7 0.85 0.62
-4 5 -7 0.63 0.26
-4 5 -7 1.29 0.52
4 5 7 0.81 0.26
-4 5 8 8.98 0.68
4 -5 8 9.6 0.7
4 -5 8 8.89 0.77
-4 5 -8 9.46 0.72
4 5 8 9.58 0.74
-4 -5 8 9.48 0.78
4 -5 9 0.07 0.22
-4 5 9 0.34 0.2
4 -5 9 -0.01 0.27
-4 -5 9 0.27 0.27
-4 5 -9 0.52 0.25
4 5 9 0.29 0.24
4 -5 10 3.69 0.6
-4 5 10 3.93 0.48
4 -5 10 3.98 0.53
-4 5 -10 3.91 0.52
4 5 10 3.7 0.52
-4 -5 10 3.36 0.57
4 -5 11 0.91 0.28
-4 5 11 1.21 0.29
4 -5 11 0.98 0.32
4 5 11 1.21 0.31
-4 -5 11 0.67 0.32
-4 5 12 1.04 0.32
-4 5 12 1.77 0.41
4 5 -12 0.49 0.33
4 -5 12 1.02 0.3
-4 -5 12 0.37 0.33
-4 5 -12 0.82 0.34
4 5 12 0.88 0.33
4 -5 -12 0.87 0.29
4 5 -13 0.52 0.31
4 -5 13 0.34 0.3
4 -5 13 -0.03 0.29
-4 5 13 0.01 0.33
4 -5 -13 0.58 0.29
-4 -5 13 0.57 0.35
4 5 13 -0.16 0.34
-4 -5 13 -0.16 0.34
-4 5 -13 1.35 0.34
4 5 13 0.13 0.34
-4 5 14 -0.4 0.36
4 5 -14 -0.15 0.3
4 -5 14 -0.29 0.29
4 -5 14 0.25 0.3
-4 5 14 0.51 0.46
4 5 14 -0.28 0.34
-4 5 -14 0.33 0.3
-4 -5 14 -0.5 0.33
4 -5 -14 0.01 0.26
4 5 14 -0.51 0.35
-4 -5 14 0.4 0.32
4 5 -15 0.27 0.28
4 -5 15 0.28 0.3
-4 5 15 1.48 0.45
4 5 15 0.19 0.34
-4 -5 15 -0.55 0.32
-4 -5 15 0.59 0.31
-4 5 -15 0.42 0.31
4 -5 -15 0.17 0.27
4 -5 16 0.34 0.28
-4 5 16 0.42 0.38
4 5 -16 0.2 0.27
-4 -5 16 0.45 0.29
-4 5 -16 0.17 0.29
4 5 16 -0.11 0.31
4 -5 -16 0.08 0.26
-4 5 17 0.52 0.33
4 -5 17 0 0.26
4 5 -17 0.33 0.24
4 -5 -17 0.04 0.25
-4 5 -17 0.04 0.26
-4 -5 17 0.19 0.27
4 5 17 0.22 0.21
4 -5 18 0.54 0.24
-4 5 18 0.79 0.28
4 5 -18 0.69 0.24
-4 -5 18 0.49 0.22
4 -5 -18 0.26 0.22
-4 5 -18 0.56 0.25
-4 5 19 0.23 0.25
-4 -5 19 0.16 0.2
-5 5 0 17.79 1.07
-5 -5 0 18.4 1.11
-5 -5 0 18.14 1.15
-5 5 0 18.3 1.09
5 5 0 15.77 1.05
-5 5 1 7.07 0.5
-5 5 1 6.35 0.56
-5 5 1 7.69 0.67
-5 -5 -1 7.19 0.54
-5 -5 -1 7.87 0.63
-5 -5 1 7.37 0.62
5 5 1 7.17 0.53
-5 -5 1 7.35 0.55
5 5 1 6.38 0.48
-5 5 -1 6.93 0.5
-5 -5 -2 19.64 1.25
-5 5 2 19.45 1.14
-5 5 2 17.94 1.21
-5 -5 -2 20.83 1.2
-5 5 2 19.01 1.21
-5 -5 2 18.69 1.24
5 5 2 19.22 1.17
-5 -5 2 20.11 1.2
-5 5 -2 15.96 1.13
5 5 2 17.88 1.12
-5 -5 -3 13.62 0.99
-5 5 3 12.44 0.95
-5 -5 -3 14.08 0.89
-5 5 3 11.92 0.82
-5 5 3 10.59 0.82
5 5 3 12.92 0.82
-5 -5 3 14.17 0.98
-5 5 -3 12.03 0.87
-5 -5 3 13.87 0.92
-5 -5 3 13.48 0.85
5 5 3 13.22 0.89
5 -5 4 1.84 0.27
-5 -5 -4 2.44 0.47
5 -5 4 2.55 0.48
5 -5 4 1.55 0.36
-5 -5 -4 2.22 0.41
-5 5 4 1.78 0.46
-5 -5 4 2.52 0.37
-5 -5 4 2.58 0.5
-5 5 -4 1.58 0.29
5 5 4 2.07 0.33
5 -5 5 1.97 0.32
-5 5 5 1.4 0.21
-5 -5 -5 1.64 0.46
-5 5 5 1.46 0.53
5 -5 5 2 0.31
5 -5 5 1.52 0.44
5 5 5 1.83 0.36
5 5 5 1.73 0.46
-5 -5 5 2.01 0.38
-5 5 -5 1.77 0.61
-5 5 -5 1.68 0.31
5 -5 6 -0.31 0.43
-5 5 6 0.02 0.17
5 -5 6 0.27 0.26
5 -5 6 0.15 0.18
-5 5 6 -0.38 0.53
5 5 6 0.65 0.26
-5 5 -6 -0.03 0.49
-5 5 -6 0.5 0.26
5 5 6 0.07 0.14
5 5 6 0.85 0.49
-5 -5 6 0.99 0.49
-5 -5 6 0.22 0.29
-5 5 -7 1.1 0.51
-5 -5 7 1.93 0.64
-5 5 8 0.66 0.2
5 -5 8 0.56 0.27
5 -5 8 0.25 0.21
-5 -5 8 0.45 0.28
-5 5 -8 0.9 0.27
5 5 8 0.59 0.25
-5 5 9 4.8 0.47
5 -5 9 4.77 0.53
5 -5 9 4.77 0.59
5 5 9 4.43 0.54
-5 -5 9 3.98 0.55
-5 5 -9 4.79 0.54
5 -5 10 4.11 0.54
5 -5 10 4.29 0.6
-5 5 10 4.1 0.51
-5 -5 10 3.06 0.59
-5 5 -10 4.13 0.52
5 5 10 3.87 0.54
-5 5 11 0.28 0.26
5 -5 11 -0.16 0.32
5 -5 11 0.17 0.26
-5 -5 11 0.13 0.31
5 5 11 0.21 0.27
5 -5 -11 -0.07 0.25
5 5 -12 3.91 0.48
-5 5 12 4.96 0.56
5 -5 12 4.17 0.6
5 -5 12 4.18 0.69
-5 5 12 4.47 0.64
-5 5 -12 4.29 0.48
5 5 12 4.18 0.52
-5 -5 12 3.99 0.66
5 -5 -12 3.92 0.44
5 5 12 3.73 0.64
5 5 -13 1.14 0.33
-5 5 13 1.16 0.37
5 -5 13 0.69 0.32
5 5 13 1.49 0.38
-5 5 -13 2.4 0.44
5 -5 -13 1.4 0.31
5 5 13 0.63 0.38
-5 -5 13 2.08 0.38
5 5 -14 1.15 0.31
5 -5 14 1.78 0.35
-5 5 14 0.58 0.4
-5 5 -14 1.59 0.34
5 -5 -14 1.1 0.29
5 5 14 0.7 0.4
5 5 14 1.37 0.37
-5 -5 14 1.81 0.36
5 -5 15 1.15 0.32
-5 5 15 1.94 0.45
5 5 -15 1.42 0.31
5 5 15 0.73 0.35
5 -5 -15 0.85 0.28
-5 5 -15 1.47 0.33
-5 -5 15 1.53 0.34
5 5 -16 0.75 0.27
5 -5 16 0.82 0.29
-5 5 16 1.26 0.39
5 5 16 0.43 0.32
-5 -5 16 1.02 0.31
5 -5 -16 0.88 0.28
-5 5 -16 0.84 0.3
5 5 -17 0.66 0.24
5 -5 17 0.37 0.25
-5 5 17 1.09 0.34
-5 -5 17 0.68 0.26
-5 5 -17 0.5 0.26
5 5 17 0.48 0.28
5 -5 -17 0.4 0.25
-5 5 18 0.3 0.26
5 5 -18 0.07 0.23
5 -5 -18 0.05 0.22
-5 -5 18 0.31 0.22
-5 5 -18 0.09 0.24
6 5 0 0.12 0.16
-6 5 0 -0.09 0.2
-6 -5 0 0.53 0.32
-6 5 0 0.08 0.35
-6 -5 0 0.16 0.18
-6 5 0 0.03 0.15
-6 5 1 20.19 1.24
-6 5 1 20.52 1.29
-6 5 1 21 1.37
6 5 -1 19.17 1.23
-6 -5 -1 22.05 1.37
-6 -5 -1 21.54 1.3
-6 -5 1 20.47 1.36
6 5 1 20.78 1.28
-6 -5 1 20.64 1.3
-6 5 -1 20.36 1.23
6 5 1 19.67 1.23
-6 5 -1 19.94 1.46
-6 5 -1 19.78 1.26
-6 5 2 60.63 3.63
6 5 -2 58.36 3.62
-6 5 2 63.5 3.69
-6 5 2 59.48 3.67
-6 -5 -2 67.61 3.7
-6 -5 -2 68.1 3.75
-6 -5 2 68.23 3.7
-6 -5 2 64.03 3.66
6 5 2 64.18 3.61
-6 -5 2 66.88 3.72
6 5 2 66.69 3.67
-6 5 -2 56.58 3.82
-6 -5 -3 11.42 0.94
-6 -5 -3 10.92 0.8
-6 5 3 9.41 0.84
6 -5 3 8.57 0.64
-6 -5 3 10.79 0.82
-6 5 -3 8.47 1.03
-6 -5 3 11.62 0.9
6 5 3 10.49 0.7
6 5 3 10.24 0.79
-6 -5 3 10.18 0.74
6 -5 4 67.07 3.97
-6 5 4 73.08 3.97
-6 5 4 63.67 4.12
-6 -5 -4 71.44 4.09
-6 -5 -4 72.13 4.15
-6 5 -4 65.33 4.25
6 5 4 71.22 4
-6 -5 4 72.44 4.11
-6 -5 4 76.05 4.12
6 5 4 72.03 4.04
-6 -5 4 73.72 4.06
-6 5 -4 68.21 4.01
6 5 4 69.91 4.07
-6 5 5 5.72 0.48
-6 -5 -5 6.42 0.64
6 -5 5 6.21 0.48
6 -5 5 7.05 0.63
-6 -5 -5 5.8 0.76
6 5 5 6.52 0.53
6 5 5 6.76 0.73
-6 -5 5 7.07 0.78
-6 5 -5 6.05 0.59
-6 5 -5 6.45 0.94
6 5 5 8 0.69
-6 -5 5 6.69 0.59
6 -5 6 102.89 5.55
6 -5 6 98.81 5.59
-6 5 6 98.75 5.53
6 5 6 106.2 5.6
6 5 6 101.76 5.55
-6 5 -6 96.21 5.56
-6 -5 6 93.96 5.73
-6 5 -6 88.56 5.8
6 -5 7 1.27 0.23
6 -5 7 1.68 0.3
-6 5 7 2.19 0.33
6 5 7 1.83 0.33
6 5 7 2.54 0.49
-6 5 8 38.26 2.18
6 -5 8 40.03 2.22
6 -5 8 36.77 2.25
-6 5 -8 35.8 2.21
6 5 8 37.31 2.25
6 -5 9 8.1 0.76
-6 5 9 8.7 0.63
6 -5 9 7.7 0.68
-6 -5 9 6.81 0.72
-6 5 -9 9.3 0.7
6 5 9 7.98 0.71
-6 5 10 7.85 0.66
6 -5 10 7.97 0.72
6 -5 10 8.02 0.76
6 5 10 7.82 0.74
-6 5 -10 8.7 0.74
6 -5 11 1.65 0.34
-6 5 11 2.73 0.47
-6 5 11 2.41 0.5
6 -5 11 1.95 0.39
6 5 -11 2.77 0.4
6 5 11 1.53 0.34
6 5 11 2.61 0.39
-6 5 -11 1.89 0.34
-6 -5 11 1.44 0.37
6 -5 -11 2.35 0.37
6 5 -12 2.23 0.39
-6 5 12 3.29 0.52
6 5 12 1.23 0.37
6 -5 -12 1.99 0.37
-6 5 13 7.62 0.66
6 5 -13 6.96 0.57
-6 5 13 4.54 0.76
6 -5 -13 5.99 0.54
-6 -5 13 6.74 0.61
-6 5 -13 7.86 0.6
6 5 13 5.03 0.79
6 5 13 5.85 0.63
6 -5 14 0.33 0.32
-6 5 14 1.39 0.44
6 -5 14 0.25 0.19
6 5 -14 0.78 0.31
6 -5 -14 0.69 0.26
6 5 14 0.08 0.37
-6 -5 14 0.91 0.34
-6 5 -14 1.42 0.34
6 5 14 0.41 0.32
-6 5 15 5.22 0.57
6 5 -15 5.15 0.49
6 -5 15 4.83 0.5
6 -5 -15 4.95 0.47
-6 5 -15 4.77 0.46
-6 -5 15 5.5 0.49
6 5 15 5.14 0.56
-6 5 16 3.11 0.46
6 5 -16 3.88 0.39
6 5 16 3.53 0.46
6 -5 -16 3.26 0.39
-6 5 -16 3.78 0.42
-6 -5 16 3.84 0.41
-6 5 17 0.54 0.31
6 5 -17 0.36 0.24
6 -5 -17 0.26 0.23
6 5 17 0.08 0.26
-6 -5 17 0.53 0.26
-6 5 -17 0.3 0.25
-6 5 18 3.22 0.35
6 5 -18 3.64 0.36
-6 -5 18 3.39 0.32
-6 5 -18 3.32 0.33
6 -5 -18 2.99 0.31
-7 -5 0 572.41 30.18
-7 -5 0 551.91 30.2
-7 5 0 541.36 30.24
7 5 0 546.06 30.09
-7 5 0 489.87 30.13
-7 5 1 18.07 1.18
7 5 -1 17.74 1.14
-7 5 1 17.29 1.27
-7 -5 -1 19.64 1.33
-7 -5 -1 18.58 1.23
-7 -5 1 18.09 1.22
-7 -5 1 19.92 1.3
-7 5 -1 17.38 1.17
7 5 1 17.89 1.12
-7 5 -1 16.98 1.41
-7 5 2 287.51 16.53
-7 -5 -2 314.29 16.55
-7 -5 -2 300.34 16.59
7 5 -2 286.3 16.46
-7 5 -2 289.29 16.68
-7 -5 2 299.82 16.51
7 5 2 287.36 16.45
-7 5 -2 283.97 16.53
-7 -5 2 298.07 16.55
7 5 2 295.71 16.5
-7 -5 2 299.99 16.54
-7 -5 -3 27.93 1.81
-7 -5 -3 28.58 1.73
7 5 -3 25.95 1.63
-7 5 3 24.46 1.72
-7 -5 3 27.58 1.76
-7 -5 3 29.05 1.74
-7 5 -3 24.65 1.93
7 5 3 27.42 1.69
7 5 3 28.54 1.62
-7 -5 3 26.89 1.68
7 -5 4 97.15 5.74
-7 -5 -4 100.15 5.93
-7 -5 -4 96.05 5.87
-7 5 4 106.56 5.74
7 5 4 101.51 5.85
-7 -5 4 107.19 5.89
7 5 4 101.92 5.77
-7 5 -4 99.65 6.05
-7 -5 4 104.65 5.84
7 5 4 108.36 5.81
-7 5 5 41.93 2.33
7 -5 5 45.12 2.41
7 -5 5 39.2 2.33
-7 -5 5 36.43 2.51
-7 5 -5 41.21 2.38
7 5 5 45.05 2.43
7 5 5 41.23 2.36
-7 5 -5 35.37 2.66
7 -5 6 2.46 0.34
-7 5 6 2.33 0.32
7 -5 6 2.51 0.34
7 5 6 2.2 0.35
7 5 6 2 0.35
7 -5 7 20.47 1.29
7 -5 7 21.41 1.37
-7 5 7 21.67 1.28
7 5 7 22.19 1.38
-7 5 -7 20.71 1.33
7 5 7 21.1 1.29
-7 5 8 8.16 0.6
7 -5 8 7.25 0.71
7 -5 8 7.04 0.63
-7 5 -8 9.29 0.68
7 5 8 7.25 0.71
7 -5 9 8.36 0.7
-7 5 9 8.7 0.67
7 -5 9 8.47 0.77
-7 5 -9 8.67 0.73
7 5 9 7.59 0.74
7 -5 10 23.6 1.55
-7 5 10 24.07 1.49
7 -5 10 22.88 1.51
7 5 10 23.5 1.55
-7 5 -10 25.43 1.54
-7 5 11 8.43 0.74
7 -5 11 6.57 0.73
-7 5 11 8.21 0.67
7 5 -11 7.13 0.66
7 -5 11 9.13 0.82
-7 5 -11 8.24 0.78
7 -5 -11 7.69 0.62
-7 5 -11 7.53 0.67
7 5 11 8.44 0.8
7 5 11 7.75 0.7
-7 5 12 12.2 0.84
7 5 -12 10.73 0.82
-7 5 12 11.5 0.92
7 -5 12 11.71 0.81
7 5 12 11.3 0.86
7 -5 -12 10.91 0.78
-7 5 -12 11.6 0.84
7 5 12 11.62 1
7 -5 13 4.3 0.53
-7 5 13 4.5 0.55
7 5 -13 3.94 0.48
-7 5 13 3.19 0.48
-7 -5 13 3.67 0.48
7 -5 -13 3.37 0.41
7 5 13 4.61 0.79
7 5 13 3.43 0.52
-7 5 -13 3.78 0.46
7 5 -14 5.54 0.52
-7 5 14 5.88 0.62
7 -5 14 5.01 0.57
7 5 14 5.26 0.8
7 -5 -14 5.47 0.5
-7 5 -14 5.64 0.5
-7 -5 14 5.27 0.52
7 5 14 5.04 0.56
7 -5 15 0.5 0.29
7 5 -15 1.04 0.29
-7 5 15 0.93 0.41
-7 5 -15 1.3 0.32
-7 -5 15 0.9 0.31
7 -5 -15 0.75 0.27
7 5 15 0.57 0.31
7 5 -16 4.43 0.42
-7 5 16 3.43 0.47
-7 -5 16 4.08 0.41
-7 5 -16 4.1 0.42
7 -5 -16 4.55 0.41
7 5 16 3.64 0.47
-7 5 17 2.61 0.36
7 5 -17 2.81 0.31
7 -5 -17 2.23 0.29
-7 5 -17 2.47 0.31
7 5 17 2.45 0.35
-7 -5 17 2.18 0.3
-7 5 18 1.03 0.26
7 5 -18 0.72 0.25
7 -5 -18 1.25 0.23
-7 5 -18 0.69 0.24
-8 -5 0 -0.11 0.22
-8 5 0 0.05 0.36
8 5 0 0.05 0.18
-8 -5 0 0.22 0.4
-8 -5 -1 10.43 1
8 5 -1 11.42 0.78
-8 -5 -1 10.97 0.85
-8 5 -1 10.17 1.07
-8 -5 1 10.72 0.96
-8 -5 1 10.35 0.82
-8 -5 1 10.88 0.86
8 5 1 11.16 0.74
-8 -5 -2 19.74 1.42
8 5 -2 20.91 1.24
-8 -5 -2 19.54 1.32
-8 -5 2 17.38 1.37
-8 -5 2 19.17 1.28
8 5 2 20.58 1.21
-8 -5 2 19.75 1.32
-8 5 -2 19.68 1.57
8 5 -3 0.21 0.2
-8 -5 -3 0.12 0.24
-8 -5 -3 -0.64 0.4
-8 5 3 -0.69 0.37
8 -5 3 0.05 0.09
-8 -5 3 -0.25 0.25
8 5 3 0.29 0.17
8 5 3 0.63 0.3
-8 5 -3 0.34 0.56
-8 -5 3 0.18 0.26
-8 -5 4 13.63 0.96
-8 5 -4 9.5 1.19
-8 5 5 0.64 0.17
8 -5 5 0.6 0.14
8 5 5 0.99 0.32
8 5 5 0.63 0.17
8 -5 6 14.06 0.95
-8 5 6 15.91 0.97
8 -5 6 16.09 1.07
-8 5 -6 15.55 1.02
8 5 6 14.8 0.98
8 5 6 16.49 1.11
8 -5 7 0.12 0.17
8 -5 7 -0.05 0.24
-8 5 7 0.41 0.18
-8 5 -7 0.51 0.22
8 5 7 0.14 0.29
-8 5 8 17.09 1.04
8 -5 8 16.92 1.13
8 -5 8 14.01 1.04
-8 5 -8 16 1.08
8 5 8 17.01 1.16
8 -5 9 -0.03 0.2
8 -5 9 0.3 0.3
-8 5 9 0.26 0.23
8 5 9 0.1 0.28
-8 5 -9 0.54 0.28
8 5 -10 1.3 0.4
8 -5 10 1.87 0.36
-8 5 10 1.87 0.33
8 -5 10 1.48 0.37
-8 5 -10 2.17 0.37
8 -5 -10 2.26 0.38
8 -5 -10 2.17 0.37
8 5 10 1.86 0.38
8 5 10 1.78 0.37
-8 5 11 0.54 0.31
8 -5 11 0.61 0.35
8 5 -11 1.09 0.39
8 5 11 0.55 0.34
8 -5 -11 1.42 0.32
8 5 11 1.21 0.37
-8 5 -11 1.1 0.34
8 -5 -11 1.33 0.35
8 -5 12 0.44 0.33
-8 5 12 1.37 0.38
-8 5 13 0.03 0.35
8 -5 13 0.51 0.32
-8 5 13 1.54 0.38
8 5 -13 1.09 0.34
8 -5 -13 0.95 0.29
8 5 13 0.53 0.4
8 5 13 0.75 0.33
8 5 -14 0.58 0.29
8 -5 14 0.34 0.31
-8 5 14 1.28 0.41
-8 -5 14 0.01 0.31
8 -5 -14 0.64 0.28
8 5 14 0.33 0.31
8 5 14 -0.03 0.33
-8 -5 14 0.94 0.35
8 -5 15 0.58 0.29
-8 5 15 0.8 0.4
8 5 -15 0.71 0.27
-8 -5 15 0.53 0.29
-8 5 -15 1.15 0.31
8 -5 -15 0.88 0.26
8 5 15 0.76 0.3
-8 5 16 1.13 0.34
8 5 -16 0.72 0.24
8 -5 16 0.13 0.18
-8 5 -16 1.28 0.28
8 5 16 0.41 0.26
8 -5 -16 0.6 0.23
-8 -5 16 0.65 0.28
8 5 -17 0.45 0.23
-8 5 17 0.15 0.27
8 5 17 -0.2 0.23
8 -5 -17 0.2 0.21
-8 5 -17 0.16 0.23
9 5 -1 0.16 0.18
-9 -5 -1 -0.03 0.2
9 5 1 0.25 0.18
-9 -5 1 0.05 0.26
-9 -5 1 -0.22 0.21
9 5 -3 0.59 0.21
-9 5 3 0.51 0.15
9 5 3 0.54 0.17
-9 5 4 3.19 0.33
9 5 4 2.84 0.55
9 5 4 3.08 0.38
-9 5 5 0.16 0.15
9 5 5 0.18 0.16
9 5 5 -0.14 0.28
-9 5 6 0.2 0.17
9 5 6 0.19 0.17
9 5 6 -0.04 0.3
-9 5 -6 0.3 0.22
-9 5 7 0.39 0.19
-9 5 -7 0.35 0.23
9 5 7 0.12 0.32
-9 5 8 0.68 0.23
9 5 8 0.52 0.34
-9 5 -8 0.71 0.28
9 -5 9 0.1 0.3
-9 5 9 0.39 0.25
9 5 -9 -0.11 0.33
9 -5 -9 0.3 0.29
9 5 9 0.19 0.28
-9 5 -9 0.69 0.31
9 -5 -9 0.62 0.26
9 5 9 0.1 0.31
-9 5 10 0.38 0.29
9 5 -10 0.05 0.38
9 -5 10 0.62 0.34
-9 5 -10 0.79 0.34
9 -5 -10 0.28 0.29
9 -5 -10 0.64 0.34
9 5 10 0.39 0.36
9 5 10 0.9 0.37
-9 5 11 -0.15 0.3
-9 5 11 0.55 0.37
9 -5 11 -0.12 0.31
-9 5 -11 0.2 0.34
9 5 11 0.02 0.37
9 5 11 0.2 0.35
9 -5 -11 0.15 0.3
-9 5 -11 1.72 0.5
9 -5 12 0.42 0.3
-9 5 12 1.35 0.37
-9 -5 -12 2.05 0.54
9 5 -12 0.29 0.34
9 5 12 0.6 0.34
9 -5 -12 0.77 0.31
-9 5 -12 1.73 0.42
9 5 12 0.9 0.42
-9 5 13 0.93 0.38
9 5 -13 0.25 0.3
-9 -5 -13 1.7 0.47
9 -5 13 0.13 0.3
9 5 13 0.38 0.31
9 -5 -13 0.68 0.29
9 5 13 0.46 0.39
-9 5 -13 1 0.36
-9 5 14 1.34 0.39
-9 -5 -14 0.14 0.38
9 -5 14 0.78 0.29
9 5 -14 0.55 0.28
-9 5 -14 0.94 0.34
9 5 14 0.7 0.31
9 -5 -14 0.6 0.28
-9 5 15 0.78 0.37
9 5 -15 0.37 0.25
9 -5 15 0.03 0.25
9 -5 -15 0.31 0.23
-9 5 -15 0.75 0.29
9 5 15 0.18 0.26
9 -5 16 0.33 0.22
-9 5 16 0.93 0.32
9 5 -16 0.64 0.23
9 5 16 0.54 0.26
9 -5 -16 0.62 0.22
-9 5 -16 0.66 0.26
-9 5 17 0.45 0.26
9 5 -17 0.62 0.23
9 5 17 0.12 0.23
-9 5 -17 0.41 0.24
9 -5 -17 0.11 0.21
10 5 0 0.16 0.18
10 5 -1 4.25 0.48
10 5 1 4.77 0.46
10 5 -2 11.76 0.85
10 5 2 12.18 0.82
10 5 -3 4.65 0.52
-10 5 3 4.6 0.4
10 5 3 4.61 0.45
-10 5 5 6.27 0.5
10 5 5 6.04 0.53
10 5 5 5.91 0.7
-10 5 6 31.78 1.8
10 5 6 29.78 1.94
-10 5 -6 29.56 1.85
-10 5 7 0.58 0.22
-10 5 -7 0.59 0.26
10 5 7 0.31 0.35
-10 5 8 26.42 1.58
10 5 -8 23.19 1.57
10 -5 8 25.76 1.55
10 -5 -8 26.89 1.55
10 5 8 26 1.74
-10 5 -8 25.97 1.63
10 -5 9 3.13 0.41
-10 5 9 2.06 0.35
10 5 -9 2.2 0.44
-10 5 -9 3.2 0.62
10 -5 -9 2.19 0.43
10 5 9 2.29 0.47
10 5 9 2.35 0.44
10 -5 -9 2.25 0.4
-10 5 -9 2.25 0.62
10 5 -10 10.84 0.92
-10 5 10 12.56 0.86
10 -5 10 13 0.89
-10 5 10 12.08 0.95
10 5 10 12.6 0.92
10 5 10 13.52 1.14
-10 5 -10 11.24 0.99
-10 5 -10 13.75 1.02
10 -5 -10 12.28 0.87
-10 5 11 1.33 0.38
-10 5 -11 1.63 0.5
10 5 11 0.69 0.41
10 5 11 0.76 0.37
10 -5 12 1.76 0.33
10 5 -12 2.06 0.38
-10 5 12 2.81 0.41
10 5 -12 1.41 0.37
10 5 12 2.34 0.39
10 -5 -12 2.17 0.42
10 5 12 1.77 0.46
10 5 -13 2.07 0.42
10 -5 13 2.49 0.43
-10 5 13 3.02 0.48
10 5 13 2.47 0.39
10 -5 -13 2.2 0.41
-10 5 -13 3.48 0.44
10 -5 14 0.32 0.25
10 5 -14 0.62 0.26
-10 -5 -14 0.58 0.37
-10 5 14 0.68 0.36
10 -5 -14 0.52 0.26
10 5 14 0.3 0.27
-10 5 -14 1.14 0.34
-10 5 15 1.7 0.36
10 -5 15 1.7 0.29
10 5 -15 2.14 0.33
10 -5 -15 1.63 0.31
-10 -5 15 2.38 0.35
-10 5 -15 1.7 0.32
10 5 15 1.92 0.3
10 -5 16 1.07 0.23
-10 5 16 1.72 0.32
10 -5 -16 1.15 0.23
-10 5 -16 1.39 0.27
10 5 16 1.17 0.25
11 5 0 24.22 1.5
11 5 -1 4.05 0.51
11 5 1 4.11 0.47
11 5 -2 22.76 1.45
11 5 2 22.96 1.42
11 5 -3 3.34 0.46
11 5 3 3.55 0.42
-11 5 4 23.45 1.45
11 5 4 25.71 1.51
-11 5 5 5.66 0.48
11 5 5 5.39 0.51
-11 5 -5 5.03 0.6
11 5 -6 1.15 0.3
-11 5 6 0.72 0.22
11 5 6 0.72 0.35
-11 5 -6 0.97 0.27
11 5 -7 7.03 0.63
-11 5 7 7.13 0.61
11 -5 7 7.21 0.61
11 -5 -7 6.35 0.59
-11 5 -7 7.72 0.72
11 5 7 7.45 0.85
-11 5 8 0.92 0.29
11 5 -8 2.07 0.34
11 -5 8 1.36 0.35
11 5 -8 1.56 0.39
11 -5 -8 1.42 0.32
11 -5 -8 1.56 0.39
11 5 8 1.09 0.43
-11 5 -8 1.22 0.34
-11 5 9 0.19 0.29
11 5 -9 0.88 0.31
11 -5 9 1.03 0.34
-11 5 -9 0.73 0.36
11 -5 -9 0.63 0.34
11 5 9 0.79 0.43
11 5 9 1.08 0.43
11 -5 10 7.98 0.68
-11 5 10 8.49 0.68
11 5 -10 8.66 0.66
11 5 -10 8.96 0.74
11 -5 -10 7.23 0.56
11 5 10 7.93 0.77
-11 5 -10 8.81 0.91
11 -5 -10 8.41 0.69
-11 -5 10 10.11 0.72
-11 5 -10 8.89 0.83
11 5 10 7.81 0.96
11 5 -11 0.31 0.29
-11 5 11 0.43 0.35
-11 5 -11 1.83 0.5
11 5 11 0.05 0.35
11 5 11 0.28 0.41
11 5 -12 8.21 0.66
11 5 -12 7.51 0.6
-11 5 12 7.39 0.65
-11 -5 -12 9.05 0.77
11 -5 12 7.67 0.63
11 -5 -12 8.07 0.64
11 5 12 7.75 0.69
-11 5 -12 8.08 0.69
11 -5 -12 7.15 0.52
-11 -5 12 8.48 0.63
11 5 -13 0.12 0.27
11 -5 13 0.2 0.25
11 5 -13 -0.08 0.25
-11 5 13 0.33 0.35
11 -5 -13 0.11 0.13
11 5 13 -0.15 0.28
11 -5 -13 0.23 0.25
-11 5 -13 0.91 0.36
-11 -5 -14 7.79 0.63
11 5 -14 9.09 0.61
11 -5 14 8.53 0.61
-11 5 14 7.42 0.63
-11 -5 14 9.29 0.62
11 -5 -14 8.51 0.6
-11 5 -14 8.16 0.61
11 5 14 8.31 0.63
11 -5 15 0.62 0.22
11 5 -15 1.03 0.24
-11 5 15 0.42 0.32
-11 5 -15 1.02 0.27
11 -5 -15 0.42 0.22
11 5 15 0.42 0.25
11 -5 16 3.11 0.29
11 5 -16 2.96 0.3
-11 5 16 2.31 0.33
11 -5 -16 3.45 0.32
11 5 16 2.89 0.36
-11 5 -16 3.38 0.33
12 5 0 -0.02 0.2
12 5 -1 3.53 0.5
12 5 1 3.97 0.49
12 5 -2 5.88 0.61
12 5 2 5.66 0.55
12 5 -3 0.31 0.2
12 5 -3 0.11 0.19
12 5 3 0.6 0.2
12 5 -4 9.64 0.7
12 5 4 10.7 0.76
12 5 -5 1.46 0.32
-12 5 -5 1.06 0.31
12 5 -7 2.06 0.41
12 -5 7 1.52 0.35
12 5 7 0.85 0.44
-12 5 -7 1.09 0.34
12 -5 -7 1.72 0.35
12 -5 -7 1.12 0.18
12 -5 8 8.4 0.69
12 5 -8 6.26 0.72
12 5 -8 8.37 0.64
12 5 8 8.64 1.03
12 -5 -8 7.72 0.7
12 -5 -8 7.09 0.52
-12 5 -8 8.03 0.88
-12 -5 8 8.68 0.71
-12 5 -8 8.74 0.85
12 5 -9 3.11 0.55
12 -5 9 3.16 0.52
12 5 -9 3.46 0.46
-12 5 -9 4.54 0.69
12 5 9 3.97 0.64
12 -5 -9 3.54 0.53
12 -5 -9 3.06 0.34
-12 5 -9 4 0.72
-12 5 10 3.98 0.51
12 5 -10 3.49 0.58
12 -5 10 4.89 0.51
12 5 -10 4.7 0.49
-12 5 -10 5.91 0.72
-12 5 -10 4.36 0.74
12 -5 -10 3.99 0.37
12 5 10 4.89 0.63
12 -5 -10 4.63 0.52
12 -5 11 2.11 0.33
12 5 -11 1.97 0.33
12 5 -11 1.75 0.38
-12 5 11 1.76 0.38
12 -5 -11 1.94 0.35
12 -5 -11 1.63 0.24
12 5 11 1.88 0.39
12 -5 12 1.26 0.28
12 5 -12 0.96 0.33
-12 5 12 0.89 0.37
12 5 -12 1.13 0.3
12 -5 -12 0.81 0.19
12 -5 -12 1.12 0.3
12 5 12 1.02 0.33
12 -5 13 2.2 0.3
-12 -5 -13 2.78 0.47
-12 5 13 2.13 0.39
12 5 -13 2.04 0.38
-12 5 -13 2.27 0.43
12 5 13 2.08 0.34
12 -5 -13 1.58 0.33
-12 -5 -14 0.26 0.32
-12 5 14 -0.09 0.33
12 -5 14 -0.01 0.21
12 5 -14 0.45 0.22
12 -5 -14 0.22 0.22
-12 5 -14 0.45 0.3
12 5 14 0.03 0.24
12 5 -15 0.71 0.14
12 5 -15 0.87 0.23
12 -5 15 0.67 0.21
-12 -5 15 0.86 0.23
12 -5 -15 0.7 0.23
-12 5 -15 0.69 0.26
12 5 15 0.62 0.24
13 5 0 0.22 0.19
13 -5 0 0.17 0.14
13 5 0 0.25 0.23
13 -5 1 0.16 0.15
13 5 -1 0.17 0.24
13 5 -1 0.02 0.2
13 5 1 0.05 0.21
13 -5 -1 0.08 0.13
13 5 1 0.27 0.21
13 5 -2 0.35 0.22
13 -5 2 0.43 0.16
13 5 -2 0.34 0.24
13 5 2 0.31 0.21
13 -5 -2 0.21 0.14
13 5 2 0.23 0.2
13 5 -3 -0.1 0.21
-13 5 -3 0.09 0.29
13 -5 -3 -0.04 0.13
13 5 3 0.18 0.2
13 5 -4 -0.01 0.25
-13 -5 -4 -0.15 0.28
13 -5 -4 0.28 0.16
-13 5 -4 0.06 0.3
13 5 -5 0.28 0.14
13 -5 5 0.14 0.21
-13 -5 -5 -0.43 0.36
13 5 -5 -0.29 0.29
13 -5 -5 -0.04 0.15
-13 5 -5 -0.09 0.31
13 5 -6 -0.44 0.3
13 5 -6 -0.13 0.21
13 -5 6 0.33 0.29
13 -5 -6 0.18 0.17
-13 -5 6 0.67 0.33
13 -5 -6 0.11 0.23
-13 5 -6 0.26 0.34
13 -5 7 1.05 0.32
13 5 -7 1.51 0.4
13 5 -7 1.66 0.27
-13 5 -7 1.23 0.39
13 -5 -7 1.15 0.21
13 -5 -7 1.49 0.38
13 5 -8 -0.04 0.22
13 5 -8 -0.16 0.34
13 -5 8 -0.1 0.3
13 5 8 0.53 0.32
13 -5 -8 0.07 0.35
-13 5 -8 2.15 0.67
-13 5 -8 0.04 0.36
13 -5 -8 0.01 0.18
-13 -5 8 0.88 0.31
13 5 -9 0.27 0.36
13 -5 9 0.37 0.3
13 -5 -9 0.03 0.19
13 5 9 0.24 0.4
13 -5 -9 0.6 0.35
-13 5 -9 0.14 0.37
13 -5 10 -0.15 0.27
13 5 -10 -0.07 0.33
-13 -5 10 0.99 0.32
13 5 10 -0.22 0.36
13 -5 -10 -0.01 0.31
-13 5 -10 1.31 0.53
13 -5 -10 -0.19 0.18
13 5 11 0.07 0.34
-13 5 -11 1.31 0.46
-13 -5 11 1 0.3
13 5 -12 0.13 0.18
13 -5 12 0.15 0.23
13 5 -12 0.12 0.27
-13 -5 -12 1.22 0.47
-13 5 -12 0.63 0.38
13 5 12 0.17 0.3
13 -5 -12 -0.05 0.25
13 -5 -12 0.03 0.16
13 5 -13 0.12 0.15
13 -5 13 0.01 0.22
-13 -5 -13 0.62 0.34
13 5 -13 0.35 0.25
-13 5 -13 0.25 0.32
13 5 13 0.03 0.26
13 -5 -13 0.04 0.23
13 5 -14 0.22 0.13
13 5 -14 0.39 0.22
13 -5 14 0.03 0.2
-13 5 -14 0.03 0.27
13 5 14 -0.07 0.25
13 -5 -14 0.18 0.23
-13 -5 14 0.63 0.23
14 -5 0 0.17 0.17
14 5 0 -0.09 0.22
14 -5 1 3.78 0.33
14 5 -1 4.72 0.57
14 5 -1 3.56 0.39
14 -5 -1 3.26 0.31
14 5 1 3.43 0.39
14 5 -2 4.98 0.45
14 -5 2 5.53 0.39
-14 5 -2 4.13 0.66
14 -5 -2 4.55 0.37
14 5 2 5.28 0.44
-14 -5 -3 8.61 0.65
14 5 -3 6.99 0.58
14 -5 -3 7.24 0.49
-14 5 -3 6.42 0.77
-14 -5 -4 21.43 1.28
14 5 -4 19.71 1.25
14 -5 -4 18.75 1.17
-14 5 -4 20.75 1.39
14 -5 5 13.42 0.87
14 5 -5 12.17 0.81
14 5 -5 12.26 0.9
-14 -5 -5 14.75 0.93
-14 5 -5 13.26 1.05
14 -5 -5 12.29 0.79
14 5 -6 18.62 1.1
14 5 -6 18.21 1.2
14 -5 6 19.93 1.17
-14 -5 -6 19.28 1.23
14 -5 -6 16.57 1.18
14 -5 -6 17.17 1.08
-14 5 -6 19.74 1.35
14 -5 7 1.94 0.35
-14 -5 -7 2.55 0.48
14 5 -7 1.25 0.26
14 5 -7 1.53 0.39
14 -5 -7 2.04 0.41
-14 5 -7 0.99 0.38
14 -5 -7 1.29 0.22
-14 -5 7 2.07 0.37
14 5 -8 8 0.57
14 -5 8 9.1 0.67
14 5 -8 8.23 0.71
-14 -5 8 7.77 0.69
-14 5 -8 8.15 0.87
14 -5 -8 9.32 0.72
-14 5 -8 7.45 0.89
14 -5 -8 7.3 0.55
14 -5 9 0.12 0.28
14 5 -9 0.18 0.22
14 5 -9 -0.01 0.33
14 -5 -9 0.38 0.34
14 -5 -9 0.24 0.18
-14 -5 9 0.89 0.31
14 5 9 0.24 0.38
-14 5 -9 1.32 0.56
14 5 -10 1.96 0.28
14 5 -10 2.44 0.4
14 -5 10 2.67 0.35
14 5 10 2.56 0.43
14 -5 -10 2.21 0.47
-14 5 -10 3.09 0.56
14 -5 -10 1.77 0.27
14 5 -11 1.11 0.31
14 -5 11 0.88 0.27
14 5 -11 1.14 0.22
-14 5 -11 1.52 0.41
14 -5 -11 0.85 0.31
14 -5 -11 0.87 0.18
14 5 11 0.65 0.34
14 -5 12 0.39 0.22
14 5 -12 0.51 0.17
14 5 -12 0.46 0.25
-14 5 -12 0.8 0.35
14 5 12 0.36 0.3
14 -5 -12 0.7 0.28
14 -5 -12 0.39 0.14
-14 -5 -13 0.42 0.33
14 5 -13 0.94 0.16
14 5 -13 1.03 0.24
14 -5 13 1.08 0.22
14 -5 -13 0.84 0.25
14 5 13 1.06 0.28
-14 5 -13 0.98 0.3
15 -5 0 36.27 1.99
15 5 0 33.53 2.03
15 5 -1 0.18 0.24
15 -5 1 0.62 0.18
15 5 1 0.24 0.21
15 -5 -1 0.12 0.17
15 5 -2 37.76 2.12
15 -5 -2 37.42 2.08
15 5 2 34.11 2.11
-15 -5 -3 1.05 0.34
15 5 -3 0.44 0.26
15 5 -3 0.25 0.19
15 -5 -3 0.37 0.17
15 5 -4 22.85 1.39
15 5 -4 23.25 1.32
-15 -5 -4 24.56 1.43
15 -5 -4 23.17 1.32
-15 5 -4 19.42 1.49
15 5 -5 2.69 0.32
15 -5 5 2.36 0.39
15 5 -5 2.73 0.42
15 -5 -5 2.66 0.28
15 -5 6 2.24 0.34
15 5 -6 3.16 0.32
15 5 -6 2.91 0.46
15 -5 -6 2.79 0.29
15 -5 -6 2.96 0.47
-15 -5 6 2.01 0.39
15 5 -7 9.79 0.74
-15 -5 -7 7.36 0.81
15 -5 7 9.73 0.69
15 5 -7 10.47 0.63
15 -5 -7 9.8 0.6
-15 -5 7 8.85 0.74
-15 5 -7 7.16 0.9
15 -5 -7 10.1 0.75
15 -5 8 4.74 0.54
15 5 -8 6.12 0.59
15 5 -8 6.5 0.45
15 -5 -8 6.33 0.62
-15 -5 8 5.97 0.58
-15 5 -8 4.53 0.76
15 -5 -8 5.57 0.42
15 5 -9 5.57 0.57
15 5 -9 5.54 0.45
15 -5 9 5.47 0.52
15 -5 -9 5.83 0.57
-15 5 -9 4.61 0.7
-15 -5 9 6.28 0.57
15 -5 -9 5.45 0.42
15 5 -10 9.26 0.68
-15 -5 -10 7.98 0.8
15 -5 10 8.16 0.63
15 5 -10 9.11 0.57
15 -5 -10 8.36 0.55
-15 5 -10 9.01 0.74
-15 -5 10 8.49 0.64
15 -5 -10 8.61 0.67
15 5 10 8.4 0.68
15 -5 11 1.36 0.26
15 5 -11 1.32 0.28
-15 -5 -11 2.17 0.48
15 5 -11 1.08 0.19
15 -5 -11 1.36 0.32
15 5 11 1.34 0.33
15 -5 -11 1.03 0.18
-15 5 -11 1.49 0.4
15 5 -12 9.96 0.66
15 5 -12 10.19 0.6
-15 -5 -12 8.15 0.7
15 -5 12 9.8 0.65
15 -5 -12 9.72 0.68
-15 5 -12 10.36 0.68
15 5 12 10.11 0.7
-15 -5 12 10.37 0.66
16 5 0 0.02 0.21
16 -5 0 0.37 0.17
16 5 -1 2.07 0.31
16 -5 -1 1.68 0.26
16 5 1 2.05 0.3
16 5 -2 5.02 0.38
-16 -5 -2 4.69 0.56
16 5 -2 4.81 0.44
16 -5 -2 4.53 0.37
16 5 -3 0.71 0.25
16 5 -3 0.75 0.19
-16 -5 -3 1.21 0.35
16 -5 -3 0.62 0.17
-16 -5 -4 17.4 1.12
16 5 -4 17.88 1.01
16 5 -4 15.98 1.07
16 -5 -4 16.12 1
16 5 -5 0.62 0.2
-16 -5 -5 1.49 0.4
16 5 -5 0.69 0.28
16 -5 -5 1.05 0.19
16 5 -6 22.21 1.23
16 -5 6 20.61 1.26
-16 -5 -6 18.6 1.33
16 5 -6 21.01 1.29
16 -5 -6 21.45 1.22
16 -5 7 1.6 0.3
-16 -5 7 1.36 0.34
16 -5 -7 2.13 0.27
-16 5 -7 0.73 0.56
16 5 -8 6.05 0.44
16 5 -8 6.01 0.54
16 -5 8 5.71 0.51
-16 -5 8 5.07 0.55
16 -5 -8 6.28 0.58
16 -5 -8 6.2 0.43
16 5 -9 4.3 0.45
16 5 -9 4.95 0.35
16 -5 9 3.61 0.42
-16 5 -9 3.5 0.58
16 -5 -9 4.53 0.35
16 -5 -9 4.23 0.49
-16 -5 9 4.1 0.47
16 5 -10 3.28 0.3
16 5 -10 3.73 0.4
16 -5 10 3.52 0.4
-16 -5 -10 3.36 0.53
-16 -5 10 3.62 0.41
-16 5 -10 3.05 0.5
16 -5 -10 4.07 0.47
16 -5 -10 3.66 0.3
16 5 -11 2.57 0.34
16 5 -11 2.87 0.25
-16 -5 -11 2.34 0.41
16 -5 11 1.94 0.34
-16 -5 11 3.12 0.34
16 -5 -11 2.11 0.37
17 5 0 1.87 0.32
17 5 -1 -0.09 0.13
-17 -5 -1 0.09 0.28
17 5 -1 0.14 0.21
17 -5 -1 0.11 0.15
-17 -5 -2 2.27 0.46
17 5 -2 2.19 0.27
17 5 -2 2.01 0.34
17 -5 -2 2.09 0.26
17 5 -3 0.43 0.23
17 5 -3 0.53 0.18
-17 -5 -3 0.63 0.33
17 -5 -3 0.35 0.16
-17 -5 -4 1.88 0.38
17 5 -4 1.73 0.22
17 5 -4 1.37 0.28
17 -5 -4 1.7 0.21
17 5 -5 0.44 0.25
17 5 -5 0.43 0.18
-17 -5 -5 -0.08 0.33
17 -5 -5 0.18 0.16
17 5 -6 -0.01 0.16
17 5 -6 0.19 0.25
17 -5 -6 0.11 0.16
17 5 -7 1.29 0.2
17 5 -7 1.3 0.3
17 -5 -7 1.36 0.2
17 5 -8 0.01 0.24
17 5 -8 -0.01 0.15
17 -5 8 -0.07 0.22
17 -5 -8 0.04 0.16
-17 -5 8 -0.02 0.27
17 5 -9 0.46 0.15
17 -5 9 0.27 0.24
17 5 -9 0.61 0.25
-17 -5 9 0.37 0.26
17 -5 -9 0.26 0.16
17 5 -10 0.09 0.22
-17 -5 -10 -0.2 0.36
17 -5 10 -0.02 0.22
17 5 -10 0.17 0.12
17 -5 -10 0.11 0.1
-17 -5 10 0.24 0.23
-18 -5 0 -0.2 0.24
-18 -5 -1 0.54 0.27
-18 -5 -2 0.81 0.29
18 5 -2 0.79 0.24
18 -5 -2 0.96 0.17
18 5 -3 0.26 0.15
18 5 -3 0.39 0.22
-18 -5 -3 0.26 0.29
18 -5 -3 0.3 0.15
-18 -5 -4 2.89 0.38
18 5 -4 2.68 0.37
18 5 -4 2.69 0.28
18 -5 -4 2.66 0.28
18 5 -5 0.24 0.15
18 5 -5 0.11 0.23
18 -5 -5 0.1 0.15
18 5 -6 2.15 0.36
18 5 -6 2.13 0.25
18 -5 -6 2.53 0.26
18 5 -7 0.4 0.14
18 5 -7 0.5 0.25
18 -5 -7 0.49 0.17
18 5 -8 1.86 0.31
-18 -5 -8 2.77 0.48
18 5 -8 1.49 0.19
18 -5 -8 1.92 0.24
-19 -5 0 11.25 0.74
-19 -5 -1 -0.04 0.22
-19 -5 1 -0.15 0.2
-19 -5 -2 8.72 0.58
-19 -5 2 7.1 0.54
19 5 -4 5.71 0.48
19 5 -5 2.99 0.38
19 -5 -5 3.33 0.3
19 5 -6 0.28 0.27
19 -5 -6 0.22 0.19
-20 -5 1 1.16 0.23
-20 -5 2 1.75 0.25
0 -6 0 164.17 9.52
0 6 0 173.93 9.44
0 -6 1 1.9 0.41
0 -6 -1 1.75 0.33
0 6 1 2 0.27
0 6 -1 1.67 0.19
0 -6 -2 63.2 3.74
0 -6 2 63.81 3.77
0 6 2 68.35 3.7
0 -6 3 0.87 0.35
0 -6 -3 0.26 0.28
0 -6 3 0.63 0.43
0 -6 -3 0.74 0.12
0 6 3 1.25 0.28
0 -6 3 0.82 0.13
0 6 4 80.98 4.51
0 6 4 75.82 4.42
0 -6 -4 74 4.48
0 -6 4 83.95 4.58
0 -6 5 150.98 8.31
0 6 5 151.65 8.31
0 -6 5 129.69 8.53
0 -6 5 157.13 8.47
0 6 5 152.54 8.42
0 6 -6 17.8 1.12
0 -6 7 163.52 9.92
0 6 7 177.59 9.92
0 -6 7 169.47 10.07
0 -6 7 176.39 9.77
0 6 7 169.06 9.74
0 6 7 189.24 9.77
0 6 8 2.81 0.5
0 -6 8 3.22 0.51
0 6 8 3.07 0.46
0 -6 9 58.51 3.38
0 6 9 56.67 3.35
0 6 9 61.03 3.38
0 6 10 34.96 2.06
0 -6 10 34.41 2.06
0 6 10 34.12 2.05
0 6 11 11.01 0.89
0 6 11 12.06 0.87
0 -6 11 10.9 0.86
0 6 -12 12.93 0.8
0 6 12 11.47 0.94
0 -6 12 13.63 0.93
0 6 12 10.39 0.97
0 -6 12 11.39 0.82
0 -6 13 6.71 0.58
0 -6 -13 7.62 0.57
0 6 -13 6.14 0.55
0 -6 13 7.41 0.73
0 -6 14 6.19 0.72
0 6 -14 6.57 0.54
0 -6 14 6.88 0.58
0 -6 -14 6.47 0.54
0 6 15 1.26 0.47
0 6 -15 1.9 0.34
0 -6 15 2.3 0.41
0 -6 -15 1.48 0.34
0 6 -16 7.67 0.59
0 -6 -16 8.23 0.6
0 -6 16 7.95 0.6
0 -6 17 1.69 0.32
0 -6 -17 1.81 0.31
0 6 -17 2.1 0.33
0 -6 18 0.57 0.24
0 -6 -18 0.39 0.23
0 6 -18 0.44 0.24
0 6 -19 0.66 0.24
0 -6 19 1.2 0.23
-1 -6 0 0.14 0.2
-1 -6 0 -0.04 0.1
1 -6 0 0.1 0.31
-1 6 0 0.37 0.14
1 6 0 0.13 0.13
1 6 -1 7.15 0.43
-1 -6 -1 6.29 0.42
1 -6 1 5.96 0.65
-1 6 1 6.92 0.47
-1 -6 -1 5.82 0.54
1 6 1 6.68 0.47
-1 -6 1 6.09 0.55
-1 -6 1 5.97 0.48
-1 6 -1 7.01 0.4
1 -6 -1 5.77 0.63
-1 -6 -2 27.95 1.6
-1 -6 -2 27.04 1.69
-1 6 2 30.9 1.67
1 -6 2 25.19 1.72
1 -6 2 29.25 1.79
1 6 2 29.82 1.65
-1 -6 2 27 1.7
-1 -6 2 28.44 1.72
1 -6 -2 27.34 1.73
-1 -6 -3 3.3 0.26
-1 6 3 2.96 0.44
-1 -6 -3 2.87 0.41
1 -6 3 3.67 0.62
1 -6 -3 2.83 0.44
-1 -6 3 3.16 0.25
1 6 3 3.66 0.4
-1 -6 3 3.29 0.49
-1 -6 3 2.67 0.55
1 -6 4 66.13 3.62
-1 6 4 57.96 3.43
-1 -6 -4 58.58 3.49
-1 6 4 63.3 3.53
1 -6 4 57.88 3.67
1 -6 4 59.84 3.43
1 6 4 64.88 3.52
1 6 4 57.87 3.43
1 -6 -4 59.76 3.5
-1 -6 4 65.01 3.57
-1 -6 4 57.48 3.43
1 -6 5 2.94 0.62
1 -6 5 3.01 0.78
1 -6 5 3.65 0.4
-1 -6 -5 2.65 0.5
-1 6 5 3.99 0.41
-1 6 5 4.83 0.73
-1 -6 5 4.61 0.84
-1 -6 5 3.91 0.43
-1 6 6 111.98 6.08
-1 6 6 113.02 6.23
1 -6 6 116.29 6.29
1 -6 6 110.13 6.07
1 -6 6 109.78 6.44
-1 6 6 103.35 6.05
-1 -6 6 111.33 6.25
1 6 6 113.59 6.22
-1 6 -6 95.3 6.06
-1 -6 6 91.47 6.38
-1 -6 6 105.97 6.08
1 6 6 113.02 6.08
-1 6 7 5.13 0.58
1 -6 7 4.52 0.53
-1 -6 7 5.06 0.57
1 6 7 5.46 0.6
1 6 7 3.3 0.75
-1 -6 7 8.3 1.59
-1 6 8 59.49 3.21
1 -6 8 58.67 3.22
-1 6 8 57.58 3.18
1 6 8 57.94 3.22
-1 -6 8 54.46 3.21
-1 6 -8 47.15 3.18
-1 6 9 25.13 1.5
1 -6 9 24.05 1.5
-1 6 9 25.91 1.48
-1 -6 9 23.73 1.5
1 6 9 22.58 1.49
1 6 9 24.49 1.5
1 -6 10 11.7 0.84
-1 6 10 11.95 0.83
-1 6 10 12.24 0.86
1 6 10 9.84 0.86
1 6 10 11.89 0.87
-1 -6 10 11.31 0.85
-1 6 11 15.74 1.1
-1 6 11 16.5 1.11
1 -6 11 16.77 1.11
-1 -6 11 16.35 1.12
1 6 11 16.95 1.14
1 -6 12 3.77 0.43
-1 6 12 4.23 0.63
1 6 -12 3.26 0.42
1 6 12 4.74 0.62
-1 6 -12 2.92 0.4
-1 -6 12 4.62 0.6
1 6 12 2.26 0.44
-1 -6 12 3.44 0.42
1 -6 13 10.42 0.83
1 -6 13 10.15 0.74
-1 -6 -13 10.39 0.74
1 6 -13 9.96 0.71
-1 -6 13 10.23 0.87
-1 -6 13 9.78 0.72
1 -6 -13 10.17 0.73
-1 6 -13 10.68 0.72
1 6 13 8.85 0.87
1 6 -14 1.3 0.32
-1 -6 -14 0.67 0.33
1 -6 14 1.14 0.33
-1 6 14 1.38 0.51
1 -6 -14 0.5 0.31
-1 -6 14 0.39 0.33
-1 -6 14 1.05 0.33
-1 6 -14 1.25 0.3
-1 6 15 1.69 0.48
1 -6 15 1.58 0.33
1 6 -15 1.37 0.33
-1 -6 -15 1.69 0.35
-1 -6 15 1.77 0.35
-1 6 -15 1.53 0.34
1 -6 -15 1.87 0.37
1 -6 16 2.86 0.37
-1 -6 -16 2.38 0.38
1 6 -16 2.74 0.38
-1 6 16 2.58 0.48
-1 -6 16 2.61 0.38
-1 6 -16 2.76 0.41
1 -6 -16 2.41 0.38
1 6 -17 0.39 0.27
-1 -6 -17 0.74 0.27
1 -6 17 0.79 0.27
-1 6 17 0.66 0.33
1 -6 -17 0.78 0.27
-1 -6 17 0.86 0.27
-1 6 -17 0.56 0.28
1 -6 18 3.54 0.34
1 6 -18 3.66 0.34
-1 -6 18 3.17 0.34
1 -6 -18 2.95 0.33
-1 6 -18 3.52 0.37
1 6 -19 0.02 0.23
1 -6 19 0.26 0.21
-1 6 -19 0.04 0.23
-1 -6 19 0.22 0.21
-2 -6 0 3.51 0.41
-2 6 0 4.07 0.32
-2 -6 0 3.21 0.3
2 6 0 3.84 0.31
2 -6 0 2.87 0.57
-2 -6 -1 3.64 0.31
-2 6 1 4.11 0.39
2 6 -1 4.31 0.32
2 -6 1 4.14 0.3
2 -6 1 3.67 0.63
-2 -6 -1 3.68 0.42
2 -6 -1 3.28 0.57
-2 -6 1 3.7 0.45
-2 -6 1 3.69 0.35
2 6 1 4.12 0.35
-2 6 -1 4.13 0.26
2 -6 2 1.36 0.29
2 -6 2 1.48 0.42
-2 -6 -2 1.74 0.21
-2 6 2 2 0.37
-2 -6 -2 1.53 0.28
2 6 2 2.08 0.3
-2 -6 2 1.77 0.37
-2 -6 2 1.63 0.32
2 -6 -2 1.49 0.36
2 -6 3 6.8 0.75
-2 -6 -3 5.89 0.42
-2 -6 -3 5.69 0.55
-2 6 3 5.86 0.58
-2 -6 3 5.63 0.55
-2 -6 3 6.41 0.59
-2 -6 3 5.51 0.41
2 6 3 5.95 0.51
2 -6 -3 4.67 0.54
-2 6 4 0.15 0.34
2 -6 4 0.09 0.13
-2 -6 -4 0.13 0.27
-2 6 4 0.27 0.16
2 -6 4 0.17 0.44
-2 6 -4 0.39 0.19
-2 -6 4 0.67 0.35
-2 -6 4 0.41 0.34
-2 -6 4 0.17 0.15
2 6 4 0.58 0.29
2 6 4 0.37 0.21
2 -6 -4 -0.21 0.19
-2 6 5 5.06 0.74
-2 6 5 4.25 0.46
-2 -6 -5 3.26 0.55
2 -6 5 2.5 0.68
2 -6 5 3.58 0.42
-2 -6 5 2.98 0.38
2 6 5 4.48 0.65
-2 6 -5 4.5 0.52
-2 -6 5 5.1 0.8
-2 6 6 0.7 0.56
-2 6 6 0.43 0.25
2 -6 6 0.04 0.21
-2 -6 6 0.55 0.57
-2 6 -6 0.95 0.27
-2 -6 6 0.49 0.26
2 6 6 0.54 0.52
2 6 6 0.78 0.28
-2 6 7 0.04 0.64
-2 6 7 0.08 0.19
2 -6 7 -0.62 0.68
2 6 7 0.37 0.54
-2 6 8 0.11 0.21
2 -6 8 0.37 0.22
-2 6 8 0.29 0.25
-2 -6 8 0.26 0.25
2 6 8 0.46 0.24
-2 6 9 0.1 0.24
2 -6 9 0.35 0.22
-2 6 9 0.46 0.21
-2 6 -9 0.74 0.24
-2 -6 9 0.19 0.25
2 6 9 0.18 0.24
-2 6 10 0.7 0.27
2 -6 10 1.13 0.26
2 6 10 0.97 0.27
-2 -6 10 1.45 0.3
-2 6 11 0.01 0.27
2 -6 11 0.17 0.24
-2 -6 11 -0.18 0.26
2 6 11 -0.01 0.27
2 -6 12 0.06 0.29
2 -6 12 0.24 0.26
2 6 -12 0.28 0.3
-2 6 12 0.37 0.32
2 -6 -12 0.12 0.28
-2 -6 12 0.2 0.3
2 6 12 0 0.3
-2 -6 12 -0.18 0.3
-2 6 -12 0.42 0.3
-2 6 13 -0.26 0.35
-2 -6 -13 -0.5 0.34
2 -6 13 0.42 0.3
-2 6 13 0.17 0.46
2 6 -13 -0.02 0.3
2 -6 13 0.03 0.28
-2 6 -13 0.52 0.31
2 6 13 0.02 0.33
-2 -6 13 0.56 0.33
-2 -6 13 0.08 0.31
2 -6 -13 0.12 0.3
-2 6 14 -0.59 0.38
2 -6 14 0 0.29
2 6 -14 0.23 0.29
2 -6 14 0.33 0.3
-2 6 14 1.21 0.49
-2 -6 -14 -0.16 0.31
-2 -6 14 -0.15 0.32
2 6 14 0.18 0.28
-2 6 -14 0.54 0.29
-2 -6 14 0.53 0.31
2 -6 -14 0.21 0.29
-2 -6 -15 0.33 0.32
2 -6 15 0.42 0.29
2 6 -15 0.29 0.29
2 -6 15 -0.06 0.29
-2 6 15 1.19 0.47
-2 -6 15 0.6 0.31
2 -6 -15 0.4 0.28
2 6 15 0.14 0.28
-2 -6 15 -0.19 0.32
-2 6 -15 0.56 0.31
2 -6 16 0.38 0.28
-2 -6 -16 0.1 0.3
-2 6 16 0.58 0.41
2 6 -16 0.2 0.28
2 -6 -16 0.38 0.27
-2 -6 16 0.28 0.29
-2 6 -16 0.39 0.3
2 6 16 0.2 0.23
2 6 -17 0.63 0.27
-2 6 17 0.45 0.33
2 -6 17 0.28 0.26
-2 -6 -17 0.23 0.27
-2 -6 17 0.22 0.25
-2 6 -17 0.2 0.27
2 -6 -17 0.29 0.26
2 6 -18 0.24 0.24
-2 6 18 0.03 0.27
2 -6 18 0.15 0.23
-2 -6 18 0.22 0.22
2 -6 -18 -0.08 0.22
-2 6 -18 0.1 0.24
2 6 -19 0.27 0.23
2 -6 19 0.37 0.23
-2 -6 19 0.38 0.21
-2 6 -19 0.02 0.23
-3 -6 0 -0.01 0.11
3 6 0 0.15 0.15
-3 6 0 0.04 0.08
3 -6 0 0.02 0.33
-3 6 0 -0.15 0.16
-3 -6 0 0.08 0.22
-3 6 1 11.54 0.81
-3 -6 -1 13.14 0.78
3 -6 1 11.99 0.99
-3 -6 -1 12.34 0.85
3 -6 -1 11.86 0.92
-3 6 -1 11.42 0.73
-3 -6 1 13.31 0.81
-3 -6 1 11.98 0.85
3 6 1 13.58 0.79
-3 -6 -2 4.27 0.49
-3 -6 -2 4.21 0.37
3 -6 2 4.91 0.38
-3 6 2 4.17 0.48
3 -6 2 4.4 0.69
3 6 2 4.67 0.42
3 -6 -2 4.42 0.5
-3 -6 2 4.31 0.52
-3 -6 2 4.47 0.43
3 -6 3 9.7 0.62
-3 -6 -3 10.56 0.68
3 -6 3 10.07 0.96
-3 6 3 9.63 0.8
-3 -6 -3 10.03 0.77
3 -6 3 9.58 0.72
-3 -6 3 10.77 0.81
-3 6 -3 8.93 0.68
-3 -6 3 10.41 0.65
3 6 3 10.16 0.72
-3 -6 3 10.26 0.76
-3 -6 -4 13.69 1
3 -6 4 13.37 0.85
3 -6 4 12.25 1.03
-3 -6 -4 13.62 0.89
-3 6 4 13.63 1.06
-3 -6 4 15.39 1.08
-3 -6 4 13.65 0.87
-3 6 -4 12.67 0.88
3 6 4 14.74 0.94
-3 -6 4 14.49 1.05
3 6 4 14.7 0.99
-3 -6 -5 0.32 0.36
-3 6 5 0.97 0.53
-3 6 5 0.17 0.23
3 -6 5 0.54 0.19
3 6 5 0.82 0.41
-3 -6 5 0.48 0.22
-3 -6 5 1.16 0.47
-3 6 -5 0.81 0.25
-3 -6 5 0.69 0.47
-3 6 6 20.86 1.3
-3 6 6 22.8 1.34
3 -6 6 22.58 1.33
-3 6 6 22.61 1.63
3 6 6 21.61 1.54
-3 -6 6 20.83 1.74
-3 -6 6 21.71 1.59
3 6 6 24.47 1.4
-3 6 -6 21.56 1.37
-3 -6 6 21.21 1.37
-3 6 7 1.46 0.27
3 -6 7 1.59 0.26
3 -6 7 1.11 0.33
-3 6 -7 2.53 0.5
-3 -6 7 0.88 0.76
3 6 7 1.55 0.3
3 6 7 1.39 0.56
-3 -6 7 2.58 0.52
3 -6 8 10.17 0.84
-3 6 8 9.88 0.72
-3 6 8 10.21 0.77
3 -6 8 10.84 0.76
-3 6 -8 10.37 0.76
-3 -6 8 9.8 0.81
3 6 8 10.94 0.79
-3 6 9 0.86 0.22
3 -6 9 0.46 0.29
3 -6 9 1.05 0.25
-3 -6 9 0.69 0.27
3 6 9 0.82 0.25
3 -6 10 1.45 0.28
-3 6 10 1.26 0.26
-3 6 -10 0.71 0.25
-3 -6 10 0.93 0.3
3 6 10 1.16 0.28
-3 6 11 1.08 0.29
3 -6 11 0.66 0.25
-3 -6 11 0.51 0.3
3 6 11 0.77 0.29
-3 6 12 1.4 0.35
3 -6 12 0.8 0.31
3 -6 12 1.57 0.31
3 6 -12 0.9 0.32
-3 -6 12 1.19 0.34
3 -6 -12 2.02 0.34
3 6 12 1.52 0.36
-3 6 -12 1.7 0.32
3 -6 13 2.9 0.44
-3 6 13 1.69 0.41
3 -6 13 2.48 0.39
-3 6 13 3.92 0.56
-3 -6 -13 2.23 0.46
3 6 -13 2.69 0.44
-3 6 -13 3.29 0.4
-3 -6 13 1.7 0.39
3 6 13 1.8 0.41
3 -6 -13 2.65 0.39
-3 -6 13 3.27 0.46
3 6 13 2.74 0.41
3 -6 14 0.53 0.3
3 6 -14 0.97 0.32
3 -6 14 0.04 0.3
-3 -6 -14 0.42 0.34
-3 6 14 1.69 0.49
-3 -6 14 0.4 0.34
3 -6 -14 0.72 0.28
-3 -6 14 1.12 0.33
3 6 14 0.37 0.35
3 6 14 -0.4 0.35
3 6 -15 0.83 0.31
3 -6 15 0.96 0.31
-3 -6 -15 1.12 0.35
-3 6 15 1.34 0.47
-3 -6 15 0.83 0.31
3 6 15 0.5 0.35
3 -6 -15 0.97 0.28
-3 6 -15 1.03 0.32
-3 -6 -16 1.36 0.33
3 -6 16 1.66 0.31
-3 6 16 2.22 0.42
3 6 -16 1.9 0.33
-3 -6 16 2.16 0.38
3 -6 -16 1.4 0.3
3 6 16 1.46 0.35
-3 6 -16 1.89 0.37
-3 -6 -17 0.13 0.24
3 -6 17 0.29 0.26
3 6 -17 0.34 0.25
-3 6 17 0.65 0.34
-3 6 -17 0.19 0.26
-3 -6 17 0.22 0.25
3 -6 -17 0.36 0.26
3 6 -18 2.03 0.29
3 -6 18 1.89 0.3
-3 6 18 1.83 0.34
-3 -6 18 2.09 0.28
3 -6 -18 1.43 0.27
-3 6 -18 1.89 0.29
3 -6 19 -0.34 0.17
-3 -6 19 0.16 0.2
4 6 0 34.28 2.04
4 -6 0 32.68 2.01
-4 6 0 30.74 2.05
-4 6 0 35.12 2.03
-4 -6 0 38.75 2.08
4 6 0 39.41 2.07
-4 -6 0 38.17 2.14
-4 -6 -1 4.76 0.53
-4 6 1 4.19 0.32
-4 6 1 3.95 0.45
4 -6 1 4 0.32
-4 -6 -1 4.63 0.4
4 6 -1 4.24 0.41
-4 -6 1 4.9 0.53
4 6 1 4.52 0.36
4 6 1 4.7 0.41
-4 -6 1 4.53 0.42
-4 -6 -2 41.84 2.32
4 6 -2 34.04 2.22
-4 -6 -2 41.79 2.26
-4 6 2 35.91 2.28
4 -6 2 38.79 2.19
-4 -6 2 41.01 2.31
-4 6 -2 35.01 2.21
4 6 2 39.25 2.25
4 6 2 35.04 2.2
-4 -6 2 43.04 2.28
4 -6 3 0.64 0.14
-4 6 3 0.39 0.14
4 -6 3 0.63 0.23
-4 -6 -3 0.59 0.34
-4 -6 -3 0.53 0.2
-4 6 3 0.87 0.37
4 6 3 1.01 0.3
-4 -6 3 0.65 0.2
-4 -6 3 0.99 0.38
-4 6 -3 0.59 0.23
-4 -6 3 0.7 0.26
-4 -6 -4 26.36 1.59
4 -6 4 25.79 1.52
4 -6 4 23.67 1.65
-4 6 4 25.83 1.71
-4 -6 -4 26.97 1.68
4 6 4 25.67 1.64
4 6 4 28.35 1.6
-4 6 -4 22.66 1.55
-4 -6 4 27.66 1.72
-4 -6 4 27.59 1.68
-4 -6 4 26.52 1.56
4 -6 5 22.17 1.28
4 -6 5 18.83 1.52
-4 6 5 20.99 1.27
-4 -6 -5 20.19 1.46
-4 -6 -5 20.02 1.35
-4 6 5 21.28 1.56
-4 -6 5 24.34 1.55
-4 -6 5 23.63 1.56
4 6 5 24.03 1.38
4 6 5 21.56 1.46
-4 6 -5 20.18 1.34
-4 -6 5 20.96 1.33
-4 6 6 3.29 0.69
-4 6 6 3.06 0.38
4 -6 6 4.25 0.41
-4 6 6 2.49 0.4
-4 6 -6 4.17 0.49
4 6 6 4.63 0.79
-4 6 7 7.53 1.01
4 6 7 9.21 0.94
4 -6 8 10.76 0.77
4 -6 8 10.69 0.85
-4 6 8 11.31 0.74
4 6 8 10.66 0.82
-4 6 -8 12.21 0.8
-4 -6 8 10.2 0.83
-4 6 9 4.85 0.47
4 -6 9 4.54 0.58
4 -6 9 5.12 0.51
-4 6 -9 5.36 0.53
4 6 9 4.21 0.54
-4 -6 9 3.73 0.55
4 -6 10 10.68 0.78
4 -6 10 10.56 0.83
-4 6 10 10.17 0.75
-4 -6 10 9.43 0.82
-4 6 -10 10.22 0.77
4 6 10 9.89 0.8
-4 6 11 3.01 0.53
4 -6 11 2.85 0.51
4 6 11 2.84 0.55
-4 -6 11 2.21 0.38
-4 6 12 6.49 0.72
-4 6 12 7.77 0.62
4 6 -12 7.34 0.58
4 -6 12 6.56 0.68
-4 6 -12 7.11 0.56
4 -6 -12 7.15 0.57
-4 -6 12 5.77 0.73
4 6 12 5.79 0.76
4 6 12 6.31 0.61
4 6 -13 4.55 0.5
4 -6 13 5.32 0.64
-4 6 13 5.06 0.71
4 -6 13 5.06 0.51
-4 -6 -13 4.67 0.51
4 6 13 5.22 0.6
4 6 13 5.51 0.77
4 -6 -13 5.47 0.48
-4 6 -13 5.2 0.49
-4 -6 13 5.3 0.54
-4 -6 13 4.65 0.7
4 6 -14 5.99 0.51
-4 6 14 4.18 0.76
4 -6 14 6.62 0.53
4 -6 14 5.27 0.65
-4 -6 -14 5.78 0.55
-4 6 -14 5.09 0.48
4 6 14 6.54 0.61
-4 -6 14 4.69 0.71
-4 -6 14 5.81 0.53
4 6 14 5.34 0.75
4 -6 -14 4.88 0.48
4 6 -15 0.5 0.29
-4 -6 -15 -0.03 0.33
4 -6 15 0.59 0.3
-4 6 15 1.75 0.46
4 6 15 0.15 0.33
-4 -6 15 0.94 0.31
4 -6 -15 0.25 0.26
-4 6 -15 0.56 0.31
-4 -6 -16 2.74 0.39
4 -6 16 3.09 0.4
-4 6 16 3.63 0.48
4 6 -16 2.96 0.4
-4 6 -16 2.86 0.4
4 6 16 2.72 0.47
4 -6 -16 3.27 0.39
-4 -6 16 3.63 0.39
-4 6 17 1.08 0.34
4 -6 17 0.9 0.27
4 6 -17 0.85 0.25
4 6 17 0.67 0.28
-4 -6 17 1.03 0.27
-4 6 -17 0.99 0.28
4 -6 -17 0.59 0.26
4 -6 18 0.44 0.23
-4 6 18 0.83 0.28
4 6 -18 0.53 0.23
-4 6 -18 0.59 0.25
-4 -6 18 0.67 0.23
4 -6 -18 0.52 0.23
-5 -6 0 0.15 0.3
-5 6 0 0.05 0.13
-5 -6 0 -0.02 0.16
5 6 0 0.14 0.15
-5 6 1 32.26 2.16
-5 -6 -1 38.43 2.23
-5 -6 -1 38.22 2.16
5 6 -1 34.73 2.11
5 -6 1 36.55 2.08
5 6 1 36.4 2.11
5 6 1 37.42 2.14
-5 -6 1 37.24 2.22
-5 -6 1 37.65 2.17
-5 -6 -2 8.19 0.62
5 6 -2 8.09 0.64
5 -6 2 7.73 0.52
-5 6 2 7.09 0.7
-5 -6 -2 8.94 0.77
-5 6 2 6.6 0.52
5 6 2 8.11 0.64
-5 -6 2 8.39 0.66
5 6 2 7.43 0.55
-5 6 -2 8.23 0.65
-5 -6 2 9.21 0.77
-5 6 3 21.49 1.57
-5 -6 -3 25.6 1.51
-5 -6 -3 25.46 1.61
5 6 -3 22.47 1.48
5 -6 3 24.08 1.4
-5 -6 3 24.29 1.46
-5 6 -3 21.73 1.45
5 6 3 24.42 1.43
-5 -6 3 25.54 1.6
5 6 3 24.19 1.51
-5 -6 3 25.84 1.53
-5 6 4 79.8 5.14
5 -6 4 85.54 5.1
-5 -6 -4 91.15 5.15
5 -6 4 87.58 5
-5 -6 -4 88.89 5.09
-5 -6 4 87.94 5.06
-5 -6 4 95.98 5.14
5 6 4 86.62 5.09
5 6 4 91.48 5.01
-5 -6 4 94.3 5.14
-5 6 -4 87.35 5.03
5 6 4 90.39 5.05
-5 -6 -5 10.28 0.96
-5 -6 -5 9.95 0.81
5 -6 5 9.58 0.93
5 -6 5 12 0.72
-5 6 5 11 0.71
-5 6 5 10.27 1.05
5 6 5 11.41 0.73
-5 -6 5 11.89 0.81
-5 -6 5 12.26 1.02
-5 -6 5 9.33 1.01
5 6 5 12.14 0.94
-5 6 -5 10.49 0.82
-5 6 6 107.63 5.55
-5 6 6 83.94 5.75
5 -6 6 107.6 5.57
5 6 6 108.13 5.61
-5 6 -6 102.51 5.84
5 6 6 84.82 5.55
-5 6 -6 100.35 5.58
-5 -6 6 94.6 5.77
5 6 6 98.37 5.7
-5 6 7 0.52 0.18
5 -6 7 0.64 0.19
5 -6 7 0.62 0.28
-5 6 -7 1.05 0.24
-5 -6 7 0.15 0.26
5 6 7 0.67 0.26
5 -6 8 24.68 1.54
5 -6 8 26.18 1.5
-5 6 8 25.08 1.47
5 6 8 25.48 1.53
-5 -6 8 21.68 1.51
-5 6 -8 24.01 1.5
-5 6 9 0.48 0.19
5 -6 9 0.36 0.22
5 -6 9 0.47 0.3
-5 -6 9 0.05 0.27
5 6 9 0.25 0.24
-5 6 -9 0.67 0.26
-5 6 10 12.76 0.87
5 -6 10 12.46 0.96
5 -6 10 12.61 0.9
-5 -6 10 11.26 0.93
5 6 10 12.64 0.92
-5 6 -10 12.01 0.91
-5 6 11 3.31 0.53
-5 6 11 2.45 0.4
5 6 -11 2.75 0.43
5 -6 11 2.63 0.52
5 -6 -11 2.37 0.4
5 6 11 2.53 0.39
5 6 11 1.7 0.35
-5 -6 11 1.61 0.37
-5 6 12 7.62 0.62
-5 6 12 7.22 0.74
5 -6 12 7.51 0.72
5 6 -12 6.17 0.59
-5 6 -12 6.48 0.58
-5 -6 12 6.41 0.74
5 6 12 6.98 0.65
5 -6 -12 7.05 0.56
5 6 12 7.27 0.8
-5 6 13 6.34 0.77
-5 6 13 7.81 0.64
5 6 -13 7.53 0.61
5 -6 13 6.98 0.71
-5 -6 -13 6.81 0.62
5 -6 13 6.63 0.59
-5 6 -13 7.3 0.57
5 6 13 6.1 0.84
5 -6 -13 7.08 0.57
5 6 13 6.92 0.65
-5 -6 13 5.3 0.75
-5 -6 13 6.93 0.59
5 -6 14 0.93 0.33
-5 -6 -14 1.27 0.36
5 6 -14 1.49 0.32
-5 6 14 0.19 0.38
5 6 14 0.76 0.35
5 -6 -14 0.67 0.26
-5 -6 14 1.56 0.35
5 6 14 0.12 0.39
-5 -6 -15 3.1 0.48
-5 6 15 4.42 0.53
5 -6 15 3.89 0.44
5 6 -15 3.83 0.45
5 -6 -15 3.87 0.43
-5 6 -15 3.92 0.42
5 6 15 3.31 0.52
-5 -6 15 4.02 0.44
-5 6 16 3.52 0.47
5 6 -16 3.88 0.4
5 -6 16 3.22 0.4
-5 6 -16 3.66 0.41
-5 -6 16 3.4 0.38
5 6 16 2.91 0.47
5 -6 -16 3.23 0.39
5 -6 17 0.82 0.26
-5 6 17 0.97 0.34
5 6 -17 0.65 0.24
-5 6 -17 0.53 0.26
5 6 17 0.71 0.28
-5 -6 17 0.97 0.26
5 -6 -17 0.75 0.25
5 6 -18 2.46 0.3
-5 6 18 2.41 0.32
-5 6 -18 2.23 0.29
5 -6 -18 1.7 0.27
-5 -6 18 2.33 0.28
-6 6 0 0.3 0.41
6 6 0 0.43 0.2
-6 6 0 0.33 0.16
-6 -6 0 0.34 0.21
-6 -6 0 0.63 0.4
-6 -6 -1 0.56 0.23
6 6 -1 0.23 0.19
-6 6 1 0.17 0.38
6 -6 1 0.44 0.13
-6 6 1 0.01 0.31
-6 -6 -1 0.8 0.41
-6 -6 1 0.6 0.25
-6 6 -1 -0.13 0.43
6 6 1 0.42 0.29
-6 6 -1 0.64 0.26
6 6 1 0.38 0.18
-6 -6 1 0.94 0.42
-6 6 -1 0.36 0.19
6 6 -2 23.87 1.46
-6 6 2 22.52 1.4
6 -6 2 22.73 1.4
-6 -6 -2 25.83 1.52
-6 -6 -2 26.17 1.62
-6 6 2 21.57 1.54
-6 6 -2 23.72 1.48
-6 -6 2 25.92 1.61
6 6 2 23.92 1.51
-6 -6 2 24.82 1.53
-6 -6 2 23.99 1.48
6 6 2 24.11 1.43
-6 6 3 10.67 1
-6 -6 -3 13.26 0.92
-6 -6 -3 13.08 1.05
6 -6 3 11.95 0.78
6 6 -3 12.61 0.91
-6 6 -3 13.26 0.88
-6 -6 3 12.12 0.87
6 6 3 12.32 0.93
-6 -6 3 13.16 0.97
6 6 3 12.78 0.82
-6 -6 3 14.23 1.05
6 -6 4 3.03 0.33
-6 -6 -4 3.7 0.6
-6 6 4 1.75 0.54
-6 -6 -4 2.74 0.48
6 6 -4 3.15 0.49
-6 -6 4 3.28 0.56
6 6 4 3.71 0.6
-6 -6 4 3.02 0.43
6 6 4 3.34 0.4
-6 6 -4 2.41 0.64
6 6 4 4.45 0.57
-6 6 -4 2.78 0.48
-6 -6 4 3.23 0.71
6 -6 5 4.74 0.41
-6 6 5 3.7 0.4
6 6 5 5.36 0.62
6 6 5 4.96 0.68
-6 -6 5 4.28 0.72
-6 6 -5 5.22 0.56
6 6 5 4.44 0.45
-6 6 -5 4.12 0.81
6 -6 6 2.31 0.33
-6 6 6 1.9 0.31
6 6 6 2.28 0.35
6 6 6 3.19 0.54
-6 6 -6 2.7 0.43
-6 6 7 8.04 0.58
6 -6 7 8.12 0.62
6 6 7 7.36 0.58
6 6 7 8.58 0.72
-6 6 -7 9 0.68
-6 6 8 0.18 0.17
6 -6 8 0.13 0.27
6 -6 8 -0.02 0.19
6 6 8 0.07 0.23
-6 6 -8 0.39 0.24
6 -6 9 1 0.25
-6 6 9 2.03 0.36
6 -6 9 1.32 0.32
-6 -6 9 0.59 0.3
6 6 9 1.17 0.28
-6 6 10 1.26 0.26
6 -6 10 1.34 0.3
6 6 10 1.01 0.3
-6 6 -10 1.49 0.32
-6 6 11 4.99 0.58
6 -6 11 4.96 0.59
6 6 -11 3.64 0.5
-6 6 -11 4.36 0.59
6 -6 -11 4.17 0.47
-6 6 -11 3.15 0.49
6 6 11 4.32 0.55
-6 -6 11 3.13 0.61
6 6 11 4.47 0.66
6 6 -12 2.19 0.38
6 6 12 1.02 0.39
6 6 12 1.92 0.39
6 -6 -12 1.94 0.41
-6 6 -12 3.11 0.44
-6 -6 -13 0.91 0.39
6 6 -13 0.65 0.32
6 -6 13 0.47 0.33
-6 6 13 0.37 0.35
-6 6 13 1.87 0.43
6 -6 -13 0.67 0.28
6 6 13 0.21 0.38
6 6 13 0.7 0.34
-6 6 -13 1.05 0.35
-6 -6 13 0.8 0.34
-6 6 14 3.69 0.56
6 6 -14 3.02 0.41
6 -6 14 2.87 0.44
-6 -6 -14 2.47 0.45
6 6 14 1.82 0.46
6 -6 -14 2.48 0.41
-6 -6 14 3.32 0.43
6 6 14 2.79 0.4
-6 6 -14 2.65 0.39
6 6 -15 0.35 0.27
-6 6 15 0.82 0.42
6 -6 15 0.06 0.28
-6 -6 15 0.39 0.29
6 6 15 0.04 0.31
-6 6 -15 0.43 0.3
6 -6 -15 0.32 0.27
6 6 -16 1.03 0.27
6 -6 16 0.79 0.28
-6 6 16 0.93 0.37
6 6 16 0.75 0.31
6 -6 -16 0.9 0.27
-6 -6 16 1.06 0.29
-6 6 -16 0.83 0.29
6 6 -17 0.71 0.24
-6 6 17 1.14 0.33
6 6 17 0.49 0.26
6 -6 -17 0.68 0.24
-6 6 -17 1.01 0.26
-6 -6 17 0.98 0.26
6 6 -18 0.2 0.25
-6 6 18 0.1 0.25
6 -6 -18 0.04 0.2
-6 -6 18 0.07 0.2
-6 6 -18 0.07 0.23
-7 -6 0 -0.03 0.22
-7 -6 0 0.49 0.42
7 6 0 0.07 0.19
-7 6 0 -0.11 0.43
-7 6 0 0.02 0.21
-7 -6 -1 19.94 1.37
7 6 -1 19.42 1.2
-7 -6 -1 19.44 1.27
-7 6 -1 15.96 1.42
-7 -6 1 19.24 1.27
-7 6 -1 17.56 1.2
-7 -6 1 20.29 1.37
7 6 1 18.93 1.16
7 -6 2 0.37 0.13
7 6 -2 0.34 0.22
-7 -6 -2 0.79 0.45
-7 6 2 0.11 0.15
-7 -6 -2 0.29 0.25
-7 6 -2 0.19 0.5
-7 -6 2 0.56 0.45
7 6 2 0.59 0.33
7 6 2 0.28 0.17
-7 6 -2 0.05 0.18
-7 -6 2 0.37 0.27
-7 -6 2 0.28 0.25
-7 6 -2 0.52 0.26
-7 -6 -3 9.43 0.81
7 -6 3 10.57 0.67
-7 -6 -3 10.16 0.98
7 6 -3 10.82 0.81
-7 -6 3 9.06 0.94
-7 -6 3 10.3 0.86
-7 6 -3 10.53 0.8
7 6 3 10.45 0.83
7 6 3 10.73 0.72
-7 -6 3 10.69 0.78
7 6 -4 10.49 0.78
7 -6 4 9.73 0.65
7 6 4 10.09 0.67
-7 -6 4 8.46 0.83
7 6 4 10.83 0.82
-7 6 -4 7.62 1.03
-7 6 -4 10.37 0.74
7 6 4 10.37 0.83
-7 6 5 0.19 0.14
7 -6 5 0.39 0.15
-7 6 -5 0.21 0.47
7 6 5 0.22 0.17
7 6 5 0.47 0.3
-7 6 -5 0.49 0.25
7 6 5 0.44 0.3
7 -6 6 0.84 0.19
-7 6 6 1.17 0.19
7 6 6 1.04 0.3
7 6 6 0.96 0.2
-7 6 -6 1.32 0.27
7 -6 7 -0.03 0.17
-7 6 7 0.16 0.16
7 6 7 0.14 0.17
-7 6 -7 0.39 0.23
7 6 7 0.11 0.26
7 -6 8 3.58 0.47
-7 6 8 3.85 0.42
7 6 8 3.78 0.58
-7 6 -8 4.35 0.54
-7 6 9 0.8 0.23
7 -6 9 0.4 0.24
7 6 9 0.61 0.28
-7 6 -9 1.04 0.3
-7 6 10 0.32 0.24
7 6 -10 0.03 0.3
7 -6 10 0.34 0.27
-7 6 -10 0.72 0.31
7 6 10 0.29 0.32
7 -6 -10 0.37 0.3
7 6 10 0.28 0.3
7 -6 11 0.37 0.25
-7 6 11 1.36 0.37
-7 6 11 0.37 0.28
7 6 -11 0.03 0.33
7 -6 11 0.51 0.29
-7 6 -11 1.34 0.42
7 -6 -11 0.28 0.29
7 6 11 0.14 0.34
-7 6 -11 0.56 0.32
7 -6 -11 0.28 0.31
7 6 11 -0.03 0.33
-7 6 12 2.2 0.41
7 -6 12 1.07 0.35
7 6 -12 0.65 0.33
-7 6 12 0.93 0.34
7 -6 -12 1.34 0.33
7 6 12 1.03 0.4
7 -6 -12 1.56 0.34
7 6 12 1.2 0.36
-7 6 -12 1.9 0.39
-7 -6 -13 2.21 0.44
7 -6 13 1.98 0.37
7 6 -13 2.17 0.41
-7 6 13 3.14 0.51
7 6 13 1.29 0.44
-7 6 -13 2.1 0.38
7 6 13 1.71 0.36
7 -6 -13 1.86 0.37
7 -6 14 0.1 0.32
7 6 -14 0.65 0.29
-7 6 14 0.86 0.42
7 -6 14 -0.2 0.3
-7 -6 -14 0.05 0.36
-7 -6 14 0.52 0.32
7 -6 -14 0.66 0.27
-7 6 -14 0.98 0.32
7 6 14 0.35 0.31
7 6 14 0.01 0.36
7 6 -15 0.94 0.28
-7 6 15 1.49 0.42
7 6 15 0.68 0.32
7 -6 -15 1.13 0.28
-7 -6 15 1.09 0.31
-7 6 16 1.22 0.36
7 6 -16 1.11 0.26
-7 -6 16 1.15 0.29
-7 6 -16 1.11 0.29
7 -6 -16 0.94 0.26
7 6 16 0.95 0.29
-7 6 17 0.28 0.3
7 6 -17 0.14 0.22
7 6 17 -0.08 0.24
-7 6 -17 0.35 0.23
-7 -6 17 0.22 0.23
7 -6 -17 0.24 0.22
-7 6 18 0.96 0.26
-8 6 0 19.89 1.22
-8 -6 -1 15.12 1.23
8 6 -1 17.87 1.06
-8 -6 1 14.34 1.21
-8 6 -1 17.62 1.08
8 6 1 17.28 1.02
-8 -6 1 13.27 1.11
-8 -6 -2 50.1 3.23
8 6 -2 58.35 3.09
-8 6 2 53.33 3.02
-8 -6 2 44.88 3.1
-8 6 -2 54.71 3.07
8 6 2 57.47 3.06
8 6 3 10.61 0.8
8 -6 4 50.05 2.89
8 6 -4 51.19 2.95
-8 6 4 51.75 2.89
-8 6 -4 47.58 2.93
8 6 4 54.07 2.98
8 6 4 50 2.92
-8 6 5 36.31 2.06
8 -6 5 34.72 2.06
8 6 5 34.88 2.09
8 6 5 37.51 2.17
-8 6 -5 34.66 2.11
-8 6 6 12.57 0.8
8 -6 6 13.07 0.82
-8 6 -6 11.22 0.87
8 6 6 13.72 0.99
8 6 6 12.27 0.84
8 -6 7 27.3 1.61
-8 6 7 27.58 1.6
8 6 7 27.66 1.72
8 6 7 26.65 1.61
-8 6 -7 25.06 1.63
-8 6 8 7.19 0.57
8 -6 8 6.06 0.59
-8 6 -8 8.02 0.66
8 6 8 6.07 0.73
8 6 -9 4.18 0.49
-8 6 10 2.22 0.35
8 6 -10 2.57 0.42
8 -6 10 2.39 0.39
8 6 10 2.8 0.42
8 6 10 2.16 0.41
8 -6 -10 2.47 0.44
-8 -6 10 2.81 0.42
8 -6 -10 2.55 0.43
-8 6 11 3.08 0.5
8 6 11 1.45 0.41
-8 6 -11 2.75 0.5
8 -6 -11 2.43 0.36
-8 -6 11 3.57 0.54
8 6 11 2.22 0.41
8 -6 -11 2.57 0.4
-8 6 -11 1.69 0.38
-8 6 12 10.37 0.75
8 -6 12 9.62 0.77
8 6 -12 10.25 0.77
-8 6 12 7.95 0.85
8 6 12 8.6 0.99
8 -6 -12 10.18 0.73
-8 -6 12 11.19 0.81
8 6 12 9.32 0.77
-8 6 -12 10.22 0.75
-8 6 13 2.87 0.49
-8 -6 -13 2.41 0.46
8 -6 13 1.94 0.38
-8 6 -13 2.7 0.46
8 6 13 1.69 0.46
8 -6 -13 2.44 0.41
8 6 13 2.49 0.4
-8 6 14 10.39 0.8
8 -6 14 12.54 0.79
8 6 -14 11.34 0.77
-8 6 -14 11.21 0.77
8 -6 -14 11.16 0.76
8 6 14 12.4 0.82
-8 -6 14 9.88 0.78
-8 6 15 2.09 0.4
8 -6 15 1.24 0.3
8 6 -15 1.72 0.3
8 -6 -15 1.67 0.3
8 6 15 1.52 0.33
-8 6 -15 2.5 0.38
-8 6 16 2.43 0.41
8 6 -16 1.78 0.3
-8 6 -16 1.86 0.33
8 6 16 1.51 0.3
8 -6 -16 1.86 0.29
-8 6 17 2.58 0.34
8 6 -17 2.83 0.33
8 -6 -17 2.47 0.29
-8 6 -17 2.6 0.3
8 6 17 2.83 0.35
9 6 0 0.03 0.16
-9 6 0 0.21 0.21
9 6 -1 23.47 1.45
-9 6 -1 23.06 1.44
9 6 1 23.69 1.43
9 6 -2 12.78 0.9
9 6 2 12.96 0.86
-9 6 -2 13.21 0.92
9 6 -3 14.74 1.02
9 6 3 14.98 0.97
-9 6 -3 14.9 1.01
9 -6 4 77.13 4.87
-9 6 4 92.04 4.88
9 6 -4 88.94 4.94
-9 6 -4 89.16 4.92
9 6 4 91.53 4.92
9 6 4 79.8 4.95
-9 6 5 6.04 0.49
9 -6 5 5.96 0.47
9 6 5 6.25 0.74
-9 6 -5 5.73 0.58
9 6 5 6.3 0.53
-9 6 6 73.83 4.22
9 6 6 75.94 4.26
-9 6 -6 69.16 4.26
9 6 6 79.51 4.35
-9 6 7 5.73 0.5
9 6 7 4.49 0.76
-9 6 -7 6.32 0.6
9 6 -8 15.51 0.96
9 -6 -8 13.55 0.92
9 -6 9 3.73 0.52
9 6 -9 3.58 0.52
-9 6 9 4.04 0.52
9 -6 -9 3.56 0.43
9 -6 -9 3.13 0.49
9 6 9 2.78 0.47
9 6 9 3.93 0.53
-9 6 10 8.35 0.75
9 6 -10 7.39 0.71
9 -6 10 8.71 0.71
9 6 10 8.52 0.94
-9 6 -10 6.81 0.74
9 -6 -10 9.7 0.69
-9 -6 10 9.56 0.73
9 6 10 8.4 0.75
-9 6 -10 9.72 0.83
9 -6 -10 9.21 0.71
-9 6 11 3.08 0.59
-9 6 11 4.58 0.52
9 -6 11 3.78 0.5
9 6 -11 2.81 0.51
-9 6 -11 3.85 0.69
9 6 11 3.64 0.55
9 -6 -11 3.44 0.47
9 6 11 2.87 0.5
-9 6 12 4.85 0.73
-9 6 12 6.7 0.6
9 -6 12 6.18 0.59
9 6 -12 5.61 0.61
9 6 12 7.62 0.9
-9 6 -12 5.84 0.61
9 6 12 6.62 0.65
-9 -6 12 7.8 0.64
9 -6 -12 7.01 0.59
9 -6 13 8.92 0.7
9 6 -13 8.63 0.7
-9 6 13 8.85 0.71
9 6 13 9.1 0.73
9 6 13 8.52 0.92
9 -6 -13 8.97 0.67
-9 6 -13 8.73 0.67
-9 -6 13 10.28 0.71
9 -6 14 1.05 0.31
9 6 -14 1.6 0.31
-9 6 14 1.51 0.39
9 6 14 0.93 0.31
-9 6 -14 2.33 0.4
9 -6 -14 1.32 0.29
9 6 -15 4.95 0.44
9 -6 15 5.52 0.47
-9 6 15 5.01 0.5
9 6 15 5.2 0.49
9 -6 -15 5.44 0.44
-9 6 -15 5.03 0.46
-9 6 16 2.53 0.38
9 6 -16 3.22 0.32
-9 6 -16 2.67 0.34
9 -6 -16 2.68 0.32
9 6 16 2.53 0.36
9 6 -17 0.42 0.23
-9 6 17 0.53 0.26
-9 6 -17 0.23 0.24
9 6 17 0.21 0.23
9 -6 -17 0.59 0.22
10 6 0 4.85 0.45
-10 6 0 3.48 0.47
10 6 -1 0.89 0.24
10 6 1 1.13 0.22
-10 6 -1 1.13 0.26
10 6 -2 12.33 0.89
-10 6 -2 13.02 0.9
10 6 2 12.08 0.85
-10 6 3 2.55 0.32
-10 6 -3 2.84 0.49
10 6 3 2.32 0.37
-10 6 4 0.46 0.16
10 6 -4 0.46 0.23
-10 6 -4 0.87 0.27
10 6 4 -0.16 0.3
10 6 4 0.75 0.2
-10 6 5 2.28 0.33
10 6 5 2.2 0.38
-10 6 -5 1.5 0.28
10 6 5 1.12 0.37
-10 6 6 0.24 0.19
10 6 6 0.19 0.19
10 6 6 -0.02 0.35
-10 6 -6 0.21 0.25
10 6 -7 4 0.46
10 -6 7 3.78 0.44
10 6 7 5.51 0.82
10 -6 8 5.57 0.58
-10 6 8 5.91 0.58
10 6 -8 6.09 0.6
-10 6 -8 6.36 0.69
10 -6 -8 5.64 0.54
-10 -6 8 7.36 0.63
10 6 8 4.85 0.86
10 6 -9 1.03 0.4
10 -6 9 1.53 0.37
-10 6 9 1.17 0.3
10 6 9 1.14 0.45
10 -6 -9 1.81 0.4
10 6 9 1.57 0.42
10 -6 -9 1.84 0.32
-10 6 -9 1.11 0.34
-10 -6 -10 0.7 0.52
10 -6 10 2.21 0.38
10 6 -10 1.82 0.43
-10 6 10 1.37 0.35
-10 6 -10 1.83 0.4
10 6 10 1.52 0.46
10 -6 -10 2.66 0.42
10 6 10 2.75 0.44
10 -6 -10 2.19 0.34
10 6 -11 2 0.42
10 -6 11 2.71 0.38
-10 -6 -11 2.51 0.54
-10 6 11 3 0.47
10 -6 -11 2.15 0.44
10 6 11 2.95 0.44
10 6 11 2.38 0.5
-10 6 -11 3.19 0.56
-10 6 12 4.19 0.49
10 6 -12 3.4 0.49
-10 -6 -12 2.77 0.59
10 -6 12 3.34 0.47
-10 6 -12 4.7 0.49
10 6 12 2.57 0.5
10 -6 -12 3.88 0.47
10 6 12 3.57 0.55
-10 6 13 1.3 0.37
10 -6 13 0.52 0.28
10 6 -13 0.5 0.28
-10 6 -13 1.33 0.36
10 6 13 0.72 0.32
10 -6 -13 1.05 0.29
-10 6 14 3.01 0.46
10 -6 14 2.67 0.4
10 6 -14 2.51 0.36
-10 6 -14 2.5 0.38
10 6 14 2.65 0.36
10 -6 -14 2.63 0.35
10 -6 15 0.1 0.23
-10 6 15 0.43 0.32
10 6 -15 0.26 0.22
-10 -6 15 0.39 0.24
-10 6 -15 0.06 0.25
10 6 15 0.12 0.25
10 -6 -15 -0.03 0.21
10 6 -16 0.77 0.23
-10 6 16 0.71 0.29
10 -6 -16 0.91 0.23
10 6 16 0.41 0.25
-10 6 -16 0.69 0.25
11 6 0 -0.03 0.19
11 6 -1 0.32 0.22
-11 6 1 0.16 0.11
-11 6 -1 0.26 0.24
11 6 1 0.38 0.18
11 6 -2 -0.09 0.22
11 6 2 0 0.17
-11 6 -2 -0.12 0.24
11 6 -3 1.4 0.29
-11 6 3 1.9 0.3
11 6 3 1.19 0.22
-11 6 -3 1.71 0.32
11 6 -4 -0.02 0.18
-11 6 4 0.22 0.16
11 6 4 0.12 0.17
-11 6 -4 0.26 0.26
-11 6 5 0.21 0.18
11 6 -5 0.15 0.22
11 6 5 0.1 0.19
11 6 5 -0.04 0.27
-11 6 -5 0.07 0.26
11 -6 6 -0.09 0.24
-11 6 6 0.17 0.21
11 6 -6 0.03 0.28
11 -6 -6 0.02 0.33
11 6 6 0.25 0.34
-11 6 -6 0.2 0.26
11 6 -7 -0.12 0.31
11 6 -7 0.02 0.26
11 -6 7 -0.22 0.3
-11 6 7 0.33 0.23
11 -6 -7 0 0.27
-11 -6 7 0.78 0.32
11 6 7 0.16 0.37
-11 6 -7 0.25 0.28
11 -6 8 0.38 0.32
-11 6 8 -0.07 0.25
11 6 -8 0.33 0.31
11 6 -8 -0.22 0.34
-11 6 -8 0.53 0.33
11 6 8 0.16 0.41
11 6 8 0.22 0.32
11 -6 -8 -0.24 0.33
11 -6 -8 0.12 0.27
11 -6 9 -0.07 0.31
-11 6 9 -0.12 0.28
11 6 -9 0.07 0.3
11 6 -9 -0.6 0.35
-11 -6 -9 1.24 0.55
11 -6 -9 0.27 0.28
11 6 9 0.15 0.41
-11 6 -9 1.6 0.58
11 -6 -9 -0.12 0.34
11 6 9 0.11 0.44
-11 6 -9 0.31 0.35
11 6 -10 -0.55 0.34
-11 -6 -10 1.06 0.51
-11 6 10 0.41 0.34
11 -6 10 -0.14 0.29
11 6 -10 -0.08 0.29
11 6 10 0.15 0.41
11 -6 -10 -0.17 0.33
-11 6 -10 1.13 0.5
11 6 10 0.09 0.38
-11 6 -10 0.21 0.35
-11 6 11 0.62 0.34
-11 -6 -11 -0.56 0.48
11 -6 11 0.3 0.29
11 6 -11 0.11 0.33
11 6 -11 0.52 0.29
11 6 11 0.46 0.41
-11 6 -11 1.52 0.45
11 -6 -11 0.15 0.32
11 6 11 0.24 0.36
11 -6 12 -0.01 0.27
11 6 -12 0 0.28
-11 6 12 0.57 0.34
-11 -6 -12 1.41 0.53
11 6 -12 -0.3 0.28
-11 6 -12 1.02 0.38
11 6 12 -0.06 0.32
11 -6 -12 -0.3 0.27
11 6 -13 0.33 0.26
11 -6 13 0.35 0.26
-11 -6 -13 -0.17 0.4
-11 6 13 0.54 0.34
-11 6 -13 0.87 0.34
11 6 13 0.27 0.28
11 -6 -13 0.34 0.26
11 6 -14 0.2 0.22
11 -6 14 -0.07 0.22
-11 6 14 0.41 0.33
-11 6 -14 0.11 0.28
-11 -6 14 0.64 0.27
11 6 14 -0.04 0.25
11 -6 -14 0.11 0.22
-11 6 15 0.3 0.31
11 -6 15 0.29 0.21
11 6 -15 0.29 0.22
11 6 15 0.3 0.24
-11 6 -15 0.35 0.26
-11 -6 15 0.69 0.23
11 -6 -15 0.22 0.21
11 -6 16 0.03 0.17
-11 6 16 -0.05 0.26
11 6 -16 0.47 0.21
11 -6 -16 0.02 0.21
-11 6 -16 0.22 0.23
11 6 16 0.07 0.22
12 6 0 7.58 0.69
12 6 -1 3.32 0.53
12 6 1 3.13 0.48
-12 6 -1 2.14 0.35
12 6 -2 11.55 0.9
-12 6 -2 11.65 0.93
12 6 2 11.48 0.85
12 6 -3 5.09 0.46
12 6 -3 5.96 0.64
12 6 3 6.12 0.57
-12 6 -3 6.69 0.69
12 6 -4 3.34 0.42
-12 6 -4 3.67 0.6
12 6 4 3.8 0.48
12 -6 5 1.88 0.33
-12 -6 -5 2.6 0.51
12 -6 6 1.66 0.33
-12 -6 -6 2.03 0.47
12 6 -6 1.33 0.36
-12 -6 6 1.6 0.34
12 -6 -6 1.33 0.32
-12 6 -6 0.96 0.32
-12 -6 -7 10.72 0.88
12 -6 7 11.67 0.82
12 6 -7 10.38 0.81
-12 6 -7 11.7 0.94
-12 -6 7 10.14 0.82
12 -6 -7 11.69 0.8
12 -6 8 7.46 0.65
12 6 -8 8.1 0.71
12 -6 -8 6.98 0.7
-12 -6 8 7.78 0.67
-12 6 -8 8.9 0.87
12 6 -9 3.44 0.48
12 6 -9 3.47 0.51
12 -6 9 3.28 0.49
-12 -6 -9 4.98 0.69
-12 6 -9 3.62 0.74
-12 6 -9 3.53 0.62
12 6 9 3.73 0.54
-12 -6 9 4.41 0.52
12 -6 -9 3.05 0.55
12 -6 10 6.72 0.61
-12 -6 -10 5.03 0.75
-12 6 10 6.74 0.59
12 6 -10 6.8 0.66
-12 6 -10 5.53 0.81
-12 -6 10 7.77 0.63
-12 6 -10 7.6 0.74
12 -6 -10 6.89 0.64
12 6 10 7.16 0.72
-12 6 11 0.48 0.34
-12 6 -11 1.23 0.44
-12 -6 -12 4.67 0.63
12 6 -12 5.33 0.53
12 -6 12 5.09 0.5
-12 6 12 4.34 0.51
12 6 12 5.39 0.58
-12 -6 12 6.38 0.52
-12 6 -12 5.7 0.55
12 -6 -12 5.54 0.51
12 6 -13 0.37 0.25
12 -6 13 0.17 0.23
-12 -6 -13 -0.25 0.36
-12 6 13 0.48 0.33
12 -6 -13 0.31 0.23
-12 6 -13 0.88 0.31
12 6 13 0.13 0.28
12 6 -14 5.17 0.43
12 -6 14 4.99 0.42
12 6 14 5.1 0.47
12 -6 -14 4.71 0.42
-12 -6 14 5.08 0.42
-12 6 -14 4.74 0.43
12 -6 15 0.31 0.19
12 6 -15 0.56 0.13
12 6 -15 0.9 0.22
12 -6 -15 0.55 0.23
-12 6 -15 0.6 0.24
-12 -6 15 0.25 0.21
12 6 15 0.61 0.25
13 6 0 -0.02 0.19
13 -6 0 -0.01 0.15
13 6 0 0.14 0.24
13 6 -1 7.26 0.56
13 6 -1 7.82 0.77
13 -6 1 7.6 0.51
13 6 1 7.59 0.56
13 6 1 8.73 0.73
13 -6 2 8.78 0.54
13 6 -2 8.17 0.6
13 6 -2 8.05 0.77
-13 6 -2 7.4 0.79
13 6 2 8.46 0.73
13 6 2 8.43 0.6
-13 -6 -3 9 0.7
13 6 -3 8.36 0.65
13 6 3 8.52 0.62
13 6 3 9.95 0.75
-13 6 -3 8.9 0.86
-13 -6 -4 22.07 1.37
13 6 -4 23.07 1.35
-13 6 -4 23.72 1.48
13 -6 -4 19.08 1.26
13 6 -5 2.66 0.43
13 -6 5 3.67 0.45
13 -6 -5 2.58 0.26
-13 -6 5 1.97 0.39
-13 6 -5 2.8 0.43
13 6 -6 27.49 1.61
13 -6 6 29.26 1.67
-13 -6 -6 29.28 1.72
13 6 -6 29.99 1.7
-13 -6 6 23.37 1.68
-13 6 -6 29.21 1.81
13 -6 -6 26.33 1.59
13 6 -7 7.12 0.49
13 -6 7 6.01 0.59
13 6 -7 6.02 0.6
13 -6 -7 5.55 0.43
-13 -6 7 5.48 0.6
-13 6 -7 5.9 0.81
13 -6 -7 5.68 0.61
13 -6 8 36.89 2.11
-13 -6 -8 35.13 2.15
13 6 -8 36.75 2.14
13 6 -8 37.54 2.06
13 -6 -8 31.34 2.04
-13 6 -8 36.42 2.23
13 -6 -8 36.69 2.15
-13 -6 -9 9.8 0.87
13 -6 9 9.9 0.74
13 6 -9 11.49 0.69
13 6 -9 11.31 0.8
-13 6 -9 9.44 0.96
-13 6 -9 9.3 0.89
13 6 9 9.75 0.87
-13 -6 9 10.16 0.77
13 -6 -9 8.97 0.64
13 -6 -9 11.01 0.81
13 -6 10 9.77 0.72
13 6 -10 9.31 0.76
-13 -6 -10 10.03 0.9
13 6 -10 9.42 0.64
13 -6 -10 10.8 0.77
13 -6 -10 8.37 0.61
-13 6 -10 9.31 0.81
-13 -6 10 10.26 0.73
13 6 10 10.24 0.82
-13 -6 -11 8.32 0.85
13 6 -11 10.41 0.65
13 -6 11 10.04 0.72
13 6 -11 10.63 0.75
-13 6 -11 10.41 0.78
13 -6 -11 10.63 0.75
13 6 11 10.13 0.79
-13 -6 11 9.72 0.72
13 -6 12 2.5 0.37
13 6 -12 2.37 0.29
13 6 -12 2.59 0.4
-13 6 12 1.9 0.38
-13 -6 -12 2.98 0.48
-13 6 -12 3.08 0.45
13 6 12 2.64 0.47
13 -6 -12 2.62 0.4
13 6 -13 7.41 0.54
13 6 -13 6.95 0.47
13 -6 13 6.89 0.53
-13 6 -13 6.91 0.55
13 -6 -13 7.41 0.54
-13 -6 13 7.75 0.55
13 6 13 7.27 0.58
13 6 -14 0.55 0.13
13 6 -14 0.8 0.22
13 -6 14 0.26 0.2
-13 6 -14 0.28 0.27
13 6 14 0.28 0.26
13 -6 -14 0.27 0.24
-13 -6 14 0.79 0.23
14 -6 0 18.96 1.14
14 6 0 19.98 1.35
14 6 0 19.55 1.19
14 6 -1 1.17 0.27
14 6 -1 0.87 0.3
14 -6 1 1.17 0.21
14 -6 -1 1.15 0.2
14 6 1 1.59 0.28
14 6 1 0.96 0.29
14 6 -3 3.04 0.4
-14 -6 -3 4.06 0.54
14 -6 -3 2.94 0.31
14 6 -4 4.82 0.47
14 -6 -4 4.84 0.36
-14 6 -4 3.54 0.69
14 6 -5 9.97 0.71
14 6 -5 8.95 0.59
14 -6 5 9.98 0.69
-14 -6 5 7.58 0.73
14 -6 -5 9.15 0.58
-14 6 -5 9.22 0.89
14 -6 6 10.46 0.7
14 6 -6 9.48 0.61
14 6 -6 8.92 0.72
14 -6 -6 8.6 0.58
-14 -6 6 7.81 0.74
-14 6 -6 8.93 0.9
14 6 -7 26.46 1.46
14 6 -7 25.16 1.54
-14 -6 -7 26.92 1.57
14 -6 7 27.04 1.52
14 -6 -7 25.56 1.55
-14 6 -7 23.93 1.64
-14 -6 7 21.37 1.52
14 -6 -7 23.32 1.44
14 6 -8 1.54 0.38
14 -6 8 0.99 0.31
14 6 -8 1.62 0.25
14 -6 -8 1.63 0.4
14 -6 -8 1.03 0.21
-14 -6 8 2.3 0.46
-14 6 -8 1.13 0.56
14 -6 9 12.78 0.82
14 6 -9 12.47 0.76
-14 -6 -9 9.21 0.92
14 6 -9 12.36 0.87
14 -6 -9 13.38 0.88
-14 -6 9 11.4 0.81
14 -6 -9 11.01 0.72
14 6 9 11.11 0.87
14 6 -10 2.5 0.43
14 6 -10 2.71 0.33
14 -6 10 2.33 0.34
14 -6 -10 2.67 0.48
14 -6 -10 2.32 0.27
14 6 10 2.21 0.43
-14 6 -10 3.04 0.5
-14 -6 10 2.81 0.42
14 -6 11 2.93 0.4
14 6 -11 3.13 0.44
-14 -6 -11 3.63 0.59
14 6 -11 2.7 0.32
-14 -6 11 3.86 0.41
14 -6 -11 3.47 0.44
14 6 11 3.41 0.52
-14 6 -11 3.36 0.46
14 6 -12 4.31 0.42
14 6 -12 4.09 0.32
-14 -6 -12 3.5 0.49
14 -6 12 3.43 0.38
14 -6 -12 4.07 0.42
-14 6 -12 4.05 0.46
-14 -6 12 4.29 0.4
14 6 12 3.52 0.48
14 -6 13 0.33 0.21
14 6 -13 0.71 0.23
14 6 -13 0.46 0.13
14 -6 -13 0.47 0.26
14 6 13 0.83 0.3
-14 6 -13 -0.02 0.27
15 -6 0 0.15 0.17
15 6 0 0.2 0.21
15 6 -1 0.23 0.22
15 6 1 0.35 0.21
15 -6 -1 0.15 0.17
15 6 -2 1.21 0.27
15 -6 -2 0.99 0.19
15 6 2 0.76 0.22
-15 -6 -3 0.62 0.33
15 6 -3 -0.01 0.17
15 6 -3 0.33 0.25
15 -6 -3 0.22 0.17
15 6 -4 0.92 0.19
15 6 -4 1.4 0.3
15 -6 -4 1.45 0.21
15 6 -5 0.18 0.27
15 6 -5 0.13 0.18
15 -6 5 0.1 0.25
15 -6 -5 0.2 0.17
15 -6 6 1.38 0.31
15 6 -6 2.29 0.37
15 6 -6 2.11 0.29
15 -6 -6 1.87 0.26
-15 -6 6 1.47 0.34
-15 -6 -7 1.47 0.44
15 -6 7 0.23 0.27
15 6 -7 0.75 0.21
15 6 -7 0.49 0.31
15 -6 -7 0.63 0.34
-15 -6 7 0.63 0.32
15 -6 -7 0.34 0.18
15 6 -8 3.76 0.35
15 -6 8 3.11 0.44
15 6 -8 3.28 0.47
-15 -6 -8 3.62 0.52
-15 -6 8 3.32 0.48
15 -6 -8 3.64 0.52
15 -6 -8 3.13 0.32
15 6 -9 1.09 0.21
15 -6 9 0.5 0.26
15 6 -9 0.88 0.31
-15 -6 9 1.46 0.31
15 -6 -9 0.78 0.19
15 -6 -9 1.18 0.36
-15 6 -9 0.18 0.47
15 -6 10 0.4 0.24
15 6 -10 0.23 0.27
15 6 -10 0.08 0.17
15 -6 -10 0.35 0.32
15 6 10 0.38 0.33
-15 6 -10 0.03 0.39
-15 -6 10 0.78 0.27
15 -6 -10 0.24 0.16
15 6 -11 0.29 0.24
15 -6 11 0.12 0.21
15 6 -11 0.24 0.15
-15 -6 -11 0.8 0.42
-15 -6 11 0.61 0.24
15 6 11 0.34 0.25
-15 6 -11 -0.11 0.31
15 -6 -11 0.1 0.28
15 6 -12 0.43 0.23
15 6 -12 0.14 0.12
15 -6 12 0.02 0.2
-15 -6 12 0.55 0.23
15 6 12 0.3 0.22
15 -6 -12 -0.12 0.27
16 6 0 5.76 0.5
16 -6 0 6.29 0.43
16 6 -1 0.24 0.23
16 6 1 0.3 0.22
16 -6 -1 0.49 0.17
-16 -6 -2 6.16 0.59
16 6 -2 5.89 0.5
16 -6 -2 6.01 0.43
16 6 -3 1.52 0.29
16 -6 -3 1.03 0.2
16 6 -4 2.45 0.28
16 6 -4 2.33 0.37
16 -6 -4 2.05 0.28
16 6 -5 2.65 0.29
16 6 -5 2.66 0.38
16 -6 5 1.94 0.34
16 -6 -5 2.52 0.29
16 6 -6 0.38 0.27
16 6 -6 0.67 0.19
16 -6 6 0.86 0.26
-16 -6 -6 1.18 0.39
-16 -6 6 -0.06 0.29
16 -6 -6 0.51 0.18
16 -6 7 4.17 0.43
16 6 -7 4.27 0.35
16 6 -7 3.84 0.45
-16 -6 -7 3.64 0.56
-16 -6 7 3.71 0.49
16 -6 -7 4.04 0.33
16 6 -8 1.17 0.2
16 6 -8 1.34 0.3
16 -6 8 1.23 0.27
16 -6 -8 1.03 0.35
-16 -6 8 1.46 0.33
16 -6 -8 0.95 0.2
16 6 -9 1.74 0.31
16 6 -9 1.54 0.23
16 -6 9 1.71 0.28
16 -6 -9 2.03 0.36
16 -6 -9 1.35 0.2
-16 -6 9 1.8 0.37
16 6 -10 3.65 0.28
16 6 -10 3.45 0.38
16 -6 10 3.16 0.37
-16 -6 -10 3.19 0.5
-16 -6 10 3.79 0.39
16 -6 -10 2.87 0.45
16 6 -11 0.35 0.23
16 -6 11 0.07 0.22
16 6 -11 0.29 0.12
-16 -6 11 0.69 0.24
17 6 0 0.06 0.21
17 6 -1 19.54 1.16
-17 -6 -1 18.44 1.17
-17 -6 -2 4.65 0.53
17 6 -2 4.69 0.44
17 -6 -2 4.52 0.36
-17 -6 -3 13.71 0.93
17 6 -3 13.7 0.89
17 -6 -3 13.45 0.82
-17 -6 -4 11.79 0.84
17 6 -4 11.95 0.8
17 -6 -4 11.7 0.73
17 6 -5 4.54 0.45
17 6 -5 4.55 0.37
-17 -6 -5 5.59 0.57
17 -6 -5 4.57 0.36
17 6 -6 13.15 0.76
-17 -6 -6 10.69 0.86
17 6 -6 12.88 0.84
17 -6 -6 12.89 0.76
17 6 -7 0.17 0.24
17 -6 7 0.02 0.21
17 6 -7 0.21 0.15
17 -6 -7 0.31 0.16
17 6 -8 8.93 0.62
17 -6 8 8.93 0.6
17 6 -8 8.49 0.54
17 -6 -8 8.94 0.55
-17 -6 8 7.26 0.62
-17 -6 -9 1.39 0.45
17 6 -9 1.41 0.27
17 6 -9 1.13 0.16
17 -6 9 1.18 0.25
-17 -6 9 0.98 0.26
17 6 -10 1.12 0.27
17 -6 10 1.07 0.23
-17 -6 10 1.55 0.26
-18 -6 0 11.56 0.78
-18 -6 -1 0.54 0.27
18 6 -2 12.44 0.77
-18 -6 -2 11.13 0.8
18 6 -3 2.33 0.34
-18 -6 -3 2.25 0.35
18 -6 -3 2.11 0.26
-18 -6 -4 3.43 0.45
18 6 -4 4.19 0.41
18 -6 -4 4.31 0.32
18 6 -5 3.74 0.39
18 -6 -5 3.57 0.32
18 6 -6 1 0.27
18 -6 -6 1.02 0.19
18 6 -7 5.54 0.47
18 -6 -7 5.26 0.39
18 6 -8 1.39 0.31
-18 -6 -8 0.8 0.43
-19 -6 0 -0.32 0.21
-19 -6 -1 0.83 0.24
-19 -6 1 0.49 0.22
-19 -6 -2 0.22 0.25
-19 -6 2 -0.06 0.2
-19 -6 -3 -0.11 0.25
19 6 -4 2.38 0.35
19 6 -5 0.38 0.25
19 6 -6 2.53 0.37
-20 -6 0 -0.17 0.17
0 7 0 0.19 0.14
0 -7 0 0.01 0.3
0 7 1 0.27 0.18
0 -7 1 0.12 0.29
0 -7 -1 -0.07 0.31
0 7 -1 0.11 0.12
0 7 -2 -0.12 0.14
0 -7 2 0.12 0.35
0 -7 -2 0.15 0.33
0 7 2 0.32 0.21
0 -7 3 0.04 0.49
0 7 3 0.26 0.17
0 -7 -3 -0.14 0.34
0 7 -3 0.31 0.2
0 -7 3 0.27 0.38
0 7 3 0.31 0.27
0 7 4 0.58 0.22
0 7 -4 0.91 0.25
0 -7 4 1.39 0.66
0 -7 -4 0.04 0.37
0 -7 4 1.07 0.54
0 7 4 0.78 0.38
0 7 5 0.66 0.27
0 -7 5 1.29 0.83
0 7 -5 0.72 0.26
0 7 5 0.6 0.47
0 -7 5 0.19 0.64
0 -7 6 0.64 0.69
0 -7 6 0.86 0.92
0 7 6 1.15 0.57
0 -7 6 0.59 0.23
0 7 7 -0.73 0.56
0 -7 7 -0.57 0.44
0 -7 7 0.31 0.22
0 7 7 0.07 0.2
0 7 8 0.66 0.26
0 -7 8 0.46 0.23
0 7 8 0.25 0.21
0 7 9 0.35 0.23
0 -7 9 0.08 0.22
0 7 9 0.16 0.24
0 -7 10 0.19 0.23
0 7 10 0.4 0.27
0 7 10 0.27 0.26
0 -7 11 -0.09 0.24
0 7 11 -0.05 0.3
0 7 11 0.01 0.28
0 -7 12 0.17 0.32
0 -7 -12 -0.08 0.31
0 7 12 -0.11 0.3
0 -7 12 0.07 0.27
0 7 12 -0.37 0.33
0 7 -12 0.23 0.29
0 -7 13 0.05 0.29
0 -7 13 0.41 0.31
0 7 -13 0.22 0.31
0 -7 -13 0.31 0.33
0 7 -14 0.42 0.28
0 -7 14 -0.28 0.3
0 -7 -14 0.1 0.3
0 -7 14 0.17 0.3
0 -7 -15 -0.12 0.29
0 7 -15 0.11 0.3
0 -7 15 0.34 0.29
0 7 -16 0.38 0.29
0 -7 -16 0.24 0.28
0 -7 16 0.27 0.27
0 7 -17 -0.38 0.26
0 -7 -17 -0.28 0.26
0 -7 17 0.11 0.24
0 -7 -18 0.13 0.23
0 7 -18 0.32 0.23
0 -7 18 0.32 0.22
0 -7 19 0.15 0.21
1 7 0 8.55 0.53
-1 -7 0 6.63 0.53
-1 -7 0 7.39 0.67
-1 7 0 8.68 0.52
1 -7 0 7.5 0.78
-1 -7 -1 4.7 0.37
1 7 -1 5.61 0.39
1 -7 1 5.74 0.72
-1 7 1 5.59 0.44
-1 -7 -1 5.17 0.59
-1 -7 1 5.89 0.58
1 7 1 5.8 0.44
-1 -7 1 4.5 0.48
-1 7 -1 5.53 0.35
1 -7 -1 5.15 0.68
1 7 -2 0.12 0.18
-1 7 2 0.18 0.13
-1 -7 -2 0.33 0.3
1 -7 2 0.35 0.4
-1 7 2 0.67 0.24
-1 -7 -2 0.28 0.09
1 -7 -2 -0.06 0.36
-1 -7 2 0.25 0.27
1 7 2 0.68 0.23
-1 -7 2 0.64 0.34
-1 7 -2 0.06 0.15
1 7 -3 30.45 1.84
-1 -7 -3 30.29 1.92
1 -7 3 34.37 2.09
1 -7 3 30.6 1.81
-1 7 3 31.08 1.82
1 -7 3 29.13 2.04
-1 7 3 33.87 1.91
1 7 3 30.93 1.83
-1 -7 3 30.41 1.8
1 7 3 34.79 1.9
-1 -7 3 33.16 1.98
-1 7 -3 30.54 1.83
1 -7 -3 31.66 1.97
-1 7 4 0.51 0.2
-1 -7 -4 0.98 0.35
1 -7 4 0.96 0.56
1 7 -4 0.84 0.27
-1 7 4 1.34 0.41
-1 -7 4 0.74 0.46
1 7 4 1 0.25
1 7 4 0.95 0.38
1 -7 5 151.37 8.97
1 -7 5 153.82 8.88
-1 7 5 162.38 8.82
1 7 -5 154.64 8.71
1 -7 5 160.68 8.69
-1 7 5 137.23 8.66
-1 7 5 159.71 8.7
1 7 5 161.14 8.8
1 7 5 159.76 8.7
-1 -7 5 163.06 8.87
-1 7 -5 144.59 8.69
-1 -7 5 154.99 8.69
1 -7 6 10.07 1.7
1 -7 6 12.42 1.35
-1 7 6 15.18 0.97
-1 7 6 14.92 1.23
1 -7 6 13.84 0.93
1 7 -6 13.88 0.99
-1 -7 6 13 1.32
-1 7 -6 14.24 0.97
1 7 6 14.06 1.19
-1 -7 6 16.76 1.87
1 7 6 14.77 0.95
-1 -7 6 13.4 0.92
-1 7 7 22.8 1.38
-1 7 7 25.71 1.43
-1 7 7 19.55 1.68
1 -7 7 23.35 1.41
1 7 -7 23 1.43
-1 -7 7 22.45 1.42
-1 7 -7 23.2 1.42
1 7 7 25.07 1.44
1 7 7 20.74 1.65
1 -7 8 0.44 0.23
-1 7 8 0.42 0.21
-1 7 8 0.61 0.27
-1 -7 8 0.53 0.24
1 7 8 0.53 0.25
-1 7 9 8.49 0.67
1 -7 9 8.6 0.67
-1 7 9 8.83 0.73
1 7 9 8.87 0.73
-1 7 -9 7.41 0.66
-1 -7 9 8.18 0.68
-1 7 10 2.6 0.51
1 -7 10 2.55 0.47
-1 7 10 3.1 0.5
1 7 10 2.84 0.51
-1 -7 10 3.17 0.52
-1 7 11 8.56 0.77
-1 7 11 8.6 0.77
1 -7 11 8.64 0.72
1 7 11 9.19 0.77
-1 -7 11 8.83 0.76
-1 7 12 3.87 0.65
1 -7 12 3.91 0.48
-1 -7 -12 3.75 0.5
1 -7 12 4.21 0.56
1 7 -12 4.38 0.45
1 -7 -12 4.12 0.45
-1 -7 12 4.19 0.61
1 7 12 3.5 0.61
-1 7 -12 3.98 0.44
-1 -7 12 4.14 0.46
-1 7 13 0.4 0.38
1 -7 13 0.99 0.31
1 -7 13 1.82 0.35
1 7 -13 0.96 0.33
-1 -7 13 1.76 0.36
-1 7 -13 1.38 0.31
-1 -7 13 0.89 0.33
1 7 13 0.51 0.34
-1 -7 -14 1.5 0.35
-1 7 14 1.99 0.51
1 -7 14 1.66 0.34
1 -7 14 0.65 0.33
1 7 -14 1.22 0.3
-1 -7 14 0.61 0.34
-1 7 -14 1 0.3
-1 -7 14 1.35 0.33
1 -7 -14 1.42 0.32
1 -7 15 2.16 0.4
-1 -7 -15 1.68 0.35
1 7 -15 2.21 0.41
-1 7 15 2.36 0.47
-1 -7 15 1.69 0.35
1 -7 -15 1.83 0.37
-1 7 -15 2.04 0.37
-1 7 16 0.93 0.4
1 -7 16 1.08 0.29
1 7 -16 0.88 0.3
-1 -7 -16 1.12 0.31
1 -7 -16 0.9 0.29
-1 -7 16 0.69 0.29
-1 7 -16 0.78 0.31
1 -7 17 2.77 0.34
-1 -7 -17 2.9 0.35
1 7 -17 3.08 0.38
-1 7 17 2.01 0.39
-1 -7 17 3.25 0.36
-1 7 -17 3.08 0.38
1 -7 -17 2.77 0.35
-1 -7 -18 0.01 0.22
1 -7 18 0.26 0.23
1 7 -18 0.24 0.23
1 -7 -18 -0.03 0.22
-1 -7 18 0.61 0.23
-1 7 -18 0.17 0.23
-2 -7 0 0.03 0.25
2 -7 0 -0.26 0.41
-2 7 0 0.11 0.08
2 -7 0 0.02 0.05
-2 7 0 0.12 0.15
-2 -7 0 -0.07 0.12
2 7 0 0.1 0.15
2 7 -1 30.67 1.63
-2 -7 -1 28.6 1.63
2 -7 1 26.54 1.87
-2 7 1 30.21 1.65
2 -7 1 27.18 1.61
-2 -7 -1 27.62 1.72
-2 -7 1 28.29 1.66
-2 -7 1 27.92 1.73
2 7 1 30.31 1.65
2 -7 -1 26.83 1.82
-2 7 -1 24.49 1.58
-2 -7 -2 1.29 0.32
2 -7 2 0.73 0.19
-2 7 2 1.27 0.22
2 -7 2 0.77 0.13
-2 -7 -2 0.85 0.2
2 -7 2 1.22 0.51
2 7 -2 0.8 0.19
-2 -7 2 1.5 0.34
-2 -7 2 1.03 0.25
-2 7 -2 0.83 0.19
2 -7 -2 0.65 0.41
2 7 -3 55.94 3.24
2 -7 3 55.4 3.31
-2 7 3 58.78 3.2
-2 7 3 60.87 3.3
-2 -7 -3 56.13 3.3
-2 -7 -3 54.18 3.21
2 -7 3 60.16 3.2
2 -7 3 55.37 3.44
-2 -7 3 57.64 3.21
-2 7 -3 52.36 3.21
2 7 3 61.57 3.27
2 -7 -3 53.09 3.32
-2 -7 3 54.47 3.31
-2 -7 3 60.07 3.35
2 7 3 53.47 3.22
-2 7 4 0.68 0.21
2 -7 4 0.55 0.16
2 -7 4 0.51 0.66
-2 7 4 1.32 0.46
-2 -7 -4 0.99 0.37
-2 -7 -4 0.41 0.15
-2 -7 4 1.44 0.48
-2 -7 4 0.69 0.18
2 7 4 1.14 0.38
-2 7 5 12.2 1.08
-2 -7 -5 8.76 0.88
2 -7 5 9.51 1.26
2 7 -5 10.71 0.87
2 -7 5 12.16 0.74
-2 7 5 9.65 0.7
-2 7 5 11.68 0.8
-2 7 -5 10.33 0.79
2 7 5 11.81 0.98
-2 -7 5 12.69 1.33
-2 -7 5 12.34 1.15
2 -7 6 30.2 1.67
-2 7 6 27.3 1.64
2 7 -6 26.49 1.71
-2 7 6 30.06 1.69
-2 7 6 29.03 1.94
2 7 6 28.5 1.88
-2 7 -6 28.59 1.7
-2 -7 6 26.71 1.95
-2 -7 6 28.8 1.68
-2 -7 6 22.68 2.18
2 7 6 29.54 1.7
2 -7 7 5.26 0.52
-2 7 7 6.8 0.62
-2 7 7 5.07 0.48
2 7 7 6.1 0.62
-2 -7 7 5.21 0.57
-2 7 8 5.71 0.58
2 -7 8 5.47 0.52
-2 7 8 5.02 0.51
-2 -7 8 5.36 0.58
-2 7 -8 6.22 0.57
2 7 8 5.71 0.59
2 -7 9 5.34 0.54
-2 7 9 5.62 0.58
-2 7 9 5.95 0.52
-2 7 -9 7.25 0.6
2 7 9 5.73 0.6
-2 -7 9 5.4 0.58
-2 7 10 0.31 0.26
2 -7 10 0.52 0.23
-2 7 10 0.74 0.26
-2 -7 10 0.45 0.26
2 7 10 0.78 0.27
2 -7 11 24.84 1.54
-2 7 11 25.4 1.54
-2 7 11 21.25 1.53
-2 -7 11 26.15 1.57
2 7 11 25.26 1.57
2 -7 12 0.4 0.3
-2 -7 -12 -0.07 0.34
2 7 -12 0.03 0.3
-2 7 12 0.07 0.32
2 -7 12 0.13 0.25
-2 -7 12 0.06 0.28
-2 -7 12 0.18 0.32
-2 7 -12 0.46 0.29
2 7 12 -0.03 0.3
2 -7 -12 0.17 0.29
2 7 -13 11.4 0.77
2 -7 13 11.76 0.78
-2 7 13 10.06 0.85
-2 7 13 8.84 0.93
2 -7 13 11.9 0.89
-2 -7 -13 11.34 0.78
2 7 13 10.44 0.93
2 -7 -13 11.2 0.77
-2 7 -13 11.62 0.76
2 7 13 10.34 0.81
-2 -7 13 11.37 0.92
-2 -7 13 11.67 0.79
-2 7 14 0.94 0.5
2 7 -14 0.01 0.28
-2 -7 -14 -0.14 0.32
2 -7 14 0.16 0.3
2 -7 14 -0.13 0.29
-2 7 -14 0.09 0.27
2 -7 -14 0.03 0.28
-2 -7 14 -0.23 0.32
2 7 14 0.03 0.35
-2 -7 14 0.14 0.3
2 -7 15 17.81 1.04
-2 -7 -15 17.54 1.04
-2 7 15 15.4 1.1
2 7 -15 16.66 1.03
2 -7 15 15.85 1.13
-2 -7 15 15.96 1.16
2 7 15 16.88 1.07
-2 7 -15 16.6 1.03
-2 -7 15 16.01 1.02
2 -7 -15 15.22 1.01
-2 -7 -16 -0.03 0.3
2 7 -16 0.13 0.28
-2 7 16 0.64 0.39
2 -7 16 0.2 0.27
-2 -7 16 0.29 0.28
2 -7 -16 0.13 0.27
2 7 16 0.07 0.26
-2 7 -16 0.07 0.29
-2 -7 -17 3.32 0.36
2 -7 17 2.98 0.36
2 7 -17 2.96 0.35
-2 7 17 2.41 0.42
2 -7 -17 3.07 0.34
-2 -7 17 2.91 0.36
-2 7 -17 2.79 0.36
2 7 -18 1.29 0.26
2 -7 18 1.48 0.27
-2 7 -18 1.44 0.26
-2 -7 18 1.55 0.26
2 -7 -18 1.21 0.26
3 7 0 22.45 1.26
-3 7 0 20.53 1.24
-3 -7 0 21.02 1.27
-3 -7 0 20.91 1.35
3 -7 0 20.2 1.48
3 -7 0 20.41 1.21
3 7 0 21.17 1.25
-3 -7 -1 0.43 0.29
3 -7 1 0 0.49
-3 7 1 0.17 0.11
3 7 -1 0.22 0.16
3 -7 1 0.19 0.09
-3 -7 -1 0.2 0.13
-3 7 1 0.73 0.25
-3 -7 1 0.17 0.16
3 -7 -1 0.11 0.42
3 7 1 0.54 0.21
3 7 1 0.22 0.13
-3 -7 1 0.37 0.32
3 7 -2 1.49 0.24
-3 7 2 0.98 0.17
3 -7 2 1.94 0.62
-3 7 2 2.25 0.45
-3 -7 -2 1.25 0.34
3 -7 2 1.47 0.28
3 -7 2 1.27 0.21
-3 -7 -2 1.3 0.25
3 -7 -2 0.97 0.4
-3 -7 2 1.77 0.41
-3 -7 2 1.14 0.26
3 7 2 1.72 0.35
-3 7 -2 1.11 0.23
-3 7 3 19.81 1.18
3 7 -3 21.06 1.25
-3 7 3 21.59 1.33
-3 -7 -3 18.65 1.2
3 -7 3 18.24 1.25
3 -7 3 19.63 1.16
-3 -7 -3 20.13 1.32
3 -7 3 20.93 1.58
-3 -7 3 18.81 1.18
3 7 3 17.5 1.21
3 7 3 20.4 1.27
3 -7 -3 16.42 1.26
-3 -7 3 20.39 1.3
-3 -7 3 22.11 1.38
-3 7 -3 20.71 1.22
-3 -7 -4 1.21 0.42
-3 7 4 1.81 0.49
3 -7 4 0.12 0.72
-3 7 4 0.63 0.22
3 7 -4 1.15 0.28
-3 -7 4 1.41 0.41
3 7 4 1.09 0.4
-3 -7 4 2 0.55
-3 -7 4 0.82 0.22
-3 7 -4 1.23 0.26
-3 7 5 143.22 7.64
3 7 -5 131.12 7.67
3 -7 5 136.36 7.84
-3 7 5 144.85 7.8
3 -7 5 140.82 7.64
-3 7 5 141.57 7.62
3 7 5 139.94 7.66
-3 -7 5 134.01 7.78
3 7 5 138.47 7.75
-3 -7 5 118.41 7.8
-3 7 -5 130.06 7.65
-3 7 6 1.06 0.26
3 -7 6 1.19 0.22
-3 7 6 0.48 0.6
-3 -7 6 0.92 0.25
-3 -7 6 1.34 0.66
3 7 6 1.28 0.27
-3 -7 6 0.27 0.5
3 7 6 1.04 0.5
-3 7 7 28.64 1.66
-3 7 7 26.89 1.6
3 -7 7 28.06 1.63
-3 7 -7 26.14 1.64
3 7 7 27.54 1.65
-3 -7 7 26.47 1.65
-3 7 8 2.38 0.39
3 -7 8 2.39 0.42
-3 7 8 2.53 0.5
-3 7 -8 3.02 0.47
3 7 8 2.42 0.48
-3 -7 8 2.29 0.45
-3 7 9 17 1.15
3 -7 9 18.42 1.15
-3 7 9 19.02 1.14
-3 7 -9 17.57 1.15
3 7 9 18.49 1.18
-3 -7 9 17.63 1.18
-3 7 10 0.31 0.23
3 -7 10 0.08 0.21
-3 7 10 -0.46 0.25
-3 -7 10 -0.09 0.27
-3 7 -10 0.25 0.24
3 7 10 0.01 0.24
3 -7 11 11.44 0.83
-3 7 11 11.1 0.83
3 7 11 10.91 0.87
-3 -7 11 10.33 0.88
3 -7 12 0.38 0.3
-3 -7 -12 -0.09 0.36
3 7 -12 0.04 0.3
-3 7 12 -0.21 0.4
3 -7 12 0.05 0.26
-3 7 12 -0.27 0.3
-3 7 -12 0.55 0.31
-3 -7 12 0.06 0.33
-3 -7 12 0.03 0.3
3 7 12 0.11 0.34
3 7 12 -0.09 0.31
3 -7 -12 -0.03 0.29
3 7 -13 0.28 0.31
-3 -7 -13 0.78 0.36
-3 7 13 0 0.35
3 -7 13 0.85 0.32
-3 7 13 1.2 0.46
3 -7 13 0.27 0.29
-3 7 -13 0.89 0.31
3 7 13 -0.17 0.35
3 -7 -13 0.83 0.31
-3 -7 13 0.71 0.33
-3 -7 13 -0.13 0.32
3 7 13 0.19 0.35
3 7 -14 0.85 0.31
-3 7 14 2.17 0.5
3 -7 14 0.68 0.31
3 -7 14 0.57 0.31
-3 -7 -14 0.79 0.35
3 -7 -14 0.87 0.28
-3 -7 14 1.15 0.33
3 7 14 1.05 0.36
-3 7 -14 1.18 0.31
-3 -7 14 0.12 0.34
-3 -7 -15 2.41 0.42
-3 7 15 3.95 0.56
3 7 -15 2.74 0.39
3 -7 15 2.77 0.42
3 -7 -15 2.49 0.38
3 7 15 2.3 0.41
-3 -7 15 2.91 0.41
-3 7 -15 3.56 0.42
3 7 -16 0.13 0.27
3 -7 16 0.23 0.26
-3 7 16 0.6 0.39
-3 -7 -16 -0.12 0.3
-3 -7 16 0.19 0.27
3 -7 -16 0.04 0.26
3 7 16 -0.24 0.31
-3 7 -16 0.02 0.29
-3 7 17 3.94 0.44
-3 -7 -17 4.29 0.4
3 7 -17 4.79 0.41
3 -7 17 4.53 0.4
-3 7 -17 4.63 0.4
3 -7 -17 3.76 0.38
-3 -7 17 4.44 0.4
3 -7 18 0.04 0.22
-3 7 18 0.16 0.26
3 7 -18 0.26 0.22
-3 -7 18 0.05 0.21
3 -7 -18 -0.19 0.22
-3 7 -18 -0.1 0.22
-4 -7 0 0 0.16
-4 -7 0 0.09 0.32
4 7 0 0.1 0.16
-4 7 0 0 0.08
4 7 0 0.17 0.21
4 -7 0 0.04 0.1
4 -7 1 2.66 0.27
4 7 -1 3.17 0.38
-4 7 1 3.56 0.46
-4 7 1 2.35 0.31
-4 -7 -1 3.28 0.57
-4 -7 -1 2.48 0.35
4 7 1 2.93 0.34
4 7 1 2.49 0.38
-4 -7 1 3.61 0.57
-4 -7 1 2.76 0.39
-4 7 2 1 0.36
4 -7 2 0.08 0.11
-4 -7 -2 0.04 0.17
-4 -7 -2 0.14 0.35
4 7 -2 0.38 0.24
-4 7 2 0.02 0.14
-4 7 -2 0.38 0.23
4 7 2 0.23 0.26
4 7 2 0.16 0.16
-4 -7 2 0.19 0.21
-4 -7 2 0.6 0.41
-4 7 3 9.37 0.65
4 -7 3 8.67 0.73
4 7 -3 9.39 0.75
4 -7 3 9.78 0.64
-4 7 3 11.04 0.9
-4 -7 -3 10.3 0.89
-4 -7 -3 10 0.71
-4 -7 3 9.49 0.68
-4 -7 3 10.67 0.81
4 7 3 9.71 0.67
-4 -7 3 11.12 0.95
4 7 3 8.56 0.75
4 7 3 9.63 0.79
-4 7 -3 10.19 0.76
-4 -7 -4 0.05 0.39
-4 7 4 0.04 0.2
4 7 -4 0.45 0.29
-4 7 4 0.61 0.51
-4 -7 -4 0.15 0.2
-4 -7 4 1.27 0.53
-4 -7 4 0.09 0.2
4 7 4 0.2 0.16
-4 -7 4 0.51 0.35
4 7 4 0.85 0.3
-4 7 -4 0.5 0.27
4 7 4 0.35 0.41
-4 7 5 0.94 0.24
-4 7 5 0.46 0.58
-4 -7 -5 0.12 0.39
4 -7 5 0.69 0.18
-4 7 5 0.62 0.18
4 7 -5 0.76 0.29
4 7 5 1.22 0.28
-4 -7 5 1.13 0.48
-4 -7 5 1.22 0.57
-4 7 -5 1.33 0.3
4 7 5 1.48 0.49
4 -7 6 0.47 0.18
4 -7 6 -0.29 0.38
-4 7 6 0.4 0.17
-4 7 6 0.71 0.24
-4 -7 6 -0.1 0.53
4 7 6 1.03 0.29
-4 7 -6 1.05 0.27
4 7 6 0.85 0.51
4 -7 7 0.43 0.19
-4 7 7 0.54 0.24
-4 7 7 0.15 0.16
-4 7 -7 0.86 0.26
4 7 7 0.62 0.27
-4 -7 7 0.56 0.26
-4 7 8 0.22 0.17
4 -7 8 0.2 0.18
-4 7 8 0.12 0.23
-4 7 -8 0.59 0.23
-4 -7 8 0.18 0.26
4 7 8 0.2 0.23
-4 7 9 0.02 0.19
4 -7 9 -0.06 0.19
4 7 9 -0.04 0.23
-4 7 -9 0.33 0.25
-4 -7 9 -0.06 0.26
4 -7 10 0.2 0.21
-4 7 10 0.31 0.23
-4 7 -10 0.32 0.25
-4 -7 10 -0.3 0.27
4 7 10 0.01 0.26
4 -7 11 0.24 0.24
4 7 -11 0.2 0.3
-4 7 11 0.21 0.25
-4 -7 11 0.15 0.3
4 7 11 -0.09 0.27
4 7 11 0.23 0.26
4 -7 -11 0.26 0.3
4 7 -12 1.76 0.36
-4 7 12 3.09 0.52
-4 7 12 1.47 0.36
-4 -7 -12 1.76 0.42
4 -7 12 1.68 0.35
-4 -7 12 1.15 0.37
-4 7 -12 1.95 0.35
4 -7 -12 2.02 0.34
4 7 12 1.05 0.37
4 7 12 1.63 0.38
-4 7 13 -0.4 0.33
4 7 -13 -0.05 0.29
-4 7 13 1 0.44
-4 -7 -13 -0.15 0.36
4 -7 13 0.18 0.31
4 -7 13 -0.06 0.29
4 7 13 -0.05 0.35
-4 -7 13 0.21 0.33
-4 -7 13 -0.29 0.33
-4 7 -13 0.34 0.3
4 -7 -13 0.06 0.28
-4 -7 -14 -0.01 0.35
4 7 -14 0.14 0.29
4 -7 14 -0.03 0.27
-4 7 14 1.11 0.47
4 -7 14 -0.03 0.3
4 7 14 0.09 0.33
4 -7 -14 0.23 0.26
4 7 14 -0.46 0.35
-4 -7 14 0.35 0.32
-4 7 -14 0.37 0.29
4 7 -15 0.3 0.29
4 -7 15 0.56 0.29
-4 7 15 1.21 0.45
-4 -7 -15 0.23 0.33
4 -7 -15 0.45 0.27
-4 7 -15 0.48 0.3
-4 -7 15 0.7 0.31
4 7 15 0.31 0.34
-4 7 16 1.1 0.39
4 -7 16 0.3 0.27
-4 -7 -16 0.37 0.3
4 7 -16 0.48 0.27
4 7 16 0.33 0.32
-4 -7 16 0.59 0.29
4 -7 -16 0.2 0.26
-4 7 -16 0.29 0.28
4 7 -17 -0.02 0.22
4 -7 17 0.16 0.24
-4 7 17 0.13 0.31
4 -7 -17 -0.17 0.23
-4 -7 17 0.11 0.24
-4 7 -17 0.1 0.25
4 7 17 -0.16 0.27
4 -7 18 0.16 0.22
-4 7 18 0.17 0.27
4 7 -18 0.4 0.22
-4 -7 18 0.29 0.22
4 -7 -18 -0.07 0.22
-4 7 -18 0.3 0.23
-5 -7 0 13.68 0.94
-5 -7 0 14.45 1.08
5 7 0 13.72 0.9
-5 -7 -1 3.04 0.42
-5 7 1 2.42 0.43
-5 7 1 2.44 0.36
5 -7 1 3.05 0.31
-5 -7 -1 4.12 0.66
5 7 -1 3.83 0.44
-5 7 -1 3.65 0.5
5 7 1 3.4 0.42
-5 -7 1 4.3 0.67
5 7 1 2.79 0.47
-5 -7 1 3.04 0.45
-5 7 2 0.78 0.19
-5 -7 -2 0.98 0.25
-5 7 2 1.48 0.42
5 7 -2 0.91 0.25
5 -7 2 1.33 0.26
-5 -7 -2 1.88 0.48
-5 -7 2 1.96 0.49
-5 -7 2 1.35 0.3
-5 7 -2 0.92 0.26
5 7 2 1.24 0.34
5 7 2 0.8 0.2
5 7 -3 13.13 0.94
-5 -7 -3 12.09 0.89
-5 7 3 12.21 1.04
-5 -7 -3 12.87 1.07
5 -7 3 12.13 0.79
-5 7 3 12.35 0.81
5 7 3 12.74 0.83
-5 -7 3 12.03 0.85
-5 -7 3 12.93 0.95
5 7 3 11.95 0.93
-5 -7 3 14.17 1.09
-5 7 -3 13.37 0.92
-5 7 4 2.33 0.59
5 7 -4 3.12 0.57
5 -7 4 2.7 0.35
-5 7 4 3.05 0.41
-5 -7 -4 2.56 0.55
-5 7 -4 3.22 0.49
-5 -7 4 2.89 0.63
-5 -7 4 2.66 0.39
5 7 4 3.07 0.58
5 7 4 2.81 0.4
-5 -7 4 4.62 0.8
5 -7 5 34.77 1.98
-5 7 5 34.86 1.97
5 7 -5 34.33 2.07
-5 7 5 35.12 1.99
-5 7 -5 34.34 2.01
5 7 5 34.04 1.99
-5 -7 5 29.49 2.17
5 7 5 33.53 2.12
5 7 5 36.32 2.06
-5 7 6 -0.04 0.15
-5 7 6 0.4 0.22
5 -7 6 0.02 0.16
5 7 6 0 0.16
5 7 6 -0.12 0.41
-5 7 -6 0.51 0.26
5 7 6 0.07 0.27
5 -7 7 10.5 0.72
-5 7 7 10.09 0.68
-5 7 7 8.26 0.7
5 7 7 11.22 0.81
-5 7 -7 10.7 0.77
5 -7 8 0.22 0.19
-5 7 8 0.36 0.17
5 7 8 0.03 0.24
-5 -7 8 -0.21 0.26
-5 7 -8 0.78 0.25
-5 7 9 2.05 0.4
5 -7 9 2.41 0.42
5 7 9 1.58 0.31
-5 -7 9 1.13 0.31
5 -7 10 0.64 0.24
-5 7 10 0.9 0.25
5 7 10 0.26 0.26
-5 -7 10 0.11 0.3
-5 7 -10 1.27 0.3
5 -7 11 0.56 0.27
-5 7 11 0.92 0.29
5 7 -11 0.46 0.32
5 7 11 0.79 0.33
-5 7 -11 0.42 0.3
5 7 11 0.77 0.34
-5 -7 11 0.4 0.32
-5 -7 -12 0.92 0.42
5 -7 12 0.33 0.29
5 7 -12 0.52 0.3
-5 7 12 0.37 0.31
5 -7 12 0.32 0.33
5 -7 -12 0.55 0.3
5 7 12 0.13 0.35
-5 7 -12 0.98 0.33
-5 -7 12 0.14 0.33
5 7 12 0.87 0.37
-5 7 13 -0.14 0.33
5 -7 13 0.11 0.29
-5 7 13 1.02 0.42
5 -7 13 0.19 0.32
-5 -7 -13 0.58 0.37
5 7 -13 0.29 0.3
5 -7 -13 0.15 0.27
-5 -7 13 -0.48 0.33
-5 7 -13 0.39 0.31
-5 -7 13 0.31 0.32
5 7 13 -0.16 0.32
5 7 13 -0.27 0.36
5 -7 14 0.68 0.31
-5 -7 -14 0.87 0.37
5 7 -14 0.58 0.3
-5 7 -14 0.92 0.31
5 -7 -14 0.79 0.29
-5 -7 14 1.16 0.34
5 7 14 0.19 0.32
-5 7 15 1.9 0.44
5 7 -15 1.02 0.3
-5 -7 -15 0.09 0.33
5 -7 15 0.85 0.3
-5 7 -15 0.99 0.31
5 7 15 0.5 0.33
-5 -7 15 0.89 0.32
5 -7 -15 0.71 0.29
-5 -7 -16 -0.01 0.29
5 7 -16 0.61 0.26
-5 7 16 1.15 0.38
5 -7 16 0.45 0.26
-5 7 -16 0.4 0.28
5 -7 -16 0.27 0.26
5 7 16 0.11 0.31
-5 -7 16 0.74 0.29
5 -7 17 0.66 0.25
-5 7 17 1.3 0.34
5 7 -17 0.99 0.25
5 -7 -17 0.59 0.24
-5 -7 17 0.98 0.26
5 7 17 0.79 0.29
-5 7 -17 0.93 0.26
-5 7 18 0.02 0.26
5 7 -18 0.04 0.22
5 -7 -18 -0.19 0.21
-5 7 -18 0.07 0.22
-5 -7 18 0.18 0.22
-6 -7 0 0.24 0.44
6 7 0 0.1 0.18
-6 -7 0 -0.06 0.21
-6 7 1 95.27 5.62
6 -7 1 102.09 5.62
6 7 -1 104.11 5.67
-6 -7 -1 103.67 5.79
-6 -7 -1 101.21 5.72
6 7 1 98.16 5.7
6 7 1 100.08 5.65
-6 7 -1 94.76 5.65
-6 -7 1 101.32 5.73
-6 -7 1 101.85 5.78
-6 -7 -2 -0.04 0.22
-6 -7 -2 0.28 0.44
-6 7 2 -0.05 0.15
6 -7 2 -0.05 0.13
6 7 -2 0.07 0.22
-6 7 2 0.14 0.25
-6 -7 2 0.72 0.47
6 7 2 0.07 0.18
-6 7 -2 0.37 0.24
-6 -7 2 -0.04 0.25
6 7 2 -0.12 0.3
-6 -7 -3 107.21 6.29
6 7 -3 110.62 6.17
-6 7 3 107.9 6.11
6 -7 3 114.62 6.11
-6 -7 3 107.63 6.23
6 7 3 107.64 6.2
6 7 3 113.82 6.14
-6 -7 3 107.53 6.25
-6 -7 3 104.11 6.17
-6 7 -3 107.56 6.14
-6 7 4 6.1 0.51
6 7 -4 6.1 0.67
6 -7 4 6.61 0.47
6 7 4 6.97 0.68
6 7 4 6.99 0.7
-6 7 -4 4.29 0.8
-6 7 -4 6.62 0.63
6 7 4 6.29 0.52
-6 -7 4 4.87 0.7
6 7 -5 45.7 2.79
6 -7 5 50.86 2.72
-6 7 5 47.76 2.71
-6 7 5 46.09 2.71
6 7 5 48.13 2.73
6 7 5 49.73 2.8
-6 7 -5 44.19 2.75
6 -7 6 13.44 0.84
-6 7 6 12.84 0.82
-6 7 -6 12.64 0.9
6 7 6 12.69 0.85
6 7 6 13.13 0.95
-6 7 7 1.97 0.31
6 -7 7 1.73 0.35
6 7 7 1.75 0.34
6 7 7 1.46 0.32
6 -7 8 1.21 0.24
-6 7 8 1.7 0.33
6 7 8 1.18 0.28
-6 7 9 10.4 0.74
6 -7 9 9.87 0.78
6 7 9 9.32 0.83
-6 7 -9 11.61 0.81
6 -7 10 0.77 0.27
6 7 -10 0.2 0.32
-6 7 10 0.7 0.24
6 7 10 0.32 0.28
6 -7 -10 -0.03 0.26
-6 7 -10 1.07 0.31
6 7 10 0.4 0.32
-6 7 11 17.05 1.16
6 -7 11 17.02 1.18
6 7 -11 18.3 1.11
6 7 11 17.18 1.25
6 -7 -11 17.25 1.08
6 7 11 16.57 1.13
-6 7 -11 16.44 1.17
-6 7 12 1.51 0.35
-6 -7 -12 2.01 0.46
6 -7 12 1.16 0.33
6 7 -12 1.31 0.36
6 -7 12 1.39 0.36
6 -7 -12 1.81 0.34
6 7 12 1.13 0.4
6 7 12 1.46 0.37
-6 7 -12 1.68 0.38
-6 7 13 5.04 0.73
6 7 -13 6.84 0.56
6 -7 13 6.51 0.56
-6 -7 -13 6.23 0.6
6 7 13 6.29 0.85
-6 -7 13 5.53 0.53
6 -7 -13 6.14 0.51
-6 7 -13 4.8 0.51
6 7 13 5.09 0.57
-6 7 14 1.43 0.42
6 7 -14 0.57 0.31
-6 -7 -14 0.29 0.37
6 -7 14 0.42 0.31
-6 7 -14 0.63 0.31
-6 -7 14 0.92 0.33
6 7 14 -0.23 0.37
6 7 14 0.62 0.32
6 -7 -14 0.87 0.29
-6 -7 -15 4.03 0.47
6 7 -15 4.62 0.45
-6 7 15 4.55 0.56
6 -7 15 4.67 0.45
-6 7 -15 4.32 0.46
6 -7 -15 4.51 0.43
-6 -7 15 4.5 0.46
6 7 15 4.43 0.53
6 -7 16 1.82 0.33
-6 7 16 2.27 0.42
6 7 -16 1.94 0.31
6 -7 -16 1.76 0.33
-6 -7 16 2.06 0.33
-6 7 -16 1.81 0.32
6 7 16 1.93 0.34
-6 7 17 1.62 0.34
6 7 -17 1.66 0.28
6 -7 -17 1.67 0.28
6 7 17 1.61 0.29
-6 7 -17 1.52 0.29
-6 -7 17 1.48 0.28
-6 7 18 1.44 0.28
6 7 -18 1.39 0.25
-6 7 -18 1.13 0.25
6 -7 -18 1.12 0.24
-7 -7 0 12.16 0.97
7 7 0 14.44 0.9
-7 -7 0 14.59 1.15
7 7 -1 0.29 0.2
-7 -7 -1 0.07 0.22
-7 -7 -1 0.28 0.47
-7 -7 1 0.11 0.24
7 7 1 0.38 0.19
-7 7 -1 0.51 0.25
-7 7 -1 0.13 0.42
-7 -7 1 0.17 0.44
7 7 -2 4.18 0.53
7 -7 2 4.47 0.34
-7 7 2 3.6 0.38
-7 -7 -2 2.96 0.6
-7 -7 2 3 0.51
-7 7 -2 2.47 0.6
-7 -7 2 3.74 0.45
7 7 2 4.18 0.52
-7 -7 2 3.56 0.62
-7 7 -2 4.29 0.54
7 7 2 3.53 0.43
7 -7 3 16.88 1.06
7 7 -3 19.16 1.19
-7 7 3 17.63 1.07
7 7 3 16.12 1.18
-7 7 -3 20.02 1.16
7 7 3 16.51 1.1
-7 7 4 4.36 0.41
7 -7 4 4.72 0.38
7 7 -4 3.87 0.58
-7 7 -4 4.32 0.55
7 7 4 3.81 0.43
7 7 4 4.56 0.65
-7 7 5 95.71 5.35
7 -7 5 93.73 5.36
7 7 -5 94.03 5.43
7 7 5 94.63 5.43
7 7 5 97.66 5.38
-7 7 -5 94.93 5.39
7 -7 6 0.11 0.16
-7 7 6 0.42 0.16
-7 7 -6 0.56 0.21
7 7 6 0.41 0.29
7 7 6 0.36 0.18
-7 7 7 56.12 3.19
7 -7 7 57 3.22
-7 7 -7 52.85 3.22
7 7 7 58.22 3.29
7 7 7 55.9 3.22
7 -7 8 0.7 0.23
-7 7 8 1.02 0.21
7 7 8 0.8 0.31
-7 7 -8 1.55 0.3
-7 7 9 28.3 1.72
7 -7 9 30.1 1.76
7 7 9 28.57 1.81
-7 7 -9 27.63 1.77
-7 7 10 0.08 0.24
7 -7 10 0.08 0.26
7 7 -10 -0.51 0.31
7 -7 -10 -0.07 0.26
7 -7 -10 -0.09 0.31
7 7 10 -0.07 0.35
7 7 10 -0.04 0.29
-7 7 -10 0.39 0.31
7 -7 11 3.85 0.6
-7 7 11 3.37 0.57
7 7 -11 2.92 0.49
-7 -7 -11 4.03 0.62
-7 7 -11 4.21 0.68
7 7 11 3.49 0.49
7 -7 -11 3.87 0.49
7 7 11 3.47 0.46
7 -7 -11 4.78 0.48
-7 7 -11 3.52 0.48
-7 7 12 3.35 0.64
-7 7 12 5.31 0.56
7 -7 12 4.11 0.56
-7 -7 -12 5.25 0.62
7 7 -12 4.23 0.51
-7 7 -12 5.01 0.54
7 -7 -12 4.95 0.51
7 7 12 4.38 0.79
7 -7 -12 5.46 0.52
7 7 12 3.98 0.56
7 -7 13 1.3 0.35
7 -7 13 1.69 0.36
7 7 13 1.48 0.36
7 7 13 0.8 0.42
7 -7 14 6.29 0.58
-7 -7 -14 8.02 0.63
7 -7 14 7.59 0.61
7 7 -14 7.45 0.6
-7 7 14 7.2 0.66
7 -7 -14 7.61 0.57
7 7 14 7.34 0.64
-7 7 -14 7.8 0.59
7 7 -15 6.67 0.51
7 -7 15 5.54 0.49
-7 7 15 5.6 0.59
-7 -7 -15 5.43 0.51
-7 7 -15 6.76 0.49
-7 -7 15 5.09 0.48
7 -7 -15 5.65 0.48
7 7 15 5.78 0.55
7 7 -16 1.18 0.26
-7 7 16 1.58 0.37
-7 7 -16 1.47 0.28
7 7 16 1.12 0.3
7 -7 -16 1.63 0.31
-7 -7 16 1.1 0.27
7 7 -17 5.98 0.44
-7 7 17 5.71 0.47
-7 7 -17 6.06 0.44
7 -7 -17 5.23 0.43
7 7 17 5.88 0.47
-8 7 0 -0.12 0.19
8 7 0 0.01 0.19
8 7 -1 21.18 1.31
8 7 1 21.65 1.31
-8 7 -1 20.48 1.31
-8 7 2 -0.01 0.15
8 7 -2 0.04 0.2
8 7 2 -0.01 0.15
-8 7 -2 0.13 0.24
8 7 -3 29.55 1.71
8 -7 3 27.04 1.6
-8 7 3 26.32 1.6
-8 7 -3 27.11 1.67
8 7 3 27.38 1.64
8 7 -4 5.14 0.59
8 -7 4 5.27 0.42
-8 7 4 4.98 0.41
8 7 4 4.71 0.67
8 7 4 4.77 0.47
-8 7 -4 5.04 0.52
8 -7 5 7.88 0.56
8 7 -5 6.9 0.71
-8 7 5 7.56 0.55
8 7 5 7.78 0.61
8 7 5 8.37 0.78
-8 7 -5 7.92 0.66
-8 7 6 0.82 0.18
8 -7 6 0.85 0.19
8 7 6 0.5 0.2
-8 7 -6 0.94 0.24
8 7 6 0.35 0.33
-8 7 7 0.39 0.18
8 -7 7 0.24 0.18
8 7 7 0.31 0.19
8 7 7 -0.02 0.31
-8 7 -7 0.76 0.25
8 -7 8 0.18 0.21
-8 7 8 0.61 0.2
-8 7 -8 0.69 0.27
8 7 8 0.27 0.33
8 -7 9 1.6 0.31
8 -7 9 2.08 0.33
8 7 -9 2.32 0.46
-8 7 9 2.35 0.46
8 7 9 1.25 0.33
-8 7 -9 3.15 0.56
8 7 9 1.94 0.42
8 -7 -9 2.61 0.4
8 7 -10 -0.44 0.32
-8 7 10 0.11 0.25
8 -7 10 -0.59 0.32
-8 -7 -10 0.33 0.52
8 -7 10 0.07 0.27
8 -7 -10 0.09 0.33
-8 -7 10 0.8 0.36
-8 7 -10 0.29 0.31
8 7 10 -0.07 0.33
8 7 10 0.14 0.36
8 -7 -10 0.01 0.28
8 7 -11 3.2 0.5
-8 7 11 2.74 0.58
-8 -7 -11 4.73 0.62
8 -7 11 3.31 0.54
-8 7 -11 3.66 0.48
8 7 11 2.88 0.51
8 -7 -11 3.73 0.49
8 -7 -11 3.37 0.46
-8 7 -11 3.41 0.64
8 7 11 3.12 0.45
-8 7 12 0.4 0.32
-8 -7 -12 2.04 0.48
8 -7 12 0.5 0.34
8 7 -12 0.67 0.33
-8 7 12 1.61 0.37
8 -7 -12 1.17 0.33
8 7 12 0.88 0.35
8 7 12 0.51 0.42
-8 7 -12 1.63 0.39
8 -7 -12 1 0.31
8 -7 13 2.81 0.39
8 7 -13 2.2 0.38
-8 -7 -13 2.75 0.51
-8 7 13 3.5 0.5
8 -7 -13 2.57 0.4
-8 7 -13 2.66 0.44
8 7 13 2 0.47
8 7 13 3.05 0.42
8 -7 14 0.89 0.31
-8 -7 -14 1.22 0.38
-8 7 14 1.68 0.39
8 7 -14 1.46 0.31
-8 -7 14 1.51 0.34
8 -7 -14 1 0.29
8 7 14 1.43 0.33
-8 7 15 2.04 0.39
8 -7 15 1.5 0.28
8 7 -15 1.35 0.28
-8 7 -15 1.72 0.31
8 -7 -15 1.58 0.29
8 7 15 1.74 0.32
8 7 -16 0.93 0.24
-8 7 16 1.27 0.34
-8 7 -16 1.06 0.26
8 7 16 0.7 0.26
8 -7 -16 1.25 0.25
8 7 -17 0.65 0.24
-8 7 17 0.72 0.28
-8 7 -17 0.48 0.23
8 -7 -17 0.62 0.23
8 7 17 0.58 0.25
-9 7 0 0.93 0.23
9 7 -1 0.48 0.22
9 7 1 0.52 0.19
-9 7 -1 0.37 0.23
-9 7 2 0.01 0.15
9 7 -2 -0.08 0.21
-9 7 -2 0.17 0.23
9 7 2 -0.01 0.16
9 7 -3 3.02 0.49
-9 7 3 1.94 0.3
9 7 3 2.85 0.35
-9 7 -3 3.09 0.49
9 7 -4 2.96 0.5
9 -7 4 2.82 0.33
-9 7 4 2.89 0.34
-9 7 -4 3.1 0.5
9 7 4 3 0.4
-9 7 5 3.97 0.4
9 -7 5 3.99 0.4
9 7 5 4.09 0.44
9 7 5 3.84 0.67
-9 7 -5 4.17 0.53
-9 7 6 0.2 0.16
9 -7 6 0.13 0.16
-9 7 -6 0.25 0.23
9 7 6 0.09 0.18
9 7 6 0.13 0.37
9 -7 7 4.16 0.47
-9 7 7 4.49 0.48
-9 7 -7 4.44 0.56
9 7 7 4.43 0.79
9 7 7 4.59 0.49
9 7 -8 -0.13 0.33
9 -7 8 0.02 0.3
9 -7 8 0.24 0.21
-9 7 8 0.29 0.21
9 7 8 -0.28 0.36
-9 7 -8 0.39 0.29
-9 -7 8 0.39 0.32
9 -7 -8 0.28 0.25
9 7 -9 1.04 0.39
-9 -7 -9 1.34 0.55
9 -7 9 1.11 0.35
-9 7 9 1.27 0.29
-9 7 -9 1.39 0.34
9 7 9 1.72 0.43
9 -7 -9 0.93 0.38
9 -7 -9 1.64 0.32
9 7 9 0.67 0.39
9 7 -10 -0.38 0.32
9 -7 10 -0.31 0.33
-9 7 10 -0.04 0.27
9 7 10 -0.28 0.38
9 7 10 0.28 0.37
9 -7 -10 -0.08 0.34
9 -7 -10 -0.09 0.27
-9 7 -10 -0.5 0.42
-9 7 -10 0.12 0.32
9 7 -11 -0.05 0.33
-9 7 11 0.42 0.31
9 -7 11 0.57 0.33
9 7 11 0.38 0.42
9 7 11 0.61 0.36
-9 7 -11 1 0.4
9 -7 -11 0.34 0.33
-9 7 -11 0.37 0.34
9 -7 -11 0.71 0.28
-9 7 12 1.44 0.36
9 -7 12 0.62 0.32
9 7 -12 0.76 0.34
-9 -7 -12 1.76 0.46
-9 7 -12 1.56 0.37
9 7 12 0.39 0.41
9 -7 -12 0.98 0.33
9 7 12 0.87 0.35
-9 -7 -13 0.17 0.4
-9 7 13 0.96 0.35
9 -7 13 -0.15 0.29
9 7 -13 -0.18 0.27
9 -7 -13 0.13 0.28
9 7 13 -0.14 0.33
-9 7 -13 0.61 0.33
9 7 13 -0.02 0.31
9 -7 14 1.34 0.3
-9 -7 -14 0.76 0.35
9 7 -14 1.19 0.29
-9 7 14 1.86 0.38
9 7 14 1.2 0.31
9 -7 -14 1.66 0.33
-9 7 -14 1.97 0.34
9 7 -15 0.23 0.22
-9 7 15 0.41 0.33
9 -7 15 0.25 0.24
9 7 15 0.13 0.26
9 -7 -15 0.25 0.23
-9 7 -15 0.36 0.27
-9 7 16 0.38 0.29
9 7 -16 0.57 0.22
9 7 16 -0.08 0.23
9 -7 -16 0.38 0.22
-9 7 -16 0.34 0.24
10 7 0 -0.02 0.18
10 7 -1 37.51 2.19
-10 7 1 36.58 2.12
-10 7 -1 35.27 2.16
10 7 1 36.64 2.17
-10 7 2 0.52 0.17
10 7 -2 0.62 0.25
-10 7 -2 0.55 0.25
10 7 2 0.66 0.19
10 7 -3 30.63 1.86
10 7 3 29.49 1.79
-10 7 -3 29.53 1.82
10 7 -4 2.92 0.54
-10 7 4 3.54 0.36
-10 7 -4 3.45 0.54
10 7 4 2.94 0.42
10 -7 5 3.25 0.35
10 7 5 3.45 0.48
-10 7 6 1.33 0.24
-10 7 -6 0.98 0.27
10 7 6 1.01 0.43
10 7 6 1.13 0.25
-10 7 7 3.61 0.47
10 7 -7 3.95 0.47
10 -7 7 3.38 0.47
10 -7 -7 3.24 0.42
10 7 7 2.16 0.52
-10 -7 7 2.95 0.53
-10 7 -7 4.37 0.58
-10 7 8 2.9 0.48
10 7 -8 2.51 0.44
10 -7 8 2.9 0.4
-10 7 -8 3.65 0.63
-10 -7 8 3.77 0.52
10 -7 -8 2.53 0.43
10 7 8 2.03 0.51
-10 -7 -9 15.98 1.06
10 -7 9 13.34 0.96
-10 7 9 13.08 0.98
10 7 -9 15.03 0.97
10 -7 -9 12.44 0.98
-10 -7 9 13.48 0.96
10 7 9 14.14 1.05
10 -7 -9 12.71 0.91
-10 7 -9 15.25 1.06
10 7 9 12.95 1.23
-10 7 10 0.04 0.29
10 7 -10 -0.49 0.32
10 -7 10 0.35 0.31
10 -7 -10 0.19 0.26
10 7 10 0.11 0.42
-10 7 -10 1.03 0.47
10 -7 -10 0.09 0.35
-10 7 -10 0.31 0.34
10 7 10 0.32 0.39
10 7 -11 10.86 0.81
-10 7 11 10.4 0.76
10 -7 11 8.91 0.76
-10 -7 -11 11.64 0.88
-10 7 11 8.41 0.85
10 -7 -11 11.2 0.8
-10 -7 11 11.74 0.8
10 7 11 10.79 0.84
10 7 11 9.51 1.06
-10 7 -11 11.38 0.8
-10 -7 -12 1.64 0.46
10 7 -12 0.33 0.31
-10 7 12 1.31 0.35
10 -7 12 0.39 0.29
-10 7 -12 1.2 0.37
10 7 12 0.37 0.37
10 7 12 0.74 0.35
10 -7 -12 0.94 0.32
10 7 -13 6.98 0.57
-10 7 13 7.21 0.61
-10 -7 -13 6.05 0.65
10 -7 13 7.21 0.59
-10 -7 13 8.19 0.58
-10 7 -13 7.14 0.59
10 -7 -13 7.35 0.59
10 7 13 7.29 0.63
10 7 -14 0.15 0.23
-10 7 14 0.48 0.34
10 -7 14 0.08 0.25
-10 7 -14 0.43 0.29
10 7 14 -0.16 0.26
10 -7 -14 0 0.24
-10 7 15 2.77 0.39
10 7 -15 3.04 0.33
10 -7 15 3.4 0.34
10 7 15 3.45 0.39
-10 7 -15 2.75 0.34
-10 -7 15 2.37 0.31
10 -7 -15 3.27 0.34
-10 7 16 0.07 0.27
10 7 -16 0.53 0.22
-10 7 -16 -0.05 0.23
10 -7 -16 0.07 0.22
10 7 16 -0.01 0.23
11 7 0 1.91 0.31
-11 7 1 0.34 0.18
11 7 -1 0.37 0.23
11 7 1 0.58 0.22
-11 7 -1 -0.05 0.24
11 7 -2 0.43 0.25
-11 7 -2 0.19 0.27
11 7 2 0.48 0.2
11 7 -3 24.03 1.58
-11 7 3 24.5 1.46
11 7 3 23.73 1.51
-11 7 -3 25.41 1.56
11 7 -4 0.31 0.25
-11 7 4 0.77 0.19
11 7 4 0.46 0.2
-11 7 -4 0.62 0.29
-11 7 5 61.04 3.46
11 7 -5 58.79 3.45
-11 7 -5 60.64 3.52
11 7 5 61.17 3.5
11 -7 6 0.2 0.29
11 7 -6 0.03 0.31
-11 7 6 0.32 0.22
-11 -7 -6 0.67 0.4
11 -7 -6 0.17 0.23
11 7 6 0.32 0.21
-11 -7 6 0.37 0.31
11 7 6 -0.2 0.3
-11 7 -6 0.15 0.29
11 -7 7 31.37 1.8
-11 -7 -7 29.49 1.83
11 7 -7 32.86 1.82
-11 7 7 31.78 1.82
-11 7 -7 31.91 1.9
11 -7 -7 30.24 1.8
-11 -7 7 25.65 1.79
11 7 7 27.35 2.01
-11 7 8 0.37 0.26
11 7 -8 0.25 0.35
11 -7 8 0.37 0.33
11 7 8 0.29 0.44
11 -7 -8 0.42 0.27
11 7 8 0.25 0.29
11 -7 -8 0.32 0.35
-11 7 -8 0.3 0.33
11 -7 9 16.62 1.07
11 7 -9 15.17 1.09
-11 -7 -9 16.72 1.17
-11 7 9 15.71 1.11
11 7 9 16.43 1.17
11 -7 -9 15.93 1.11
-11 -7 9 14.82 1.07
-11 7 -9 17.02 1.19
11 7 9 15.93 1.36
11 -7 -9 17.79 1.05
11 -7 10 0.43 0.31
11 7 -10 0.18 0.33
-11 7 -10 0.5 0.35
11 7 10 0.73 0.42
11 -7 -10 0.59 0.37
11 7 10 0.52 0.44
-11 7 -10 1.48 0.47
11 7 -11 4.48 0.56
-11 -7 -11 5.77 0.67
-11 7 11 6.05 0.56
11 -7 11 5.65 0.54
-11 7 -11 5.55 0.6
11 7 11 5.83 0.65
11 -7 -11 5.99 0.59
-11 -7 11 6.64 0.57
11 -7 12 0.15 0.27
-11 7 12 0.46 0.32
-11 -7 -12 -0.16 0.41
11 7 -12 -0.18 0.27
11 7 12 -0.14 0.32
11 -7 -12 0.02 0.29
-11 7 -12 0.4 0.36
11 -7 13 0.23 0.25
11 7 -13 0.55 0.25
-11 7 13 0.73 0.33
-11 7 -13 1.16 0.33
11 7 13 0.43 0.29
11 -7 -13 0.56 0.27
11 -7 14 0.11 0.22
-11 7 14 0.23 0.31
11 7 -14 0.33 0.22
-11 7 -14 0.19 0.27
11 7 14 0.21 0.26
11 -7 -14 0.18 0.22
11 -7 15 1.87 0.28
-11 7 15 1.88 0.35
-11 7 -15 2.69 0.32
11 7 15 2.06 0.34
11 -7 -15 2.07 0.29
12 7 0 0.03 0.24
-12 7 -1 4.11 0.58
12 7 -2 0.27 0.27
12 7 -2 0.3 0.19
12 7 2 0.39 0.23
-12 7 -2 -0.06 0.28
12 7 -3 5.55 0.48
12 7 -3 5.6 0.65
-12 -7 -3 5.19 0.52
12 7 3 5.48 0.57
-12 7 -3 4.99 0.7
12 7 -4 0.7 0.28
12 -7 4 0.05 0.2
-12 -7 -4 1.39 0.35
-12 7 4 0.55 0.18
-12 7 -4 0.57 0.32
12 7 4 0.47 0.22
-12 7 5 1.28 0.25
12 -7 5 1.36 0.32
12 7 -5 1.73 0.35
-12 7 -5 1.11 0.36
12 7 5 0.89 0.24
12 7 -6 0.38 0.3
12 -7 6 0.46 0.3
-12 7 6 0.44 0.23
12 -7 -6 0.66 0.3
-12 -7 6 0.59 0.32
-12 7 -6 0.44 0.32
12 -7 7 0.52 0.32
12 7 -7 0.71 0.35
12 -7 -7 0.5 0.29
-12 7 -7 0.41 0.34
-12 -7 7 1.22 0.33
12 7 -8 3.1 0.52
12 -7 8 3.94 0.53
12 -7 -8 4.39 0.47
12 -7 -8 3.29 0.56
-12 -7 8 4.79 0.52
-12 7 -8 2.57 0.45
12 -7 9 1.69 0.35
12 7 -9 2.23 0.42
-12 7 -9 1.34 0.39
12 7 9 1.77 0.48
-12 7 -9 0.65 0.52
12 -7 -9 1.66 0.41
-12 -7 -10 1.31 0.52
-12 7 10 0.33 0.33
12 7 10 -0.11 0.39
-12 7 -10 0.64 0.44
-12 -7 10 1.02 0.3
-12 -7 -11 3.69 0.6
-12 7 11 3.6 0.47
12 7 -11 3.7 0.49
12 -7 11 3.61 0.47
-12 -7 -11 3.21 0.64
12 7 11 3.67 0.56
12 -7 -11 3.73 0.49
-12 7 -11 4.12 0.52
12 7 -12 -0.01 0.26
12 -7 12 -0.02 0.24
-12 7 12 0.44 0.33
12 7 12 -0.18 0.31
-12 7 -12 0.46 0.34
12 -7 -12 0.14 0.27
12 7 -13 5.25 0.45
12 -7 13 4.58 0.42
-12 7 13 3.85 0.48
12 7 13 4.76 0.49
12 -7 -13 4.9 0.45
-12 7 -13 4.73 0.45
-12 -7 13 5.5 0.44
12 7 -14 0.2 0.21
12 -7 14 -0.09 0.2
-12 7 14 -0.03 0.31
-12 7 -14 -0.14 0.25
12 7 14 0.06 0.25
-12 -7 14 0.5 0.23
12 -7 -14 -0.19 0.23
12 7 -15 2.82 0.23
12 -7 15 3.06 0.29
12 7 -15 2.98 0.33
12 7 15 3.17 0.38
12 -7 -15 3.12 0.33
13 -7 0 0.09 0.15
13 7 0 -0.02 0.22
13 7 0 0.03 0.27
13 -7 1 0.23 0.16
13 7 -1 -0.06 0.22
13 7 -1 0.03 0.28
13 7 1 -0.03 0.25
13 7 1 -0.04 0.22
13 -7 -1 0.11 0.13
13 7 -2 0.13 0.3
13 7 -2 0.01 0.23
13 7 2 -0.07 0.24
13 7 2 0.19 0.23
13 -7 -2 0.12 0.12
13 7 -3 0.12 0.26
-13 -7 -3 0.87 0.33
13 7 -3 -0.03 0.25
13 -7 -3 -0.06 0.12
13 7 3 0.14 0.22
13 7 3 0.57 0.23
-13 7 -3 -0.34 0.32
13 7 -4 0.05 0.27
-13 -7 -4 1.08 0.36
13 -7 4 0.25 0.26
-13 7 -4 -0.45 0.32
13 -7 -4 0.03 0.12
13 7 4 0.32 0.24
13 -7 5 -0.11 0.29
13 7 -5 0.01 0.27
-13 -7 5 0.01 0.3
-13 7 -5 0.04 0.33
13 -7 -5 -0.06 0.22
13 -7 -5 0.15 0.13
13 7 -6 0.28 0.3
13 -7 6 0.75 0.3
13 7 -6 0.31 0.16
-13 7 -6 0.13 0.35
13 -7 -6 0.43 0.15
-13 -7 6 0.63 0.32
13 7 -7 0.34 0.32
13 -7 7 -0.05 0.3
13 7 -7 0.27 0.21
-13 -7 7 0.59 0.31
13 -7 -7 0.17 0.16
-13 7 -7 0.09 0.35
13 -7 -7 0.18 0.29
13 7 -8 -0.16 0.32
13 7 -8 -0.04 0.22
13 -7 8 0.29 0.29
13 -7 -8 0.24 0.16
13 -7 -8 0.32 0.35
-13 7 -8 0.04 0.35
13 -7 9 0.19 0.28
13 7 -9 -0.13 0.32
13 7 -9 0.01 0.22
13 -7 -9 -0.02 0.35
-13 -7 9 0.85 0.31
13 -7 -9 0.15 0.14
13 7 9 0.4 0.43
13 7 -10 0.34 0.22
-13 7 10 0.24 0.32
13 -7 10 0.3 0.27
-13 -7 -10 0.95 0.48
13 7 -10 0.37 0.3
13 -7 -10 0.55 0.34
13 -7 -10 0.19 0.17
-13 7 -10 0.43 0.42
13 7 10 0.11 0.38
13 -7 11 -0.07 0.24
13 7 -11 0.1 0.19
13 7 -11 -0.16 0.27
-13 -7 -11 0.69 0.51
-13 7 11 -0.01 0.32
13 -7 -11 -0.01 0.29
13 7 11 -0.1 0.33
-13 7 -11 0.16 0.36
13 7 -12 0.47 0.25
13 7 -12 0.57 0.17
-13 7 12 0.22 0.3
13 -7 12 0.25 0.21
13 7 12 0.38 0.31
-13 7 -12 0.83 0.33
13 -7 -12 0.43 0.27
13 -7 13 0.15 0.2
-13 7 13 -0.14 0.29
13 7 -13 0.24 0.22
13 7 -13 0.29 0.14
-13 7 -13 -0.03 0.28
13 -7 -13 0.18 0.24
13 7 13 0.07 0.28
13 -7 14 0.17 0.19
13 7 -14 0.58 0.22
13 7 -14 0.49 0.13
-13 -7 14 0.49 0.23
13 7 14 0.2 0.28
13 -7 -14 0.27 0.25
14 7 0 -0.03 0.22
14 7 0 0.15 0.28
14 -7 0 -0.04 0.18
14 7 -1 16.26 1.08
14 7 -1 19.15 1.3
14 -7 -1 16.11 1.03
14 7 1 16.82 1.08
14 7 1 19.18 1.25
14 7 -2 0.13 0.23
14 7 -2 -0.01 0.29
14 7 2 0.19 0.22
14 -7 -2 0.03 0.16
14 7 2 0.26 0.25
-14 -7 -3 9.18 0.71
14 7 -3 8.19 0.62
14 -7 -3 7.94 0.55
14 7 -4 0.03 0.24
14 -7 4 -0.07 0.25
-14 -7 -4 0.83 0.37
14 -7 -4 -0.03 0.17
14 7 -5 0.65 0.3
14 -7 5 0.6 0.28
14 -7 -5 0.57 0.18
-14 7 -5 0.07 0.35
-14 -7 5 0.37 0.31
14 7 -6 0.74 0.2
14 7 -6 0.16 0.3
14 -7 6 0.26 0.28
14 -7 -6 0.25 0.17
-14 -7 6 0.54 0.3
-14 7 -6 -0.08 0.34
14 7 -7 4.9 0.55
14 -7 7 4.43 0.51
14 7 -7 5.31 0.4
14 -7 -7 4.14 0.38
-14 -7 7 4.98 0.54
14 7 -8 3.39 0.37
14 7 -8 3.5 0.5
14 -7 8 3.61 0.47
14 -7 -8 4.01 0.55
-14 -7 8 4.34 0.49
14 -7 -8 3.2 0.33
-14 -7 -9 7.1 0.72
14 7 -9 7.62 0.52
14 -7 9 6.49 0.59
14 7 -9 6.96 0.62
14 -7 -9 7.2 0.66
-14 -7 9 7.51 0.61
14 7 -10 0.86 0.2
-14 -7 -10 0.1 0.44
14 7 -10 0.5 0.29
14 -7 10 0.68 0.25
14 7 10 0.64 0.36
-14 7 -10 -0.29 0.39
14 -7 -10 0.77 0.33
-14 -7 10 1.29 0.29
14 7 -11 5.6 0.48
14 -7 11 5.27 0.45
-14 -7 -11 4.53 0.59
14 7 -11 6 0.41
14 7 11 5.62 0.55
14 -7 -11 5.99 0.52
-14 7 -11 4.32 0.51
-14 -7 11 5.74 0.48
14 7 -12 0.27 0.15
14 7 -12 0.34 0.23
14 -7 12 0.01 0.2
14 -7 -12 0.23 0.27
-14 -7 12 0.71 0.23
14 7 12 0.14 0.3
14 7 -13 3.49 0.27
14 -7 13 3.48 0.34
14 7 -13 3.93 0.36
-14 -7 13 4.11 0.36
14 -7 -13 3.58 0.39
14 7 13 3.95 0.41
15 7 0 0.87 0.24
15 -7 0 0.69 0.19
15 7 -1 2.66 0.37
15 -7 -1 3.34 0.32
15 7 1 3.28 0.37
-15 -7 -2 0.79 0.3
15 7 -2 0.3 0.23
15 7 2 0.39 0.21
15 -7 -2 0.24 0.17
15 7 -3 33.21 1.83
-15 -7 -3 28.51 1.83
15 -7 -3 30.68 1.76
15 -7 4 0.89 0.26
-15 -7 -5 51.63 2.94
15 7 -5 54.07 2.95
15 -7 5 55.26 2.91
15 -7 -5 50.92 2.88
-15 -7 5 42.84 2.92
15 7 -6 0.96 0.2
15 7 -6 1.13 0.32
15 -7 6 1.15 0.28
-15 -7 6 1.29 0.34
15 -7 -6 1.12 0.2
15 -7 7 20.76 1.21
15 7 -7 20.49 1.25
15 7 -7 20.22 1.16
-15 -7 -7 20.16 1.28
-15 -7 7 17.49 1.22
15 -7 -7 18.89 1.15
15 7 -8 0.3 0.18
15 -7 8 0.16 0.25
15 7 -8 0.33 0.28
-15 -7 -8 0.91 0.43
-15 -7 8 0.61 0.29
15 -7 -8 0.16 0.17
15 -7 -8 0.16 0.33
-15 -7 -9 6.32 0.7
15 -7 9 8.81 0.6
15 7 -9 7.72 0.61
15 7 -9 8.1 0.53
-15 -7 9 8.14 0.62
15 -7 -9 6.82 0.5
15 -7 -9 9.08 0.67
15 7 -10 1.72 0.35
-15 -7 -10 2.8 0.55
15 7 -10 1.98 0.25
15 -7 10 1.85 0.33
-15 -7 10 2.45 0.36
15 -7 -10 2.14 0.37
15 -7 11 3.38 0.37
15 7 -11 3.66 0.39
15 7 -11 3.23 0.29
15 -7 -11 4.26 0.44
-15 -7 11 4.24 0.38
15 7 -12 1.17 0.15
15 -7 12 1.56 0.23
15 7 -12 1.8 0.29
15 -7 -12 1.3 0.3
16 7 0 0.16 0.21
-16 -7 -1 28.45 1.85
16 7 -1 33.45 1.85
16 -7 -1 32.37 1.8
16 7 1 31.58 1.84
16 7 -2 0.76 0.25
-16 -7 -2 1.29 0.32
16 -7 -2 0.78 0.19
16 7 -3 17.91 1.11
-16 -7 -3 17.5 1.15
16 -7 -3 17.69 1.05
-16 -7 -4 1.07 0.36
16 7 -4 0.36 0.24
16 -7 -4 0.22 0.17
16 7 -5 4.01 0.45
16 -7 5 4.25 0.41
-16 -7 -5 5.28 0.57
16 -7 -5 3.85 0.35
16 7 -6 0.57 0.25
16 7 -6 0.54 0.16
16 -7 6 0.53 0.24
-16 -7 6 0.33 0.29
16 -7 -6 0.71 0.18
16 7 -7 0.88 0.18
16 -7 7 0.34 0.24
-16 -7 -7 1.23 0.41
16 7 -7 0.67 0.26
16 -7 -7 0.76 0.18
-16 -7 7 0.57 0.3
16 -7 8 2.69 0.36
16 7 -8 2.57 0.39
-16 -7 -8 2.49 0.45
16 7 -8 2.41 0.26
16 -7 -8 2.59 0.27
-16 -7 8 2.61 0.42
16 7 -9 1.81 0.22
16 -7 9 1.35 0.26
-16 -7 -9 2.72 0.51
16 7 -9 1.93 0.35
-16 -7 9 1.64 0.3
16 -7 10 0.03 0.21
-16 -7 -10 -0.35 0.35
16 7 -10 0.11 0.11
16 7 -10 0.24 0.23
-16 -7 10 0.5 0.24
16 7 -11 5.08 0.41
16 -7 11 4.37 0.4
-16 -7 11 5.34 0.43
17 7 0 0.12 0.2
-17 -7 0 -0.05 0.25
-17 -7 -1 0.35 0.27
17 7 -1 0.15 0.2
17 7 -2 0.26 0.2
-17 -7 -2 0.24 0.29
17 7 -3 1.88 0.35
-17 -7 -3 2.2 0.37
17 -7 -3 2.08 0.26
17 7 -4 0.08 0.21
-17 -7 -4 0.61 0.33
17 -7 -4 0.41 0.17
-17 -7 -5 3.37 0.5
17 7 -5 2.72 0.38
17 -7 -5 2.91 0.29
-17 -7 -6 0.88 0.34
17 7 -6 0.54 0.24
17 -7 6 0.17 0.18
17 -7 -6 0.31 0.17
17 -7 7 1.2 0.25
17 7 -7 1.83 0.33
17 -7 -7 1.76 0.22
17 7 -8 0.07 0.23
17 -7 8 -0.09 0.21
17 -7 -8 0.02 0.11
-17 -7 8 -0.2 0.24
17 -7 9 0.67 0.23
-17 -7 -9 -0.06 0.4
17 7 -9 0.69 0.24
-17 -7 9 0.35 0.22
-18 -7 0 0.1 0.24
-18 -7 -1 4.62 0.47
-18 -7 1 4.31 0.45
-18 -7 -2 -0.06 0.25
18 7 -2 0.21 0.21
18 7 -3 5.89 0.47
-18 -7 -3 5.57 0.52
-18 -7 -4 0 0.3
18 7 -4 0.35 0.22
18 7 -5 1.71 0.33
-18 -7 -5 1.86 0.34
18 -7 -5 1.78 0.22
18 7 -6 0.24 0.23
18 -7 -6 0.16 0.17
18 7 -7 0.18 0.24
18 -7 -7 -0.31 0.17
-19 -7 0 0.6 0.24
-19 -7 -1 0.44 0.24
-19 -7 1 0.53 0.23
-19 -7 -2 2.41 0.31
-19 -7 2 1.55 0.31
-19 -7 -3 3.95 0.43
-19 -7 3 4.47 0.4
19 7 -4 0.96 0.26
-19 -7 4 1.14 0.26
19 7 -5 17.47 1.07
0 -8 0 132.67 7.55
0 8 0 132.2 7.41
0 -8 -1 0.33 0.44
0 8 -1 0.4 0.19
0 8 -1 0.38 0.15
0 -8 1 0.66 0.42
0 8 1 0.6 0.23
0 8 1 0.09 0.12
0 -8 -2 76.8 4.5
0 -8 2 80.22 4.53
0 8 -2 72.46 4.36
0 8 2 76 4.35
0 8 2 80.76 4.39
0 8 3 2.64 0.44
0 -8 3 2.82 0.66
0 8 -3 3.08 0.45
0 -8 -3 2.6 0.56
0 8 3 3.13 0.55
0 8 -4 30.14 1.97
0 -8 4 30.92 2.25
0 -8 4 36.83 1.92
0 8 4 35.15 2.06
0 -8 4 29.97 2.39
0 8 4 34.24 1.95
0 -8 5 26.45 2.44
0 8 5 33.96 2.08
0 -8 5 31.73 2.28
0 -8 5 35.63 1.9
0 8 -5 30.75 1.92
0 8 5 34.19 1.93
0 8 6 66.47 4.06
0 8 6 69.78 3.91
0 8 -6 77.02 3.92
0 -8 6 65.63 3.89
0 -8 6 63.38 4.15
0 8 7 7.02 0.62
0 8 7 5.45 0.49
0 -8 7 5.6 0.55
0 8 8 82.49 4.63
0 -8 8 78.83 4.61
0 8 -8 83.69 4.61
0 8 8 79.82 4.59
0 8 9 0.32 0.23
0 8 -9 0.19 0.25
0 -8 9 0.26 0.22
0 8 9 0.19 0.26
0 -8 10 35.1 2.07
0 8 10 32.8 2.05
0 8 10 35.89 2.09
0 8 11 -0.11 0.29
0 -8 11 0.14 0.25
0 -8 -12 22.59 1.34
0 8 12 21.23 1.46
0 -8 12 22.12 1.44
0 -8 12 21.59 1.34
0 8 -12 22.56 1.33
0 -8 -13 0.2 0.32
0 -8 13 0.05 0.3
0 8 -13 0.14 0.3
0 -8 13 0.35 0.32
0 -8 -14 18.69 1.2
0 -8 14 20.24 1.21
0 8 -14 17.73 1.19
0 -8 14 22.26 1.34
0 -8 15 -0.53 0.29
0 -8 15 0 0.29
0 8 -15 0.09 0.29
0 -8 -15 -0.24 0.29
0 -8 16 3.99 0.44
0 -8 -16 4.56 0.43
0 8 -16 4.21 0.45
0 -8 -17 0.01 0.25
0 8 -17 0.07 0.26
0 -8 17 0.12 0.24
0 -8 18 0.64 0.22
0 -8 -18 0.68 0.23
0 8 -18 0.57 0.23
1 -8 0 0.36 0.47
1 8 0 0.17 0.17
1 8 0 0.06 0.17
-1 8 0 0.32 0.19
-1 8 0 0.04 0.11
-1 -8 0 0.31 0.37
-1 8 1 2.73 0.3
-1 -8 -1 2.94 0.62
1 8 -1 3.34 0.37
1 -8 1 2.95 0.59
1 8 -1 2.46 0.29
-1 8 -1 2.36 0.22
-1 8 -1 2.9 0.36
-1 -8 1 3.6 0.64
1 -8 -1 2.8 0.59
1 8 1 3.03 0.38
-1 -8 1 2.07 0.48
-1 8 2 12.68 0.82
1 8 -2 14.13 0.88
-1 -8 -2 12.13 1.02
1 -8 2 13.76 1.24
-1 8 2 13.94 0.88
1 -8 2 12.03 0.77
-1 -8 2 10.54 1.01
1 8 2 13.38 0.88
1 -8 -2 12.31 1.13
-1 8 -2 13.27 0.84
1 8 2 11.09 0.81
-1 -8 2 14.15 1.08
-1 8 3 1.18 0.24
1 -8 3 1.02 0.19
1 -8 3 1.85 0.68
-1 -8 -3 1.69 0.48
1 8 3 2.36 0.45
1 -8 -3 1.1 0.52
1 8 3 2.01 0.4
-1 -8 3 1.79 0.53
1 -8 4 233.31 12.24
-1 -8 -4 189.02 12.33
1 -8 4 225.99 12.46
-1 8 4 228.04 12.34
1 -8 4 199.01 12.43
-1 8 4 229.4 12.25
1 8 -4 232.08 12.27
1 8 4 222.2 12.25
-1 -8 4 210.56 12.24
-1 -8 4 221.42 12.41
-1 8 -4 212.45 12.25
1 8 4 227.21 12.33
1 -8 5 6.54 0.57
-1 8 5 7.93 0.67
1 8 -5 8.41 0.68
1 -8 5 5.66 1.21
-1 8 5 8.16 0.9
1 8 5 8.66 0.71
-1 -8 5 6.49 0.58
-1 -8 5 7.44 1.18
-1 -8 5 9.66 1.52
1 8 5 7.89 0.88
1 -8 6 94.59 5.4
1 -8 6 91.18 5.64
-1 8 6 94.89 5.56
-1 8 6 95.68 5.38
-1 8 6 101.15 5.41
1 8 -6 96.75 5.42
-1 -8 6 84.86 5.59
-1 -8 6 100.24 5.4
1 8 6 96.63 5.55
1 8 6 101.69 5.42
-1 8 -6 94.78 5.41
-1 8 7 0.77 0.25
1 -8 7 0.67 0.21
1 8 -7 1.03 0.28
-1 8 7 0.36 0.2
1 8 7 0.96 0.29
-1 -8 7 0.64 0.23
-1 8 8 20.29 1.23
1 8 -8 17.22 1.21
-1 8 8 18.98 1.17
1 -8 8 20.14 1.2
1 8 8 20.27 1.24
-1 -8 8 18.4 1.2
-1 8 -8 18.48 1.23
-1 8 9 2.13 0.35
1 -8 9 2.32 0.42
-1 8 9 2.49 0.41
1 8 9 2.61 0.5
-1 -8 9 2.33 0.47
-1 8 -9 3.1 0.47
-1 8 10 14.92 1.05
1 -8 10 14.66 1
-1 8 10 14.28 1.01
1 8 10 14.98 1.06
-1 -8 10 15.11 1.03
-1 -8 -11 -0.26 0.29
1 -8 11 0.38 0.24
-1 8 11 0.27 0.3
-1 8 11 0.22 0.3
1 8 11 0.13 0.29
-1 -8 11 0.3 0.27
1 -8 -11 0.03 0.28
-1 8 12 3.65 0.67
1 -8 12 5.12 0.62
1 -8 12 4.84 0.48
-1 8 12 3.69 0.66
-1 -8 -12 5.43 0.54
1 8 -12 3.83 0.47
-1 8 -12 4.35 0.46
1 -8 -12 5.35 0.49
-1 -8 12 4.41 0.49
1 8 12 4.78 0.69
-1 -8 12 4.75 0.64
-1 -8 -13 1.26 0.35
1 -8 13 1 0.32
1 8 -13 1.11 0.32
1 -8 13 0.42 0.31
-1 8 -13 1.12 0.32
1 -8 -13 0.94 0.32
-1 -8 13 1.2 0.34
1 8 13 0.52 0.34
1 8 -14 0.64 0.28
-1 8 14 -0.26 0.45
1 -8 14 0.84 0.31
1 -8 14 0.11 0.3
-1 -8 -14 0.63 0.31
1 8 14 0.19 0.34
1 -8 -14 0.54 0.29
-1 -8 14 0.47 0.3
-1 8 -14 0.9 0.3
-1 -8 14 0.15 0.31
-1 8 15 0.47 0.44
-1 -8 -15 0.34 0.31
1 8 -15 0.19 0.3
1 -8 15 0.45 0.3
-1 -8 15 0.47 0.3
1 8 15 0.05 0.32
1 -8 -15 0.5 0.29
-1 8 -15 0.53 0.3
1 -8 16 2.88 0.36
1 8 -16 3.18 0.4
-1 8 16 1.72 0.41
-1 -8 -16 2.36 0.38
1 -8 -16 2.53 0.35
-1 -8 16 2.41 0.38
-1 8 -16 3.17 0.4
-1 -8 -17 0.02 0.25
1 -8 17 0.05 0.23
1 8 -17 0.17 0.25
-1 8 -17 0.13 0.26
1 -8 -17 0.09 0.24
-1 -8 17 0.3 0.24
1 8 -18 1.42 0.25
1 -8 18 1.62 0.26
-1 -8 -18 1.25 0.25
-1 -8 18 1.6 0.26
1 -8 -18 0.98 0.25
-1 8 -18 1.42 0.26
2 8 0 0.34 0.2
2 -8 0 -0.32 0.56
-2 8 0 0.26 0.19
2 8 0 0.24 0.16
-2 -8 0 0.09 0.16
2 -8 0 0.21 0.11
-2 8 0 0.11 0.14
-2 -8 0 0.3 0.36
-2 8 1 0.99 0.26
-2 -8 -1 0.72 0.39
2 8 -1 0.94 0.22
2 8 -1 0.85 0.21
2 -8 1 0.85 0.64
-2 8 1 0.42 0.15
2 -8 1 0.56 0.13
-2 -8 -1 0.27 0.13
2 -8 -1 0.19 0.57
-2 -8 1 1.3 0.42
2 8 1 0.64 0.18
-2 -8 1 0.67 0.22
2 8 1 0.78 0.25
-2 8 -1 0.53 0.19
-2 8 -1 0.33 0.15
2 -8 2 0.67 0.65
2 8 -2 0.96 0.23
-2 8 2 0.73 0.2
-2 -8 -2 1.07 0.41
2 -8 2 0.6 0.14
-2 8 -2 1.2 0.25
2 -8 -2 -0.31 0.54
-2 -8 2 1.6 0.46
2 8 2 0.63 0.21
2 8 2 1.34 0.31
-2 -8 2 1.02 0.31
2 8 -3 2.88 0.53
-2 -8 -3 1.07 0.44
2 -8 3 0.9 0.72
-2 8 -3 2.13 0.43
2 8 3 3.1 0.51
-2 -8 3 3.34 0.69
-2 -8 3 1.71 0.57
2 -8 4 4.7 0.46
-2 -8 -4 4.83 0.72
2 -8 4 5.76 0.99
-2 8 4 5.09 0.56
-2 8 4 7.33 0.84
2 8 -4 6.01 0.61
2 8 4 4.91 0.71
2 8 4 6.45 0.59
-2 -8 4 6.44 1
-2 8 -4 6.03 0.57
-2 -8 4 7.83 1.03
-2 8 5 1.1 0.55
2 -8 5 0.32 0.72
-2 8 5 0.59 0.26
2 -8 5 0.4 0.18
-2 -8 5 1.06 0.66
-2 -8 5 0.61 0.22
2 8 5 1.05 0.47
-2 -8 5 1.16 0.6
2 -8 6 1.22 0.22
-2 8 6 1.16 0.21
-2 8 6 1.76 0.29
2 -8 6 0.84 0.69
-2 8 6 0.08 0.58
-2 -8 6 1.52 0.26
2 8 6 2.12 0.58
2 -8 7 0.77 0.2
-2 8 7 0.54 0.2
-2 8 7 0.88 0.26
2 8 -7 1.08 0.28
-2 -8 7 0.95 0.25
2 8 7 1.39 0.28
2 -8 8 0.43 0.21
2 8 -8 -0.09 0.23
-2 8 8 0.36 0.2
-2 8 8 0.15 0.25
-2 -8 8 0.16 0.23
-2 8 -8 0.76 0.23
2 8 8 0.57 0.25
-2 8 9 0.43 0.22
-2 8 9 -0.03 0.26
2 -8 9 0.34 0.2
-2 8 -9 0.65 0.25
-2 -8 9 0.38 0.24
2 8 9 0.26 0.26
2 -8 10 0 0.21
-2 8 10 0.17 0.24
-2 8 10 -0.01 0.28
2 8 10 0.09 0.25
-2 8 -10 -0.2 0.26
-2 -8 10 0.03 0.25
2 -8 11 -0.22 0.29
-2 8 11 0.07 0.28
2 -8 11 0.01 0.23
-2 8 11 -0.53 0.28
2 8 11 -0.04 0.29
2 -8 -11 -0.37 0.28
-2 -8 11 -0.12 0.27
2 8 -12 0.39 0.32
2 -8 12 0.27 0.3
-2 -8 -12 0.11 0.35
2 -8 12 0.16 0.26
-2 8 12 -0.24 0.32
-2 -8 12 0.44 0.33
-2 -8 12 -0.14 0.3
2 8 12 -0.02 0.34
2 8 12 -0.07 0.32
2 -8 -12 0.34 0.31
-2 8 -12 0.46 0.31
-2 -8 -13 0.65 0.35
2 8 -13 0.61 0.32
2 -8 13 0.37 0.29
2 -8 13 0.97 0.32
-2 8 13 1.46 0.47
2 8 13 0.67 0.35
-2 -8 13 0.9 0.34
-2 8 -13 0.88 0.31
2 8 13 -0.04 0.34
-2 -8 13 0.39 0.33
2 -8 -13 0.7 0.31
2 -8 14 0.47 0.3
-2 -8 -14 -0.16 0.31
2 -8 14 -0.02 0.29
-2 8 14 1.14 0.48
2 8 -14 0.09 0.27
-2 8 -14 -0.1 0.28
-2 -8 14 -0.08 0.31
2 8 14 0.04 0.34
2 -8 -14 0.32 0.28
-2 -8 14 0.13 0.29
-2 -8 -15 0.29 0.31
2 -8 15 0.21 0.28
-2 8 15 0.96 0.44
2 8 -15 0.47 0.3
2 8 15 -0.1 0.33
-2 -8 15 0.21 0.3
-2 8 -15 0.67 0.3
2 -8 -15 0.33 0.28
2 -8 16 -0.12 0.26
-2 8 16 0.18 0.38
-2 -8 -16 -0.45 0.28
2 8 -16 -0.12 0.27
2 8 16 -0.24 0.3
-2 8 -16 -0.19 0.28
2 -8 -16 -0.25 0.25
-2 -8 16 0 0.27
2 -8 17 0.5 0.24
-2 8 17 0.7 0.32
2 8 -17 0.94 0.26
-2 -8 -17 0.54 0.25
2 -8 -17 0.41 0.24
-2 8 -17 0.76 0.26
-2 -8 17 0.48 0.24
2 8 -18 0.07 0.22
2 -8 18 0.15 0.22
-2 -8 -18 -0.11 0.19
-2 -8 18 0.09 0.21
-2 8 -18 -0.16 0.22
3 8 0 0.33 0.2
3 8 0 -0.04 0.22
3 -8 0 0.06 0.11
-3 -8 0 -0.04 0.16
3 -8 0 -0.55 0.62
-3 8 0 -0.03 0.16
-3 -8 0 0.74 0.42
-3 8 1 5.06 0.51
-3 8 1 3.5 0.36
3 8 -1 4.79 0.46
-3 -8 -1 5.09 0.68
-3 -8 -1 3.67 0.39
3 -8 1 4.61 0.9
3 -8 1 3.82 0.34
3 8 1 4.19 0.47
-3 -8 1 5.23 0.71
3 -8 -1 2.81 0.7
3 8 1 4.58 0.44
-3 8 -1 3.93 0.44
-3 -8 1 3.74 0.45
-3 8 2 0.79 0.21
3 -8 2 0.97 0.76
3 -8 2 0.79 0.15
3 8 -2 1.18 0.26
-3 -8 -2 0.62 0.18
-3 -8 -2 1.21 0.42
3 8 2 1.35 0.33
-3 -8 2 1.28 0.3
3 -8 -2 0.8 0.54
-3 8 3 1.42 0.46
3 8 -3 0.85 0.29
3 -8 3 -0.42 0.8
-3 -8 -3 0.73 0.44
-3 -8 3 1.21 0.53
3 8 3 0.19 0.37
-3 -8 3 0.83 0.36
-3 8 4 49.94 2.78
3 -8 4 48.3 2.76
-3 8 4 50.86 2.93
3 8 -4 51.17 2.83
-3 -8 -4 42 2.9
3 -8 4 49.33 3.15
-3 -8 4 42.62 2.94
-3 8 -4 48.46 2.79
-3 -8 4 50.63 3
3 8 4 51.19 2.82
3 8 4 47.54 2.88
-3 8 5 0.71 0.25
3 8 -5 0.77 0.3
-3 8 5 -0.11 0.56
-3 -8 5 0.91 0.59
3 8 5 1.17 0.31
-3 -8 5 0.44 0.54
3 8 5 0.64 0.46
3 8 -6 31.22 1.9
-3 8 6 32.56 1.86
-3 8 6 31.4 1.81
3 -8 6 31.7 1.84
-3 8 -6 31.75 1.87
3 8 6 32.96 1.89
3 8 6 27.21 2
-3 -8 6 31.12 1.85
-3 8 7 0.77 0.19
3 8 -7 0.64 0.26
3 -8 7 0.99 0.21
-3 8 7 1.36 0.28
-3 -8 7 0.54 0.24
3 8 7 0.99 0.28
-3 8 8 14.81 0.94
3 -8 8 14.81 0.97
-3 8 8 15.03 1
3 8 8 14.69 1.02
-3 8 -8 14.66 0.99
-3 -8 8 14.47 1
3 -8 9 2.42 0.41
-3 8 9 1.75 0.32
-3 -8 9 1.85 0.32
3 8 9 2.82 0.48
3 -8 10 4.17 0.5
-3 8 10 4.51 0.53
3 8 10 4.6 0.58
-3 -8 10 3.81 0.58
-3 8 -10 4.08 0.56
-3 8 11 0.13 0.27
3 -8 11 0.19 0.23
-3 -8 -11 -0.09 0.38
3 -8 11 0.04 0.3
3 8 -11 -0.15 0.29
-3 -8 11 -0.07 0.29
3 8 11 0.2 0.3
3 -8 -11 0.19 0.3
3 8 11 0.31 0.28
-3 8 12 4.57 0.65
-3 -8 -12 4.92 0.56
3 8 -12 4.1 0.48
-3 8 12 4.84 0.58
3 -8 12 5.33 0.61
3 -8 12 5.26 0.51
3 8 12 4.93 0.55
-3 8 -12 4.51 0.46
-3 -8 12 4.89 0.53
-3 -8 12 4.86 0.66
3 -8 -12 4.58 0.47
3 8 12 4.2 0.69
-3 8 13 -0.22 0.35
-3 8 13 1.35 0.46
3 -8 13 0.08 0.28
-3 -8 -13 0.27 0.35
3 -8 13 0.32 0.31
3 8 -13 0.11 0.29
3 -8 -13 0.47 0.3
3 8 13 -0.42 0.35
3 8 13 0.42 0.35
-3 -8 13 -0.26 0.32
-3 -8 13 0.22 0.32
-3 8 -13 0.23 0.31
3 8 -14 0.67 0.3
-3 8 14 1.07 0.48
3 -8 14 0.78 0.31
3 -8 14 0.02 0.29
-3 -8 -14 0.02 0.33
-3 8 -14 0.69 0.29
-3 -8 14 0.85 0.32
3 8 14 0.47 0.35
3 -8 -14 0.69 0.29
3 8 -15 0.5 0.29
-3 8 15 1.21 0.45
3 -8 15 0.23 0.28
-3 -8 -15 0.26 0.32
-3 8 -15 0.74 0.3
3 8 15 0.23 0.34
-3 -8 15 0.09 0.29
3 -8 -15 0.41 0.28
-3 -8 -16 2.14 0.34
-3 8 16 2.85 0.44
3 8 -16 2.26 0.37
3 -8 16 2.22 0.33
3 -8 -16 1.81 0.35
-3 -8 16 2.3 0.36
-3 8 -16 2.23 0.38
3 8 16 2.11 0.37
-3 -8 -17 -0.04 0.25
3 -8 17 0.35 0.24
-3 8 17 0.15 0.32
3 8 -17 0.06 0.22
-3 8 -17 0.1 0.24
-3 -8 17 0.03 0.23
3 -8 -17 -0.11 0.23
3 8 17 0.22 0.21
3 -8 18 2.22 0.28
3 8 -18 2.28 0.28
-3 8 -18 2.36 0.29
-3 -8 18 2.16 0.27
3 -8 -18 1.84 0.28
4 8 0 111.64 6.22
4 -8 0 115.42 6.17
4 8 0 110.2 6.2
-4 -8 0 107.43 6.31
-4 8 0 107.89 6.17
-4 -8 0 108.21 6.23
-4 -8 -1 0.76 0.43
-4 -8 -1 0.02 0.18
4 8 -1 0.38 0.24
4 8 1 0.32 0.2
-4 -8 1 0.19 0.21
-4 8 -1 0.43 0.24
4 8 1 0.07 0.29
-4 -8 1 0.9 0.46
-4 8 2 95.33 5.29
4 8 -2 94.09 5.33
4 -8 2 99 5.29
-4 -8 -2 94.75 5.44
-4 8 2 86.51 5.36
-4 -8 2 98.43 5.45
4 8 2 95.06 5.36
-4 -8 2 91.85 5.38
-4 8 -2 92.16 5.32
4 8 2 94.76 5.31
-4 -8 -3 2.09 0.51
-4 8 3 1.9 0.27
4 8 -3 3.16 0.57
4 -8 3 1.93 0.3
-4 8 3 2.5 0.52
4 8 3 2.22 0.43
-4 -8 3 1.57 0.32
4 8 3 2.43 0.38
-4 -8 3 1.63 0.38
-4 8 4 76.77 4.79
-4 8 4 89.37 4.65
4 -8 4 91.35 4.65
4 8 -4 81.74 4.7
-4 -8 -4 70.38 4.77
-4 -8 4 84.03 4.83
-4 -8 4 76.68 4.79
-4 8 -4 79.34 4.67
4 8 4 82.22 4.75
4 8 4 83.92 4.65
4 8 4 89.53 4.7
4 -8 5 1.03 0.19
-4 8 5 0.96 0.24
4 8 -5 0.76 0.31
4 8 5 1.3 0.3
4 8 5 0.75 0.45
-4 8 -5 1.19 0.26
-4 8 6 7.35 0.57
4 8 -6 6.23 0.74
4 -8 6 9.09 0.59
-4 8 6 8.26 0.64
-4 8 -6 8.06 0.68
4 8 6 8.36 0.72
-4 8 7 2.77 0.45
4 -8 7 2.1 0.37
-4 8 7 2.32 0.33
4 8 7 2.74 0.51
-4 -8 7 1.74 0.29
-4 8 8 3.87 0.51
-4 8 8 4.5 0.42
4 -8 8 4.15 0.44
4 8 8 3.84 0.54
-4 8 -8 5.39 0.53
-4 -8 8 3.5 0.52
4 -8 9 0.17 0.2
-4 8 9 -0.23 0.25
-4 8 9 0.15 0.2
-4 8 -9 0.7 0.27
4 8 9 -0.16 0.23
-4 -8 9 -0.21 0.26
-4 8 10 16.67 1.1
4 -8 10 16.68 1.12
4 8 10 16.75 1.16
-4 8 -10 18.05 1.15
-4 -8 10 16.21 1.16
4 -8 11 0.7 0.27
4 -8 11 0.49 0.31
-4 -8 -11 1.01 0.42
-4 8 11 0.71 0.29
4 8 -11 0.36 0.31
4 8 11 0.98 0.35
-4 -8 11 0.67 0.33
4 8 11 0.69 0.32
4 -8 -11 0.98 0.33
-4 8 12 11.37 0.95
4 -8 12 12.37 0.83
-4 8 12 13.16 0.88
-4 -8 -12 12.11 0.88
4 -8 12 12.17 0.94
4 8 -12 13.01 0.84
-4 -8 12 11.64 0.97
4 -8 -12 12.35 0.84
4 8 12 12.07 0.9
-4 8 -12 12.63 0.81
4 8 12 11.81 1
4 -8 13 0.37 0.31
-4 -8 -13 0.1 0.35
4 -8 13 0 0.29
-4 8 13 -0.21 0.34
4 8 -13 0.54 0.3
-4 8 13 1.41 0.44
-4 -8 13 -0.26 0.32
4 8 13 0.29 0.34
-4 -8 13 0.43 0.33
4 -8 -13 0.45 0.28
4 8 13 -0.23 0.37
-4 8 -13 0.64 0.31
4 8 -14 14.5 0.93
4 -8 14 15.05 0.94
-4 -8 -14 14.61 0.96
4 -8 14 13.81 1.02
-4 8 14 15.01 1.01
4 -8 -14 15.23 0.94
4 8 14 14.46 0.98
-4 -8 14 14.52 0.94
-4 8 -14 12.79 0.92
4 -8 15 0.9 0.3
-4 -8 -15 0.26 0.33
4 8 -15 0.85 0.3
-4 8 15 1.39 0.43
-4 8 -15 1.02 0.31
-4 -8 15 0.94 0.31
4 8 15 0.64 0.33
4 -8 -15 0.59 0.28
-4 8 16 4.78 0.55
-4 -8 -16 5.32 0.47
4 -8 16 5.43 0.45
4 8 -16 4.7 0.46
4 -8 -16 5.49 0.47
4 8 16 4.94 0.52
-4 8 -16 4.97 0.47
-4 -8 16 5.37 0.46
-4 -8 -17 0.36 0.26
-4 8 17 1.09 0.33
4 -8 17 0.8 0.25
4 8 -17 1.06 0.24
4 8 17 0.68 0.27
-4 8 -17 0.72 0.25
-4 -8 17 0.76 0.25
4 -8 -17 0.26 0.24
4 8 -18 0.35 0.23
-4 8 18 0.41 0.26
4 -8 18 0.49 0.23
-4 -8 18 0.34 0.22
-4 8 -18 0.36 0.23
4 -8 -18 0.37 0.23
5 8 0 0.04 0.22
-5 -8 0 0.81 0.48
-5 -8 0 0 0.21
-5 -8 -1 8.91 0.76
-5 8 1 10.1 0.72
5 8 -1 11.63 0.79
-5 -8 -1 11.83 1.03
5 -8 1 10.69 0.69
5 8 1 10.27 0.8
-5 -8 1 12.3 1.02
-5 8 -1 11.07 0.8
5 8 1 11.53 0.77
-5 -8 1 10.68 0.82
5 8 -2 12.83 0.89
5 -8 2 11.88 0.78
-5 8 2 11.57 0.8
-5 -8 -2 12.43 1.11
-5 -8 2 13.59 1.13
5 8 2 12.1 0.91
5 8 2 12.52 0.84
-5 -8 2 11.58 0.92
-5 8 -2 14.01 0.9
-5 8 3 0.97 0.22
5 -8 3 1.22 0.19
5 8 -3 1.11 0.3
-5 -8 -3 1.14 0.5
-5 -8 3 0.94 0.24
5 8 3 1.2 0.21
5 8 3 1.31 0.33
5 8 3 1.16 0.39
-5 -8 3 0.75 0.33
-5 -8 3 1.69 0.56
5 8 -4 51.01 2.88
5 -8 4 48.72 2.78
-5 8 4 48.69 2.79
5 8 4 45.34 2.89
5 8 4 49.06 2.8
5 8 4 48.99 2.86
-5 8 -4 49.72 2.83
5 8 -5 0.48 0.3
5 -8 5 0.43 0.16
-5 8 5 0.71 0.22
-5 8 5 0.47 0.16
5 8 5 0.45 0.18
5 8 5 0.67 0.29
5 8 5 0.35 0.37
-5 8 -5 0.95 0.26
-5 8 6 76.61 4.26
5 -8 6 75.96 4.26
-5 8 6 77.88 4.24
5 8 -6 76.4 4.32
5 8 6 78.42 4.31
-5 8 -6 72.1 4.26
5 8 6 68.57 4.25
-5 8 7 0.26 0.22
-5 8 7 0.2 0.15
5 -8 7 0.15 0.16
5 8 7 0.28 0.26
5 -8 8 35.31 1.99
-5 8 8 33.75 1.96
-5 8 8 31.6 1.99
-5 8 -8 32.61 1.99
5 8 8 34.07 2.03
-5 8 9 1.06 0.23
5 -8 9 0.92 0.25
-5 8 -9 1.19 0.29
5 8 9 0.7 0.27
-5 8 10 20.71 1.28
5 -8 10 20.69 1.3
-5 -8 10 17.85 1.31
5 8 10 20.8 1.35
-5 8 -10 20.2 1.32
5 8 -11 0.05 0.31
-5 -8 -11 1.04 0.44
-5 8 11 0.19 0.27
5 -8 11 0.13 0.26
5 -8 11 0.04 0.31
-5 -8 11 -0.2 0.3
5 8 11 0 0.3
5 8 11 0.28 0.35
-5 8 -11 0.37 0.3
5 -8 -11 0.45 0.3
5 8 -12 1.95 0.38
-5 8 12 1.74 0.37
5 -8 12 2.37 0.37
-5 -8 -12 2.89 0.54
5 -8 12 1.93 0.36
5 8 12 2.32 0.41
5 8 12 1.79 0.42
-5 8 -12 2.34 0.37
5 -8 -12 2.86 0.4
-5 8 13 2.28 0.43
5 8 -13 3.66 0.45
5 -8 13 3.21 0.46
-5 -8 -13 3.47 0.5
5 8 13 3.24 0.52
-5 -8 13 3.98 0.47
5 8 13 2.81 0.5
-5 8 -13 3.52 0.41
5 -8 -13 3.96 0.45
5 -8 14 0.24 0.29
-5 8 14 1.59 0.43
5 8 -14 0.5 0.29
-5 -8 -14 0.52 0.36
-5 8 -14 0.7 0.31
-5 -8 14 0.66 0.32
5 8 14 0.29 0.33
5 -8 -14 0.84 0.29
-5 8 15 1.3 0.41
5 8 -15 0.35 0.27
5 -8 15 0.41 0.27
-5 -8 -15 -0.17 0.32
-5 8 -15 0.43 0.29
5 8 15 0.38 0.32
5 -8 -15 0.19 0.27
-5 -8 15 0.3 0.3
5 8 -16 1.77 0.33
5 -8 16 1.84 0.33
-5 -8 -16 1.58 0.33
-5 8 16 2.65 0.46
-5 8 -16 1.8 0.32
5 8 16 1.56 0.34
-5 -8 16 2.09 0.31
5 -8 -16 1.77 0.3
5 8 -17 0.12 0.22
-5 8 17 0.23 0.32
5 -8 17 0 0.23
5 8 17 -0.01 0.25
-5 -8 17 -0.1 0.23
5 -8 -17 -0.05 0.22
-5 8 -17 -0.32 0.24
-5 8 18 1.83 0.29
5 8 -18 1.68 0.28
5 -8 -18 1.55 0.27
-5 8 -18 1.75 0.27
-6 -8 0 7.53 0.64
-6 -8 -1 0.25 0.49
6 -8 1 0.17 0.13
6 8 -1 0.21 0.24
-6 -8 -1 -0.17 0.18
-6 8 1 -0.06 0.17
-6 -8 1 -0.16 0.22
-6 8 -1 0.41 0.24
6 8 1 0.2 0.19
6 8 1 0.06 0.29
-6 -8 1 0.59 0.49
-6 8 2 8.21 0.6
-6 -8 -2 8.07 0.93
6 -8 2 8.61 0.59
6 8 -2 9.62 0.75
6 8 2 8.07 0.64
6 8 2 8.23 0.74
-6 -8 2 8.25 0.95
-6 8 -2 9.36 0.72
6 8 -3 0.25 0.27
-6 8 3 0.12 0.18
6 -8 3 0.21 0.14
-6 8 -3 0.59 0.26
6 8 3 0.49 0.32
6 8 3 -0.03 0.29
6 8 3 0.31 0.18
-6 -8 3 0.05 0.23
6 -8 4 12.94 0.84
6 8 -4 13.04 0.99
-6 8 4 13.57 0.86
-6 8 -4 13.46 0.93
6 8 4 12.78 0.87
6 8 4 13.72 1.04
-6 8 5 0.49 0.21
6 8 -5 0.14 0.28
6 8 5 0.17 0.17
-6 8 -5 0.74 0.25
6 8 5 0.49 0.3
-6 8 6 0.62 0.16
-6 8 6 0.57 0.21
6 8 -6 0.23 0.27
6 8 6 0.24 0.18
6 8 6 0.49 0.28
-6 8 -6 0.96 0.25
-6 8 7 -0.08 0.2
-6 8 7 0.36 0.15
6 -8 7 0.41 0.18
-6 8 -7 0.61 0.23
6 8 7 0.39 0.28
6 8 7 0.17 0.17
6 -8 8 1.17 0.24
-6 8 8 1.8 0.35
6 8 8 1.39 0.32
-6 8 9 0.6 0.22
6 -8 9 0.45 0.23
-6 8 -9 0.66 0.28
6 8 9 0.2 0.27
-6 -8 -10 2.12 0.48
6 8 -10 2.12 0.36
6 -8 10 1.08 0.29
-6 8 10 1.43 0.28
6 8 10 1.83 0.38
-6 8 -10 2.92 0.56
6 8 10 1.07 0.34
6 -8 -10 1.99 0.38
6 -8 11 0.68 0.33
-6 8 11 0.79 0.3
6 -8 11 0.64 0.3
6 8 -11 0.69 0.35
6 8 11 1.12 0.36
-6 8 -11 0.89 0.33
6 8 11 0.51 0.36
6 -8 -11 1.2 0.33
6 -8 -11 0.87 0.29
6 -8 12 1.07 0.34
6 8 -12 0.62 0.31
6 -8 12 0.59 0.3
-6 -8 -12 1.61 0.44
-6 8 12 0.58 0.32
6 -8 -12 0.59 0.3
6 -8 -12 0.64 0.32
6 8 12 1.04 0.37
-6 8 -12 0.71 0.34
6 8 12 0.03 0.36
-6 8 13 1.51 0.41
-6 8 13 0.1 0.34
6 -8 13 0.51 0.32
6 8 -13 0.38 0.31
-6 -8 -13 0.54 0.38
6 -8 13 -0.03 0.25
-6 8 -13 0.8 0.32
6 -8 -13 0.42 0.31
6 -8 -13 0.7 0.3
6 8 13 0.2 0.38
6 8 13 0.71 0.33
6 -8 14 1.36 0.32
6 8 -14 1.24 0.31
-6 -8 -14 1.37 0.38
-6 8 14 2.16 0.42
6 8 14 1.14 0.35
6 -8 -14 1.01 0.31
-6 -8 14 0.79 0.32
-6 8 -14 1.47 0.33
-6 8 15 0.72 0.4
6 8 -15 0.78 0.27
-6 -8 -15 0.43 0.32
6 -8 15 0.44 0.27
6 -8 -15 0.81 0.27
6 8 15 0.31 0.31
-6 -8 15 0.54 0.28
-6 8 -15 0.66 0.29
-6 -8 -16 0.27 0.29
6 -8 16 0.54 0.25
-6 8 16 0.85 0.36
6 8 -16 0.73 0.24
6 -8 -16 0.34 0.24
-6 -8 16 0.57 0.26
6 8 16 0.51 0.28
-6 8 -16 0.41 0.27
6 8 -17 0.67 0.23
6 -8 17 0.33 0.22
-6 8 17 0.79 0.31
6 8 17 0.64 0.26
-6 8 -17 0.66 0.25
-6 -8 17 -0.17 0.21
6 -8 -17 0.37 0.22
-7 8 0 -0.22 0.17
7 8 0 0.08 0.19
-7 8 1 8.41 0.64
7 8 -1 9.81 0.74
-7 8 -1 9.07 0.72
7 8 1 9.66 0.69
-7 8 2 0.77 0.18
7 8 -2 0.71 0.25
7 -8 2 0.76 0.15
7 8 2 0.68 0.26
-7 8 -2 1.32 0.27
7 8 2 0.95 0.21
-7 8 3 5.11 0.44
7 8 -3 4.77 0.61
7 -8 3 5.1 0.41
-7 8 -3 5.06 0.57
7 8 3 4.14 0.47
7 -8 4 19.42 1.19
-7 8 4 20.02 1.2
7 8 -4 19.78 1.32
-7 8 -4 20.29 1.27
7 8 4 19.79 1.33
7 8 4 19.2 1.22
-7 8 5 0.54 0.2
7 8 -5 0.09 0.28
7 -8 5 0.35 0.15
-7 8 5 0.5 0.15
7 8 5 0.36 0.19
-7 8 -5 0.62 0.24
7 8 5 0.27 0.31
7 -8 6 12.97 0.85
-7 8 6 12.6 0.83
7 8 6 13.28 0.89
7 8 6 13.48 1.01
-7 8 -6 12.94 0.91
7 -8 7 0.03 0.17
-7 8 7 0.09 0.15
7 8 7 0.14 0.18
7 8 7 -0.1 0.29
-7 8 -7 0.43 0.24
7 -8 8 4.63 0.5
-7 8 8 4.86 0.46
-7 8 -8 5.24 0.59
7 8 8 4.31 0.68
7 -8 9 0.23 0.24
7 8 -9 -0.22 0.27
-7 8 9 0.39 0.22
7 -8 -9 0.01 0.22
7 8 9 0.44 0.33
-7 8 -9 0.64 0.28
7 8 9 -0.09 0.26
7 -8 10 0.38 0.27
7 -8 10 0.2 0.21
7 8 -10 0.3 0.32
-7 8 10 0.26 0.25
-7 8 -10 0.72 0.32
7 -8 -10 0.66 0.29
7 8 10 0.62 0.36
7 -8 -10 0.59 0.35
7 8 10 0.33 0.33
-7 8 11 0.18 0.28
7 -8 11 0.28 0.32
7 8 -11 0.1 0.31
7 -8 11 -0.15 0.31
7 -8 11 0.22 0.29
-7 -8 -11 1.29 0.47
7 8 11 -0.16 0.35
7 -8 -11 0.22 0.32
-7 8 -11 0.3 0.34
7 8 11 0.16 0.37
-7 -8 11 0.88 0.37
7 -8 -11 0.39 0.3
-7 8 -11 -0.13 0.35
-7 8 12 1.06 0.38
7 -8 12 -0.05 0.27
-7 -8 -12 0.99 0.43
7 -8 12 0.1 0.33
-7 8 12 -0.38 0.3
7 8 -12 0.18 0.3
7 -8 12 -0.06 0.33
-7 -8 12 1.11 0.36
7 8 12 0.32 0.34
7 -8 -12 0.51 0.31
7 8 12 -0.27 0.38
7 -8 -12 0.31 0.29
-7 8 -12 0.32 0.34
7 -8 13 1.44 0.35
7 -8 13 1.82 0.36
7 8 -13 2.47 0.43
-7 -8 13 1.22 0.36
7 8 13 0.57 0.41
7 8 13 1.91 0.38
7 -8 14 1.33 0.32
-7 -8 -14 1.1 0.37
-7 8 14 1.52 0.4
7 8 -14 1.36 0.32
7 -8 -14 1.23 0.3
-7 8 -14 1.68 0.33
7 8 14 1.37 0.35
7 -8 15 0.64 0.27
-7 -8 -15 0.6 0.32
7 8 -15 0.79 0.25
-7 8 15 0.98 0.36
7 8 15 0.63 0.3
7 -8 -15 0.68 0.25
-7 8 -15 1.09 0.3
7 8 -16 0.99 0.24
7 -8 16 0.44 0.23
-7 8 16 1.06 0.35
7 -8 -16 0.78 0.25
-7 8 -16 0.72 0.27
7 8 16 0.56 0.27
7 8 -17 0.3 0.22
-7 8 17 0.68 0.3
7 8 17 0.3 0.26
7 -8 -17 0.13 0.23
-7 8 -17 0.32 0.23
8 8 -1 0.62 0.22
-8 8 1 0.65 0.19
-8 8 -1 0.74 0.24
8 8 1 0.85 0.21
-8 8 2 93.47 5.37
8 8 -2 98.71 5.45
-8 8 -2 93.64 5.4
8 8 2 95.79 5.41
-8 8 3 8.63 0.63
8 8 -3 9.34 0.77
8 -8 3 8.11 0.59
-8 8 -3 9.63 0.73
8 8 3 8.66 0.64
8 -8 4 32.52 1.81
-8 8 4 29.54 1.81
8 8 -4 32.32 1.93
-8 8 -4 29.78 1.86
8 8 4 30.54 1.94
8 8 4 30.75 1.84
8 -8 5 1.51 0.29
8 8 -5 1.07 0.32
-8 8 5 1.64 0.3
8 8 5 0.86 0.38
8 8 5 1.37 0.23
-8 8 -5 2.45 0.46
8 -8 6 5.87 0.46
-8 8 6 5.2 0.44
8 8 6 4.55 0.5
-8 8 -6 5.16 0.58
8 8 6 4 0.72
-8 8 7 1.05 0.21
8 -8 7 0.69 0.21
-8 8 -7 0.93 0.26
8 8 7 0.78 0.21
8 8 7 0.74 0.37
8 -8 8 15.05 1.06
-8 8 8 16.17 1.05
-8 8 -8 17.81 1.14
8 8 8 15.56 1.23
8 -8 9 2.81 0.49
8 -8 9 2.47 0.38
8 8 -9 1.96 0.39
-8 8 9 2.87 0.45
8 8 9 3.06 0.46
8 -8 -9 2.42 0.42
-8 8 -9 2.92 0.58
8 8 9 1.75 0.42
-8 -8 9 3.61 0.53
-8 -8 -10 28.02 1.83
-8 8 10 29.1 1.81
8 -8 10 28.38 1.84
8 8 -10 32.84 1.81
8 -8 10 30.32 1.79
8 8 10 31.05 1.94
8 -8 -10 29.77 1.78
-8 -8 10 27.66 1.78
8 8 10 29.48 1.82
-8 8 -10 30.78 1.86
8 -8 -10 30.52 1.8
-8 -8 -11 1.76 0.48
-8 8 11 0.14 0.29
8 -8 11 0.19 0.35
8 8 11 0.13 0.38
8 -8 -11 0.12 0.27
-8 8 -11 -0.08 0.34
8 8 11 0.63 0.37
8 -8 -11 0.16 0.33
-8 8 -11 0.78 0.36
8 -8 12 9.05 0.73
8 -8 12 9.87 0.76
-8 -8 -12 9.33 0.76
8 8 -12 9.91 0.73
-8 8 12 10.56 0.75
-8 8 12 8.11 0.83
8 -8 -12 9.8 0.71
8 8 12 9.74 1.02
8 -8 -12 9.6 0.72
-8 8 -12 9.73 0.72
8 8 12 9.78 0.79
-8 -8 12 10.63 0.78
-8 -8 -13 0.46 0.39
8 -8 13 -0.09 0.31
-8 8 13 0.76 0.36
8 -8 13 -0.18 0.31
8 8 -13 0.07 0.29
8 -8 -13 0.22 0.28
-8 8 -13 0.44 0.32
8 8 13 -0.2 0.31
8 8 13 -0.05 0.38
8 -8 14 4.39 0.47
-8 8 14 4.28 0.49
-8 -8 -14 4.78 0.5
8 -8 14 4.12 0.44
8 8 -14 4.18 0.46
-8 8 -14 4.41 0.45
8 -8 -14 4.52 0.45
-8 -8 14 3.4 0.45
8 8 14 4.57 0.49
8 8 -15 0.6 0.23
-8 -8 -15 0.1 0.31
8 -8 15 0.06 0.24
-8 8 15 0.53 0.35
8 8 15 0.17 0.27
-8 8 -15 0.59 0.27
8 -8 -15 0.17 0.24
-8 8 16 3.08 0.41
8 8 -16 3.33 0.34
-8 8 -16 3.42 0.35
8 -8 -16 3.69 0.34
8 8 16 2.93 0.39
8 8 -17 0.38 0.22
-8 8 17 0.32 0.27
8 -8 -17 0.02 0.22
8 8 17 0.04 0.24
-8 8 -17 0.04 0.22
9 8 0 0 0.17
-9 8 1 2.27 0.37
9 8 -1 2.66 0.47
-9 8 -1 2.57 0.47
9 8 1 2.41 0.4
-9 8 2 18.86 1.2
9 8 -2 19.58 1.3
9 8 2 19.87 1.25
-9 8 -2 20.59 1.27
-9 8 3 0.41 0.18
9 8 -3 0.33 0.25
9 8 3 0.39 0.18
-9 8 -3 0.55 0.24
-9 8 4 64.95 3.73
9 8 -4 64.67 3.84
9 8 4 65.53 3.78
-9 8 -4 67.87 3.79
9 8 -5 0.36 0.27
-9 8 5 0.73 0.18
9 -8 5 0.92 0.2
9 8 5 0.74 0.21
9 8 5 0.69 0.39
-9 8 -5 1.03 0.27
-9 8 6 91.6 5.11
9 -8 6 87.1 5.12
9 8 6 93.15 5.15
9 8 6 92.37 5.25
-9 8 -6 87.7 5.15
9 -8 7 0.16 0.28
9 8 -7 -0.06 0.24
-9 8 7 0.23 0.2
9 -8 7 -0.02 0.19
9 8 7 0.13 0.2
-9 8 -7 0.5 0.27
9 -8 -7 0.26 0.23
9 8 7 -0.11 0.38
-9 -8 7 -0.35 0.32
-9 -8 -8 34.83 2.33
9 -8 8 41.89 2.37
9 8 -8 38.94 2.34
-9 8 8 40.6 2.34
9 -8 8 40.07 2.32
9 8 8 43.68 2.52
-9 8 -8 39.36 2.38
9 -8 -8 39.93 2.32
9 8 -9 2 0.4
9 -8 9 1.98 0.4
-9 8 9 1.46 0.29
9 -8 -9 1.82 0.42
-9 8 -9 1.68 0.36
9 8 9 1.83 0.45
9 8 9 1.02 0.45
9 -8 -9 1.84 0.33
9 -8 10 17.24 1.08
-9 -8 -10 16.23 1.17
-9 8 10 15.96 1.12
9 8 -10 13.98 1.08
9 -8 -10 17.12 1.07
9 8 10 17.2 1.15
-9 -8 10 16.52 1.1
9 8 10 18 1.34
9 -8 -10 17.01 1.12
-9 8 -10 16.34 1.19
-9 8 11 0.27 0.3
9 8 -11 0.52 0.34
9 -8 11 0.48 0.33
9 8 11 0.34 0.42
9 -8 -11 0.47 0.34
-9 8 -11 0.02 0.34
9 -8 -11 0.33 0.26
9 8 11 0.39 0.36
-9 8 -11 1.09 0.38
-9 8 12 3.2 0.47
9 -8 12 1.92 0.37
9 8 -12 1.62 0.35
-9 8 -12 2.5 0.45
9 8 12 2.55 0.41
9 -8 -12 2.66 0.45
9 8 12 1.26 0.45
9 8 -13 2.59 0.43
9 -8 13 2.64 0.45
-9 8 13 3.31 0.48
-9 -8 -13 3.17 0.5
9 -8 -13 2.76 0.43
-9 -8 13 3.93 0.46
9 8 13 3 0.4
-9 8 -13 2.98 0.43
-9 8 14 0.8 0.35
9 -8 14 0.43 0.27
-9 -8 -14 0.51 0.34
9 8 -14 0.94 0.26
-9 -8 14 1.17 0.29
-9 8 -14 1.04 0.29
9 -8 -14 0.98 0.27
9 8 14 0.61 0.29
-9 8 15 1.48 0.35
9 8 -15 1.02 0.23
9 -8 15 0.67 0.22
-9 8 -15 1.2 0.29
9 8 15 0.98 0.28
9 -8 -15 1.07 0.25
9 8 -16 2.68 0.29
-9 8 16 1.97 0.34
-9 8 -16 2.01 0.29
9 8 16 1.83 0.29
9 -8 -16 1.94 0.29
10 8 0 16.97 1.13
-10 8 1 0.03 0.18
10 8 -1 -0.06 0.2
-10 8 -1 -0.19 0.22
10 8 1 0.04 0.19
-10 8 2 16.03 1.05
10 8 -2 17.67 1.17
-10 8 -2 16.47 1.13
10 8 2 16.91 1.09
10 8 -3 0.21 0.26
-10 8 3 -0.06 0.15
10 8 3 0.3 0.18
-10 8 -3 0.24 0.25
-10 8 4 8.29 0.61
10 8 -4 7.68 0.78
10 8 4 8.6 0.67
-10 8 -4 7.92 0.76
-10 8 5 0.4 0.18
10 8 -5 -0.17 0.21
10 -8 5 0.15 0.18
-10 8 -5 0.42 0.26
10 8 5 0.35 0.2
10 -8 6 0.34 0.19
-10 8 6 0.45 0.2
10 8 -6 0.11 0.26
-10 -8 -6 -0.19 0.42
10 -8 6 0.28 0.28
10 -8 -6 0.01 0.19
10 8 6 -0.52 0.4
-10 -8 6 -0.29 0.32
-10 8 -6 0.53 0.29
10 8 6 0.36 0.21
10 -8 7 0.07 0.17
10 -8 7 0.24 0.31
-10 8 7 0.35 0.22
10 8 -7 0.3 0.31
10 8 7 -0.04 0.43
10 -8 -7 0.45 0.28
-10 8 -7 0.55 0.29
10 8 7 0.4 0.23
-10 8 8 3.28 0.49
10 8 -8 3.32 0.5
10 -8 8 3.42 0.54
-10 -8 8 4.31 0.52
-10 8 -8 4.11 0.63
10 -8 -8 2.88 0.45
10 -8 9 0.12 0.32
10 8 -9 -0.02 0.33
-10 8 9 0.3 0.27
10 8 9 -0.09 0.44
-10 8 -9 0.63 0.34
10 -8 -9 -0.32 0.37
10 8 9 0.9 0.43
10 -8 -9 0.44 0.26
-10 8 10 4.19 0.59
10 8 -10 4.62 0.54
10 -8 10 3.45 0.53
10 -8 -10 5.72 0.6
10 -8 -10 4.09 0.47
10 8 10 4.91 0.9
-10 8 -10 5.09 0.73
10 8 10 5.09 0.67
-10 -8 -11 1.25 0.49
-10 8 11 -0.33 0.29
10 -8 11 0.13 0.29
-10 8 11 0.53 0.33
10 8 -11 -0.31 0.31
10 8 11 0.22 0.36
10 -8 -11 -0.03 0.26
10 8 11 0.02 0.4
10 -8 -11 -0.21 0.32
-10 8 -11 0.47 0.36
-10 -8 -12 4.51 0.58
-10 8 12 4.91 0.5
10 -8 12 4.03 0.48
10 8 -12 3.89 0.48
10 8 12 3.59 0.57
10 -8 -12 4.14 0.5
-10 -8 12 5.01 0.48
-10 8 -12 4.1 0.46
-10 8 13 0.42 0.32
-10 -8 -13 -0.05 0.37
10 8 -13 -0.01 0.24
10 -8 13 0.02 0.26
10 -8 -13 -0.06 0.26
-10 -8 13 0.99 0.29
-10 8 -13 0.34 0.31
10 8 13 0.3 0.28
-10 8 14 2.66 0.43
10 8 -14 2.64 0.34
-10 -8 -14 2.5 0.4
10 -8 14 2.44 0.37
10 -8 -14 2.84 0.34
10 8 14 2.52 0.43
-10 -8 14 3.42 0.39
-10 8 -14 2.58 0.35
-10 8 15 0.39 0.31
10 -8 15 0.22 0.21
10 8 -15 0.62 0.21
10 8 15 0.36 0.24
10 -8 -15 0.36 0.22
-10 8 -15 0.4 0.25
-10 8 16 1.49 0.31
10 8 -16 1.51 0.27
10 8 16 1.18 0.27
10 -8 -16 1.27 0.27
-11 8 0 -0.17 0.19
11 8 0 0.03 0.22
-11 8 1 0.11 0.2
11 8 -1 0.1 0.24
11 8 1 0.24 0.2
-11 8 2 -0.1 0.15
11 8 -2 0.12 0.26
11 8 2 0.17 0.2
-11 8 -2 -0.39 0.26
11 8 -3 0.1 0.29
-11 -8 -3 -0.41 0.24
-11 8 3 0.13 0.17
11 8 3 0.17 0.19
-11 8 -3 -0.13 0.27
-11 -8 -4 1.72 0.35
-11 8 4 1.27 0.23
11 8 -4 0.7 0.31
11 8 4 1.33 0.27
-11 8 -4 1.09 0.33
-11 -8 -5 1.03 0.39
-11 8 5 0.22 0.19
11 -8 5 -0.09 0.28
11 8 -5 0.01 0.26
11 8 5 0.01 0.19
-11 8 -5 0.12 0.28
-11 8 6 1.08 0.26
11 -8 6 1.11 0.32
11 8 -6 0.94 0.34
-11 8 -6 0.99 0.34
-11 -8 6 1.5 0.34
11 8 6 0.67 0.24
11 -8 -6 1.13 0.31
-11 8 7 0.1 0.23
11 -8 7 -0.2 0.3
11 8 -7 -0.01 0.32
11 8 7 -0.3 0.39
-11 -8 7 0.64 0.32
-11 8 -7 0.2 0.31
11 -8 -7 0.02 0.26
-11 8 8 0.06 0.25
11 -8 8 0.09 0.31
11 8 -8 -0.11 0.33
-11 8 -8 0.2 0.32
11 8 8 -0.22 0.4
11 -8 -8 -0.04 0.28
11 8 8 0.25 0.33
11 -8 -8 0.13 0.27
11 -8 9 0.13 0.3
-11 8 9 -0.3 0.26
11 8 -9 -0.28 0.31
11 8 9 0.17 0.44
11 -8 -9 -0.05 0.26
11 -8 -9 -0.4 0.36
11 8 9 -0.09 0.41
-11 -8 9 0.86 0.32
-11 8 -9 0.25 0.34
11 -8 10 0.56 0.31
11 8 -10 -0.19 0.31
-11 8 -10 0.08 0.34
11 8 10 0.78 0.42
11 -8 -10 0.19 0.35
11 8 10 -0.07 0.44
11 -8 -10 0.45 0.27
11 8 -11 -0.23 0.28
-11 8 11 0.56 0.32
-11 -8 -11 1.34 0.47
11 -8 11 0.1 0.28
-11 8 -11 0.33 0.36
11 -8 -11 0.14 0.33
11 8 11 0.04 0.36
-11 8 12 0.85 0.32
11 -8 12 0.35 0.26
11 8 -12 0.04 0.26
-11 -8 -12 0.24 0.41
-11 8 -12 0.41 0.32
11 8 12 0.34 0.33
11 -8 -12 0.23 0.29
11 8 -13 0.29 0.23
-11 -8 -13 -0.3 0.36
-11 8 13 0.54 0.31
11 -8 13 0.06 0.23
11 -8 -13 0.18 0.25
11 8 13 0.07 0.29
-11 8 -13 0.34 0.3
11 -8 14 0.09 0.21
11 8 -14 0.16 0.21
-11 8 14 -0.18 0.3
-11 8 -14 -0.17 0.26
-11 -8 14 0.49 0.25
11 8 14 -0.14 0.26
11 -8 -14 0.1 0.22
11 8 -15 0.55 0.22
11 -8 15 0.04 0.17
-11 8 15 -0.01 0.3
11 -8 -15 0.12 0.23
11 8 15 -0.11 0.25
12 8 0 17.22 1.18
-12 8 0 15.57 1.07
12 8 -1 0.11 0.18
-12 8 1 0.07 0.14
12 8 -1 0.33 0.29
12 8 1 0.19 0.24
12 8 -2 16.88 1.1
-12 8 2 17.84 1.13
12 8 -2 20.17 1.32
12 8 2 19.12 1.23
-12 8 -2 16.4 1.24
-12 8 3 2.4 0.39
12 8 -3 1.62 0.36
-12 -8 -3 2.89 0.48
12 8 -3 2.02 0.36
-12 8 -3 1.09 0.36
12 8 3 1.76 0.31
12 8 -4 6.87 0.61
-12 -8 -4 7.88 0.67
12 -8 4 7.36 0.61
-12 8 4 8.03 0.62
-12 8 -4 7.08 0.82
12 8 4 7.85 0.69
12 -8 5 2.22 0.35
-12 8 5 2.71 0.44
12 8 -5 2.52 0.42
-12 8 -5 1.62 0.38
12 8 5 2.47 0.47
-12 -8 5 1.87 0.35
12 8 -6 0.33 0.31
12 -8 6 0.81 0.32
-12 8 6 0.65 0.24
-12 -8 6 0.97 0.33
-12 8 -6 0.46 0.34
12 -8 -6 0.91 0.31
12 8 -7 2.33 0.45
12 -8 7 2.94 0.5
-12 8 -7 3.18 0.65
12 -8 -7 3.42 0.46
-12 -8 7 3.64 0.51
12 8 -8 3.44 0.5
12 -8 8 3.77 0.48
-12 -8 8 4.03 0.5
12 -8 -8 2.79 0.51
12 -8 -8 3.76 0.46
-12 8 -8 2.63 0.45
12 -8 9 0.23 0.29
12 8 -9 -0.22 0.31
12 -8 -9 -0.1 0.35
12 8 9 -0.05 0.43
-12 8 -9 -0.24 0.32
12 8 -10 3.35 0.5
12 -8 10 3.45 0.47
12 -8 -10 3.6 0.53
12 8 10 3.62 0.63
-12 8 11 0.21 0.32
12 8 -11 -0.2 0.27
-12 -8 -11 0.54 0.45
12 -8 11 0.11 0.24
12 -8 -11 -0.15 0.3
-12 8 -11 -0.61 0.33
-12 -8 11 0.57 0.28
12 8 11 0.13 0.35
12 -8 12 4.07 0.43
12 8 -12 3.94 0.42
-12 -8 -12 3.74 0.51
-12 8 12 3.77 0.45
12 -8 -12 4.06 0.45
-12 -8 12 4.9 0.42
-12 8 -12 3.43 0.45
12 8 12 4.06 0.53
-12 8 13 0.03 0.3
12 -8 13 -0.13 0.21
12 8 -13 0.15 0.21
12 8 13 -0.12 0.27
12 -8 -13 0.25 0.25
12 8 -14 3.82 0.35
12 -8 14 3.41 0.35
12 8 -14 3.57 0.28
12 8 14 3.54 0.42
12 -8 -14 3.47 0.37
-12 -8 14 3.87 0.36
13 8 0 -0.1 0.3
13 8 0 0.02 0.22
13 -8 0 -0.04 0.15
13 8 -1 1.19 0.36
-13 8 -1 0.49 0.2
13 8 1 0.8 0.3
13 8 -2 9.13 0.88
13 8 -2 8.78 0.64
13 8 2 8.57 0.62
13 8 2 8.28 0.8
13 -8 3 0.41 0.24
13 8 -3 0.05 0.29
-13 -8 -3 0.99 0.33
13 8 -3 0.47 0.26
13 -8 -3 0.17 0.13
13 8 3 0.45 0.22
13 8 3 0.4 0.27
13 8 -4 42.36 2.44
-13 -8 -4 38.93 2.44
13 -8 4 43.48 2.42
-13 8 -4 42.82 2.55
13 8 4 41.94 2.52
13 8 -5 0.41 0.28
13 -8 5 0.9 0.29
-13 -8 5 0.43 0.31
13 -8 -5 0.64 0.31
-13 8 -5 0.09 0.35
13 8 -6 35.94 2.29
13 -8 6 45.06 2.29
-13 -8 -6 37.32 2.31
-13 8 -6 41.87 2.41
13 -8 -6 41.91 2.31
-13 -8 6 33.53 2.28
13 8 -7 0.31 0.14
13 8 -7 -0.05 0.29
13 -8 7 0.28 0.29
-13 8 -7 -0.03 0.33
-13 -8 7 0.48 0.29
13 8 -8 6.38 0.48
13 8 -8 6.08 0.62
13 -8 8 7.11 0.58
-13 8 -8 5.67 0.75
13 -8 -8 5.8 0.61
-13 -8 8 6.4 0.57
13 8 -9 4.2 0.39
13 8 -9 4.04 0.53
13 -8 9 3.78 0.48
13 -8 -9 3.62 0.54
13 8 9 4.02 0.62
-13 -8 9 5.27 0.51
13 8 -10 5.04 0.54
-13 8 10 5.01 0.51
13 8 -10 4.95 0.42
-13 -8 -10 5.44 0.66
13 -8 10 5.56 0.5
-13 -8 10 5.18 0.5
13 8 10 5.42 0.65
13 -8 -10 6.31 0.58
-13 -8 -11 1.16 0.43
13 -8 11 0.93 0.25
13 8 -11 1.13 0.29
-13 8 11 1 0.33
13 8 -11 1.23 0.2
13 -8 -11 1.02 0.32
13 8 11 0.76 0.36
13 -8 12 3.48 0.38
13 8 -12 3.13 0.39
13 8 -12 2.87 0.28
-13 8 12 2.62 0.42
13 8 12 2.94 0.46
-13 -8 12 3.97 0.37
13 -8 -12 3.88 0.4
13 -8 13 0.58 0.2
13 8 -13 0.83 0.23
13 8 -13 0.53 0.14
-13 8 13 0.17 0.29
13 8 13 0.45 0.29
13 -8 -13 0.41 0.25
14 -8 0 22.85 1.34
14 8 0 24.89 1.61
14 8 0 22.14 1.39
14 8 -1 0.05 0.23
14 8 -1 0.31 0.33
14 8 1 0.37 0.31
14 8 1 0.08 0.23
14 -8 -1 -0.09 0.18
14 8 -2 16.1 1.05
-14 -8 -2 15.37 1.09
14 8 2 19.13 1.23
14 -8 -2 16.8 1
14 8 2 17.21 1.05
-14 -8 -3 0.8 0.33
14 8 -3 0.11 0.23
14 -8 3 0.21 0.22
14 -8 -3 0.16 0.17
14 8 3 0.31 0.27
-14 -8 -4 3.41 0.54
14 8 -4 2.37 0.34
14 -8 4 2.4 0.4
14 -8 -4 2 0.26
14 -8 5 0.31 0.26
14 8 -5 0.29 0.27
-14 -8 5 0.21 0.3
14 -8 -5 0.5 0.17
14 -8 6 4.27 0.48
14 8 -6 5.04 0.5
14 -8 -6 4.15 0.35
-14 -8 6 4.17 0.53
14 8 -7 1.65 0.36
14 -8 7 1.57 0.32
-14 -8 7 2.51 0.45
-14 -8 -8 10.4 0.82
14 8 -8 9.52 0.61
14 8 -8 9.95 0.73
14 -8 8 8.42 0.68
-14 -8 8 9.13 0.71
14 8 -9 0.57 0.29
14 8 -9 0.65 0.18
14 -8 9 0.55 0.26
-14 -8 -9 0.74 0.44
-14 -8 9 1.07 0.28
14 -8 -9 0.75 0.34
14 8 -10 6.64 0.43
-14 -8 -10 5.43 0.62
14 8 -10 6.41 0.54
14 -8 10 5.22 0.5
14 -8 -10 6.47 0.57
-14 -8 10 6 0.52
14 8 -11 0.14 0.15
14 8 -11 0.09 0.23
14 -8 11 0.16 0.21
14 8 11 0.07 0.3
-14 -8 11 0.55 0.23
14 -8 -11 -0.03 0.29
14 8 -12 5.14 0.35
14 8 -12 5.88 0.43
14 -8 12 4.8 0.42
-14 -8 12 5.84 0.44
14 8 12 4.03 0.45
14 -8 -12 5.58 0.46
14 -8 13 0 0.18
14 8 -13 0.26 0.2
-14 -8 13 0.46 0.21
14 -8 -13 -0.02 0.21
15 8 0 0.25 0.28
15 8 0 0 0.21
-15 -8 -1 0.56 0.3
15 8 -1 0.46 0.23
15 8 1 0.42 0.22
15 -8 -1 0.52 0.18
-15 -8 -2 0.66 0.3
15 8 -2 0.39 0.24
15 -8 -2 -0.04 0.18
15 8 -3 1.39 0.29
-15 -8 -3 2.48 0.5
15 -8 -3 0.73 0.2
15 -8 4 2.34 0.31
15 8 -4 2.75 0.4
15 -8 -4 2.18 0.29
15 8 -5 0.3 0.25
15 -8 5 0.45 0.25
-15 -8 5 -0.08 0.28
15 -8 -5 0.43 0.18
15 8 -6 3.45 0.44
15 -8 6 2.43 0.41
15 -8 -6 2.9 0.3
-15 -8 6 2.73 0.46
15 -8 7 0.52 0.25
15 8 -7 0.33 0.27
-15 -8 -7 1.31 0.42
15 8 -7 0.16 0.12
-15 -8 7 0.52 0.3
15 -8 -7 0.52 0.17
15 -8 8 1.68 0.3
15 8 -8 2.11 0.34
-15 -8 -8 2.77 0.45
-15 -8 8 1.83 0.33
15 8 -9 0.09 0.24
15 -8 9 0.08 0.23
-15 -8 -9 0.57 0.41
15 8 -9 0.23 0.15
-15 -8 9 0.49 0.25
15 -8 -9 -0.2 0.32
15 -8 10 0.45 0.22
15 8 -10 0.42 0.13
15 8 -10 0.56 0.24
15 -8 -10 -0.09 0.28
-15 -8 10 0.74 0.25
15 8 -11 0.17 0.12
15 -8 11 0.42 0.2
15 8 -11 0.64 0.22
15 -8 -11 -0.05 0.3
-15 -8 11 0.87 0.23
16 8 0 11.39 0.77
16 8 -1 0.04 0.22
-16 -8 -1 0.32 0.28
16 8 1 0.1 0.22
16 8 -2 11.03 0.74
-16 -8 -2 10.83 0.79
16 -8 -2 10.28 0.67
-16 -8 -3 1.32 0.33
16 8 -3 0.74 0.25
16 -8 -3 0.63 0.19
16 -8 4 5.52 0.45
16 8 -4 6.03 0.5
-16 -8 -4 7.02 0.62
16 -8 -4 5.31 0.43
16 8 -5 0.33 0.23
-16 -8 -5 0.82 0.36
16 -8 5 0.07 0.21
16 -8 -5 0.47 0.18
16 -8 6 0.17 0.21
16 8 -6 0.29 0.24
-16 -8 -6 0.87 0.37
-16 -8 6 -0.08 0.28
16 -8 -6 0.06 0.16
16 -8 7 1.05 0.24
16 8 -7 1.36 0.28
-16 -8 7 1.46 0.32
16 -8 -7 0.96 0.17
-16 -8 -8 2.1 0.41
16 -8 8 1.86 0.27
16 8 -8 1.73 0.29
-16 -8 8 1.89 0.32
16 8 -9 0.39 0.23
16 -8 9 0.24 0.21
-16 -8 -9 -0.25 0.42
-16 -8 9 0.45 0.26
16 8 -10 1.62 0.29
16 -8 10 1.28 0.24
-16 -8 10 1.84 0.32
-17 -8 0 0.07 0.25
-17 -8 -1 3.71 0.45
17 8 -1 4.17 0.39
-17 -8 1 3.15 0.43
17 8 -2 4.03 0.4
-17 -8 -2 3.68 0.48
17 8 -3 0.78 0.24
-17 -8 -3 1.24 0.32
-17 -8 -4 16.36 1.12
17 8 -4 19.03 1.09
17 -8 -4 17.55 1.04
-17 -8 -5 1.04 0.34
17 8 -5 0.4 0.22
17 -8 -5 0.48 0.17
17 8 -6 21.37 1.18
17 -8 6 17.89 1.13
-17 -8 -6 19.34 1.2
17 -8 -6 18.07 1.11
17 -8 7 0.02 0.21
-17 -8 -7 -0.04 0.33
17 8 -7 -0.01 0.21
-17 -8 -8 2.76 0.5
-17 -8 8 3.79 0.38
17 -8 9 0.82 0.23
-18 -8 0 21.88 1.32
-18 -8 -1 0.22 0.25
-18 -8 1 0.14 0.23
18 8 -2 18.76 1.02
-18 -8 -2 15.76 1.03
-18 -8 2 15.02 1.02
-18 -8 -3 0.26 0.28
18 8 -3 0.59 0.22
-18 -8 -4 7.31 0.6
18 8 -4 8.22 0.56
-18 -8 -5 -0.01 0.29
18 8 -5 0.07 0.21
18 8 -6 0.81 0.25
18 8 -7 0.57 0.25
-19 -8 0 -0.02 0.22
-19 -8 -1 0.08 0.23
-19 -8 1 0.09 0.23
-19 -8 -2 -0.21 0.25
-19 -8 2 0.05 0.23
-19 -8 -3 -0.17 0.26
-19 -8 3 0.17 0.24
-19 -8 4 1.28 0.28
0 9 0 0.13 0.18
0 -9 0 0.66 0.56
0 9 0 0.27 0.19
0 9 0 0.05 0.21
0 9 1 0.35 0.28
0 -9 1 1.24 0.6
0 9 1 0.07 0.21
0 9 -1 0.52 0.22
0 -9 -1 1.06 0.61
0 9 -1 0.33 0.1
0 9 2 0.23 0.24
0 9 2 0.62 0.35
0 -9 -2 0.95 0.61
0 -9 2 0.53 0.58
0 9 -2 0.56 0.24
0 -9 -3 -0.23 0.56
0 -9 3 0.92 0.71
0 9 3 0.18 0.23
0 9 3 0.57 0.41
0 9 -3 0.72 0.26
0 -9 4 0.95 0.76
0 9 4 0.61 0.28
0 9 4 0.61 0.45
0 -9 4 0.18 0.19
0 9 5 0.19 0.07
0 9 5 0.59 0.49
0 9 -5 0.69 0.26
0 -9 5 0.46 0.72
0 -9 6 0.5 0.2
0 9 6 0.32 0.14
0 9 7 0.06 0.18
0 9 7 0.36 0.26
0 -9 7 0.03 0.18
0 9 -7 0.32 0.26
0 -9 8 0.33 0.21
0 9 8 0.46 0.26
0 9 8 0.49 0.21
0 9 -8 0.64 0.26
0 9 9 0.01 0.26
0 9 -9 0.11 0.25
0 -9 9 0.13 0.21
0 9 9 0.1 0.22
0 -9 10 0.12 0.24
0 9 10 -0.22 0.24
0 9 10 0.11 0.29
0 9 11 0.24 0.32
0 -9 11 0.05 0.25
0 -9 -11 0.44 0.32
0 -9 11 0.15 0.31
0 -9 -12 0.08 0.34
0 -9 12 -0.15 0.27
0 9 12 -0.32 0.33
0 9 -12 -0.14 0.3
0 -9 12 0.37 0.32
0 -9 13 0.37 0.3
0 -9 -13 0.72 0.33
0 9 -13 0.37 0.31
0 -9 13 0.1 0.3
0 9 13 0.24 0.33
0 -9 -14 0.23 0.3
0 -9 14 -0.21 0.29
0 -9 14 0.19 0.3
0 9 14 -0.18 0.33
0 9 -14 0.35 0.28
0 9 15 -0.02 0.21
0 -9 15 0.09 0.28
0 9 -15 0.15 0.29
0 -9 -15 0.37 0.3
0 -9 16 0.34 0.27
0 -9 -16 0.64 0.27
0 9 -16 0.6 0.28
0 -9 17 -0.14 0.22
0 -9 -17 -0.25 0.23
0 9 -17 0.03 0.24
0 -9 18 0.48 0.21
0 -9 -18 0.27 0.22
0 9 -18 0.49 0.22
1 -9 0 1.96 0.71
1 9 0 1.25 0.26
-1 9 0 1.09 0.21
1 -9 0 0.87 0.16
1 9 -1 0.14 0.18
1 -9 1 0.51 0.68
1 -9 1 0.09 0.13
-1 9 1 0.16 0.2
-1 9 1 0.51 0.3
-1 -9 -1 1.22 0.54
1 9 -1 0.59 0.23
-1 9 -1 0.69 0.25
1 9 1 0.21 0.28
1 9 1 0.31 0.22
1 9 1 0.24 0.18
1 -9 -1 0.36 0.65
-1 9 -1 0.17 0.18
-1 -9 1 1.13 0.57
-1 9 2 5.7 0.57
1 -9 2 6.63 1.28
1 -9 2 5.37 0.48
-1 9 2 7.17 0.66
1 9 -2 7.36 0.66
-1 -9 -2 6.93 0.9
1 9 2 6.31 0.64
1 -9 -2 5.66 1.07
-1 -9 2 7.94 0.99
-1 9 -2 7.14 0.65
1 9 2 6.84 0.62
-1 9 3 39.32 2.42
1 -9 3 40.44 2.31
-1 -9 -3 35.36 2.51
1 -9 3 41.28 2.74
1 9 -3 43.14 2.38
-1 9 3 39.82 2.34
-1 -9 3 41.49 2.61
1 9 3 40.79 2.42
-1 9 -3 41.92 2.37
1 9 3 40.17 2.36
-1 9 4 3.84 0.48
1 -9 4 3.35 0.4
-1 9 4 4.09 0.72
1 -9 4 3.43 0.9
-1 -9 4 3.11 0.42
1 9 4 4.67 0.58
1 9 4 4.4 0.68
-1 -9 4 5.95 1.09
1 9 -5 58.8 3.11
-1 9 5 52.01 3.07
-1 9 5 51.38 3.03
1 -9 5 53.84 3.06
1 -9 5 48.94 3.37
1 9 5 56.33 3.1
-1 -9 5 55.85 3.07
-1 9 -5 56.5 3.1
1 9 5 49.5 3.2
-1 -9 5 51.42 3.35
-1 9 6 2.78 0.37
1 -9 6 2.95 0.39
-1 9 6 4.24 0.52
-1 -9 6 3.15 0.43
-1 9 7 47.02 2.67
-1 9 7 45.73 2.63
1 9 -7 45.28 2.68
1 -9 7 43.96 2.64
-1 9 -7 45.37 2.67
-1 -9 7 44.8 2.65
1 9 7 48.52 2.68
-1 9 8 3.6 0.43
1 -9 8 3.16 0.43
1 9 -8 3.94 0.52
-1 9 8 3.58 0.53
-1 9 -8 4.25 0.52
1 9 8 3.04 0.53
-1 -9 8 3.46 0.45
-1 9 9 8.63 0.74
1 -9 9 8.68 0.68
1 9 -9 6.77 0.7
-1 9 9 8.19 0.66
1 9 9 9.22 0.76
-1 9 -9 8.05 0.71
-1 -9 9 9.08 0.7
-1 9 10 10.54 0.81
1 -9 10 11.32 0.81
-1 9 10 10.56 0.85
-1 -9 10 10.56 0.81
-1 9 -10 8.64 0.8
1 9 10 10.82 0.86
-1 9 11 1.82 0.36
-1 -9 -11 2.34 0.43
1 -9 11 2.47 0.4
-1 9 11 2 0.38
1 -9 11 2.9 0.51
-1 -9 11 1.87 0.34
1 9 11 2.08 0.39
1 -9 -11 2.68 0.44
1 -9 12 6.93 0.57
-1 -9 -12 7.19 0.59
-1 9 12 5.17 0.73
1 -9 12 7.11 0.7
1 9 -12 6.7 0.58
1 9 12 5.37 0.74
1 -9 -12 7.18 0.57
1 9 12 6.43 0.65
-1 -9 12 7.1 0.59
-1 -9 12 6.4 0.72
-1 9 -12 6.68 0.55
1 9 -13 0.99 0.31
-1 -9 -13 0.88 0.34
1 -9 13 0.67 0.31
1 -9 13 0.32 0.3
-1 -9 13 1.1 0.33
1 9 13 0.55 0.35
-1 9 -13 0.96 0.32
1 -9 -13 1.03 0.32
-1 -9 13 0.17 0.32
1 -9 14 4.87 0.47
1 9 -14 3.48 0.42
1 -9 14 3.96 0.61
-1 -9 -14 3.22 0.45
-1 9 -14 3.73 0.45
1 -9 -14 4.17 0.46
1 9 14 4.22 0.54
-1 -9 14 3.38 0.44
-1 -9 14 3.28 0.63
1 -9 15 1.18 0.31
-1 -9 -15 1.34 0.33
1 9 -15 1.58 0.33
-1 9 -15 1.44 0.32
-1 -9 15 1.56 0.33
1 9 15 1.02 0.35
1 -9 -15 1.26 0.32
-1 -9 -16 1.93 0.36
1 -9 16 2.12 0.31
1 9 -16 1.76 0.34
1 -9 -16 1.93 0.33
-1 9 -16 2.1 0.34
-1 -9 16 1.93 0.33
1 9 -17 2.05 0.32
1 -9 17 2.11 0.31
-1 -9 -17 1.62 0.29
-1 9 -17 1.86 0.3
1 -9 -17 1.66 0.29
-1 -9 17 2.01 0.31
1 -9 18 0.32 0.21
1 9 -18 0.4 0.22
-1 -9 -18 0.16 0.21
1 -9 -18 -0.03 0.22
-1 9 -18 0.27 0.22
-1 -9 18 0.3 0.22
2 9 0 -0.06 0.25
-2 9 0 0.39 0.22
2 -9 0 0.09 0.77
2 9 0 0.31 0.22
-2 9 0 -0.11 0.18
-2 -9 0 0.64 0.49
2 -9 1 162.81 8.51
2 9 -1 155.38 8.54
2 -9 1 146.69 8.8
-2 -9 -1 145.12 8.65
-2 9 1 156.26 8.51
-2 9 -1 151.88 8.53
2 9 1 154.19 8.53
-2 9 -1 146.07 8.5
2 9 1 157.08 8.55
-2 -9 1 152.73 8.66
2 -9 -1 144.91 8.77
2 -9 2 16.92 1.69
2 9 -2 19.11 1.14
-2 9 2 15.88 1.14
-2 -9 -2 17.2 1.32
-2 9 2 16.65 1.08
2 -9 2 15.94 1.03
-2 9 -2 18.89 1.13
2 9 2 17.18 1.07
2 -9 -2 14.7 1.51
2 9 2 16.65 1.14
-2 -9 2 18.46 1.39
2 9 2 17.24 1.12
-2 9 3 67.61 3.7
2 9 -3 66.88 3.74
-2 9 3 64.3 3.78
2 -9 3 69.85 3.69
-2 -9 -3 58.85 3.84
2 -9 3 63.95 4.07
2 9 3 65.13 3.77
2 9 3 67.39 3.72
-2 -9 3 62.4 3.9
-2 9 -3 63.94 3.71
2 9 -4 32.18 1.74
-2 9 4 23.75 1.8
2 -9 4 27.03 1.64
2 -9 4 26.8 2.11
-2 9 4 26.74 1.66
2 9 4 29.54 1.72
2 9 4 27.13 1.78
-2 -9 4 27.58 1.96
-2 9 -4 30.78 1.71
-2 9 5 54.68 3.01
-2 9 5 54.27 3.05
2 -9 5 55.3 3.03
2 9 -5 51.28 3.07
2 -9 5 52.26 3.39
-2 -9 5 45.83 3.26
-2 -9 5 59.46 3.04
-2 9 -5 49.27 3.04
2 9 5 57.46 3.08
2 9 5 49.67 3.16
2 -9 6 36.25 2.22
-2 9 6 37.76 2.24
-2 9 6 38.72 2.2
2 9 -6 40.24 2.28
-2 9 -6 38.53 2.25
2 9 6 39.46 2.27
-2 -9 6 37.16 2.23
2 -9 7 4.33 0.47
-2 9 7 4.96 0.56
-2 9 7 5.17 0.46
2 9 -7 6.11 0.59
2 9 7 4.76 0.59
-2 -9 7 4.28 0.52
2 9 -8 30.67 1.95
2 -9 8 32.2 1.94
-2 9 8 34.52 1.98
-2 9 8 33.91 1.93
-2 -9 8 32.31 1.95
-2 9 -8 32.57 1.96
2 9 8 33.44 1.98
-2 9 9 12.14 0.82
-2 9 9 11.37 0.9
2 -9 9 11.01 0.81
-2 9 -9 12.57 0.86
-2 -9 9 11.2 0.86
2 9 9 11.48 0.89
2 -9 10 6.58 0.59
-2 9 10 6.38 0.63
-2 9 10 6.29 0.68
-2 9 -10 5.95 0.65
2 9 10 6.39 0.68
-2 -9 10 6.45 0.65
-2 9 11 6.79 0.72
-2 -9 -11 7.13 0.65
2 -9 11 7.09 0.6
-2 9 11 7.57 0.71
2 -9 11 7.29 0.65
2 9 11 6.52 0.66
2 9 11 7.28 0.74
-2 -9 11 7.91 0.71
2 -9 -11 6.85 0.58
2 -9 12 0.1 0.26
2 9 -12 0.1 0.31
-2 -9 -12 0.51 0.35
-2 9 12 -0.31 0.33
2 -9 12 0.48 0.31
2 9 12 -0.3 0.33
-2 -9 12 0.38 0.33
2 -9 -12 0.29 0.31
-2 -9 12 -0.13 0.29
-2 9 -12 0.38 0.3
2 9 12 0.03 0.34
-2 9 13 9.07 0.75
2 -9 13 9.67 0.68
2 -9 13 8.82 0.79
-2 -9 -13 8.5 0.66
2 9 -13 7.97 0.64
2 -9 -13 9.27 0.67
2 9 13 9.09 0.74
2 9 13 7.9 0.87
-2 -9 13 8.41 0.67
-2 -9 13 8.98 0.83
-2 9 -13 8.48 0.65
2 9 -14 1.49 0.32
-2 9 14 2.14 0.49
2 -9 14 1.37 0.32
-2 -9 -14 0.79 0.33
2 -9 -14 1.52 0.34
2 9 14 1.13 0.37
-2 -9 14 1.11 0.32
-2 9 -14 1.76 0.33
-2 9 15 3.92 0.58
2 -9 15 4.78 0.44
-2 -9 -15 4.7 0.47
2 9 -15 4.23 0.45
-2 9 -15 4.55 0.47
2 9 15 4.54 0.55
-2 -9 15 4.24 0.46
2 -9 -15 5.16 0.47
2 -9 16 2.22 0.35
-2 -9 -16 1.72 0.36
-2 9 16 2.22 0.41
2 9 -16 2.37 0.34
2 -9 -16 1.83 0.33
-2 -9 16 2.01 0.33
2 9 16 1.64 0.35
-2 9 -16 2.74 0.38
2 9 -17 1.06 0.25
2 -9 17 1.52 0.26
-2 -9 -17 1.33 0.28
2 -9 -17 1.44 0.27
-2 -9 17 1.18 0.26
-2 9 -17 1.12 0.27
2 9 -18 1.12 0.24
2 -9 18 1.02 0.23
-2 9 -18 0.99 0.24
-2 -9 18 1.26 0.23
3 9 0 57.14 3.27
3 -9 0 59.11 3.22
3 -9 0 50.21 3.6
3 9 0 61.47 3.27
-3 -9 0 57.98 3.41
-3 9 0 54.67 3.22
3 -9 1 -0.08 0.87
-3 9 1 0.36 0.19
3 -9 1 0.46 0.16
-3 -9 -1 1.11 0.53
3 9 -1 0.98 0.27
3 9 1 0.5 0.3
3 -9 -1 -0.22 0.7
3 9 1 0.58 0.2
-3 9 -1 0.78 0.24
-3 9 -1 0.2 0.2
3 -9 2 51.95 3.45
3 -9 2 52.8 2.99
-3 9 2 52.57 3
3 9 -2 57.38 3.06
-3 -9 -2 48.4 3.17
3 9 2 52.09 3.06
-3 9 -2 54.18 3.03
-3 -9 2 52.97 3.2
3 9 2 54.75 3.01
3 9 2 49.02 3.03
3 -9 3 48.07 3.23
-3 -9 -3 40.52 2.88
-3 9 3 48.87 2.74
3 -9 3 49.1 2.72
3 9 -3 49.95 2.78
3 9 3 47.17 2.82
3 9 3 47.22 2.74
-3 9 -3 49.63 2.76
-3 -9 3 47.61 2.97
3 9 3 49.15 2.79
3 9 -4 25.93 1.55
3 -9 4 23.77 1.98
3 -9 4 23.96 1.44
-3 9 4 24.03 1.48
3 9 4 22.99 1.58
-3 9 -4 24.6 1.51
-3 -9 4 23.25 1.78
3 9 4 26.12 1.54
-3 9 5 55.54 3.34
3 9 -5 61.21 3.4
-3 9 5 59.49 3.33
3 -9 5 58.72 3.34
3 9 5 58.72 3.38
-3 9 -5 58.27 3.37
-3 9 6 2.5 0.34
3 9 -6 2.98 0.55
-3 9 6 3.17 0.48
3 -9 6 3.01 0.37
3 9 6 3.29 0.49
-3 9 -6 3.93 0.52
-3 -9 6 2.51 0.43
3 9 -7 46.38 2.79
3 -9 7 47.8 2.75
-3 9 7 49.71 2.77
-3 9 7 48.33 2.73
-3 9 -7 45.3 2.76
-3 -9 7 48.09 2.76
3 9 7 47.79 2.79
3 9 -8 0.98 0.27
-3 9 8 1.79 0.34
3 -9 8 1 0.21
-3 9 8 1.22 0.29
3 9 8 1.01 0.27
-3 -9 8 1.13 0.27
-3 9 9 21.05 1.24
3 -9 9 19.96 1.24
-3 9 9 20.04 1.3
-3 -9 9 19.28 1.27
-3 9 -9 18.25 1.25
3 9 9 19.38 1.29
-3 9 10 2.06 0.38
-3 9 10 3.12 0.5
3 -9 10 2.66 0.44
-3 9 -10 3.02 0.57
-3 -9 10 3.06 0.54
3 9 10 2.08 0.35
-3 -9 -11 4.36 0.54
3 -9 11 4.65 0.49
3 -9 11 4.74 0.55
-3 9 11 5.37 0.6
3 9 -11 3.31 0.47
3 9 11 4.43 0.55
3 9 11 4.74 0.67
3 -9 -11 4.48 0.46
-3 -9 11 4.65 0.62
-3 9 12 3.29 0.64
3 9 -12 4.68 0.5
-3 9 12 5.24 0.57
3 -9 12 4.72 0.62
3 -9 12 4.54 0.49
-3 -9 -12 4.69 0.56
-3 -9 12 4.02 0.5
3 -9 -12 4.53 0.46
-3 -9 12 3.89 0.65
-3 9 -12 4.46 0.47
3 9 12 3.72 0.68
3 9 12 4.66 0.59
3 9 -13 0.22 0.28
3 -9 13 0.48 0.3
-3 9 13 -0.44 0.34
-3 -9 -13 0.29 0.35
-3 9 13 1.37 0.45
3 -9 13 0.91 0.31
-3 -9 13 0.05 0.32
3 9 13 -0.14 0.36
-3 9 -13 0.02 0.3
3 -9 -13 1.01 0.32
-3 -9 13 0.28 0.33
3 9 13 0.58 0.34
3 9 -14 2.13 0.4
-3 9 14 3.82 0.57
-3 -9 -14 1.99 0.4
3 -9 14 1.67 0.35
3 -9 14 2.81 0.42
3 -9 -14 2.47 0.41
3 9 14 3.54 0.43
-3 9 -14 2.63 0.37
-3 -9 14 2.66 0.41
-3 -9 -15 0.9 0.32
3 9 -15 1.72 0.33
-3 9 15 1.75 0.45
3 -9 15 1.52 0.31
-3 -9 15 1.12 0.31
3 -9 -15 1.12 0.3
-3 9 -15 1.64 0.33
3 9 15 1.33 0.36
-3 9 16 0.99 0.39
3 -9 16 1.22 0.27
3 9 -16 0.83 0.27
-3 -9 -16 0.92 0.3
-3 -9 16 0.8 0.28
-3 9 -16 0.77 0.29
3 9 16 0.6 0.32
3 -9 -16 0.92 0.27
3 9 -17 2.56 0.3
3 -9 17 2.58 0.3
-3 9 17 1.83 0.34
-3 -9 -17 2.09 0.29
3 -9 -17 1.84 0.3
-3 9 -17 1.94 0.33
-3 -9 17 2.04 0.29
3 9 -18 0.28 0.22
3 -9 18 0.33 0.23
-3 -9 -18 -0.08 0.26
-3 9 -18 0.03 0.22
-3 -9 18 0.31 0.21
3 -9 -18 -0.07 0.22
-4 -9 0 0.63 0.52
-4 9 0 -0.22 0.17
4 -9 0 -1.04 0.69
4 9 0 0.09 0.22
-4 9 0 0.03 0.2
4 9 0 -0.19 0.25
-4 -9 -1 1.34 0.5
4 9 -1 0.71 0.24
-4 9 1 0.2 0.17
4 -9 1 -0.22 0.81
4 -9 1 0.33 0.14
-4 9 -1 0.64 0.24
4 9 1 0.2 0.3
4 -9 -1 -0.33 0.58
-4 -9 1 1.31 0.54
4 9 1 0.47 0.2
-4 -9 -2 0.56 0.48
4 9 -2 0.53 0.25
-4 9 2 0.04 0.18
-4 9 -2 0.57 0.23
4 9 2 0.32 0.19
4 9 2 0.41 0.32
-4 -9 2 0.91 0.5
4 -9 3 3.99 0.38
-4 9 3 3.28 0.46
4 9 -3 3.95 0.54
4 9 3 3.79 0.45
-4 -9 3 5.22 0.91
4 9 3 5.34 0.64
-4 9 -3 4.92 0.57
4 9 3 3.72 0.6
4 -9 4 0.88 0.17
4 9 -4 1.23 0.32
-4 9 4 1.02 0.24
-4 9 -4 1.59 0.29
4 9 4 0.73 0.39
4 9 4 0.76 0.2
-4 -9 4 0.24 0.54
4 9 4 1.46 0.33
4 9 -5 1.03 0.31
-4 9 5 1.27 0.24
-4 9 5 1.24 0.19
4 -9 5 0.86 0.18
4 9 5 1.55 0.32
4 9 5 0.64 0.18
-4 9 6 3.65 0.47
-4 9 6 3.13 0.37
4 -9 6 3.06 0.38
4 9 -6 3.54 0.56
-4 9 -6 4.2 0.51
4 9 6 3.26 0.53
-4 9 7 1.63 0.31
4 9 -7 0.95 0.29
4 -9 7 1.21 0.21
-4 9 7 1.51 0.28
4 9 7 1.88 0.33
4 -9 8 1.4 0.23
-4 9 8 2.14 0.34
-4 9 8 1.57 0.3
4 9 8 1.27 0.28
-4 -9 8 1.32 0.29
4 -9 9 0.46 0.21
-4 9 9 0.85 0.23
-4 9 9 0.35 0.29
-4 -9 9 0.43 0.28
-4 9 -9 1.02 0.27
4 9 9 0.53 0.27
-4 9 10 0.01 0.23
-4 -9 -10 -0.16 0.42
4 -9 10 0.06 0.22
-4 -9 10 -0.24 0.28
4 9 10 -0.3 0.27
-4 9 -10 0.22 0.29
4 9 10 -0.19 0.33
4 -9 11 0.03 0.25
4 9 -11 -0.21 0.3
4 -9 11 0.07 0.3
-4 9 11 0.17 0.28
-4 -9 -11 0.69 0.41
4 -9 -11 0.19 0.31
4 9 11 0 0.3
-4 -9 11 -0.06 0.3
4 9 11 0.31 0.34
-4 9 -11 -0.12 0.29
4 -9 12 0.18 0.28
4 -9 12 0.12 0.31
-4 9 12 -0.06 0.31
4 9 -12 0.18 0.3
-4 -9 -12 0.58 0.4
-4 9 12 0.98 0.42
-4 -9 12 -0.38 0.32
-4 -9 12 -0.17 0.31
4 9 12 0.35 0.35
4 -9 -12 0.37 0.3
-4 9 -12 0.27 0.3
4 9 12 -0.14 0.34
4 -9 13 2.51 0.42
4 9 -13 2.14 0.37
-4 -9 -13 2.08 0.42
4 -9 13 1.9 0.36
-4 9 -13 2.41 0.39
-4 -9 13 2.62 0.39
4 9 13 1.89 0.38
4 -9 -13 2.87 0.41
-4 -9 -14 -0.43 0.32
4 -9 14 -0.22 0.28
-4 9 14 0.89 0.43
4 9 -14 0.04 0.28
-4 -9 14 -0.09 0.3
4 9 14 -0.02 0.32
-4 9 -14 0.04 0.29
4 -9 -14 0.02 0.28
-4 -9 -15 0.46 0.31
4 9 -15 0.31 0.27
4 -9 15 0.97 0.29
4 9 15 0.77 0.33
-4 9 -15 0.52 0.3
-4 -9 15 0.39 0.29
4 -9 -15 0.45 0.27
4 9 -16 0.09 0.24
-4 -9 -16 -0.05 0.28
-4 9 16 0.5 0.37
4 -9 16 0.25 0.24
4 -9 -16 -0.06 0.25
-4 -9 16 0.17 0.26
-4 9 -16 0.08 0.27
4 9 16 0.07 0.29
-4 9 17 -0.27 0.3
4 9 -17 -0.12 0.21
-4 -9 -17 -0.18 0.23
4 -9 17 -0.06 0.22
-4 9 -17 -0.37 0.23
4 9 17 -0.23 0.25
4 -9 -17 -0.28 0.22
-4 -9 17 -0.02 0.22
4 -9 18 -0.08 0.22
-4 -9 18 -0.27 0.19
4 -9 -18 -0.28 0.22
-5 -9 0 4.86 0.83
5 9 0 4.66 0.5
-5 9 0 3.52 0.41
-5 9 0 3.02 0.45
5 9 -1 0.68 0.26
-5 9 1 0.37 0.18
5 -9 1 0.47 0.14
-5 -9 -1 0.9 0.51
5 9 1 0.65 0.31
-5 -9 1 0.98 0.55
-5 9 -1 0.7 0.24
5 9 1 0.79 0.22
5 -9 2 16.49 0.96
-5 -9 -2 13.22 1.24
5 9 -2 17.45 1.09
-5 9 2 14.76 0.98
5 9 2 15.71 1.01
-5 9 -2 17.15 1.05
5 9 2 15.23 1.08
-5 -9 2 14.99 1.27
-5 9 3 4.14 0.45
5 9 -3 4.62 0.61
5 -9 3 4.14 0.39
5 9 3 3.98 0.45
-5 9 -3 4.82 0.56
5 9 3 4.27 0.56
5 9 3 5.31 0.66
5 9 -4 7.8 0.75
5 -9 4 7.78 0.56
-5 9 4 8.02 0.61
-5 9 -4 7.89 0.64
5 9 4 7.76 0.6
5 9 4 8.15 0.77
-5 9 5 9.6 0.69
5 -9 5 9.49 0.65
-5 9 5 8.76 0.62
5 9 -5 9.49 0.82
-5 9 -5 9.83 0.74
5 9 5 9.6 0.82
5 9 5 8.79 0.68
-5 9 6 0.66 0.16
5 9 -6 0.57 0.29
5 -9 6 0.4 0.16
-5 9 6 0.8 0.23
5 9 6 0.56 0.29
5 9 6 0.48 0.18
-5 9 -6 1.12 0.26
5 9 -7 12.21 0.98
5 -9 7 14.24 0.9
-5 9 7 13.67 0.88
-5 9 7 14.19 0.93
-5 9 -7 13.43 0.94
5 9 7 14.02 0.99
5 -9 8 0.38 0.19
-5 9 8 0.3 0.26
-5 9 8 0.52 0.18
5 9 8 0.12 0.27
-5 9 -8 0.85 0.27
5 -9 9 0.52 0.22
-5 9 9 0.49 0.22
-5 9 -9 0.97 0.28
5 9 9 0.06 0.27
5 -9 10 0.68 0.26
-5 9 10 0.87 0.27
5 9 -10 1.45 0.34
-5 -9 -10 1.74 0.47
5 -9 10 0.63 0.3
5 9 10 0.46 0.29
5 9 10 1.26 0.36
-5 9 -10 1.23 0.32
5 -9 -10 0.99 0.31
-5 -9 -11 4.71 0.56
5 -9 11 3.53 0.47
5 -9 11 3.59 0.58
5 9 -11 2.91 0.48
-5 9 11 4.18 0.58
-5 9 -11 4.06 0.65
5 -9 -11 4.19 0.49
5 9 11 3.93 0.67
5 9 11 4.09 0.59
-5 -9 -12 3.58 0.51
5 -9 12 3.07 0.57
5 9 -12 2.86 0.43
5 -9 12 3.39 0.46
-5 9 12 2.85 0.6
5 9 12 3.85 0.55
5 -9 -12 3.45 0.42
5 9 12 2.71 0.48
-5 9 -12 3.44 0.44
-5 -9 -13 0.13 0.35
5 -9 13 -0.14 0.27
5 9 -13 -0.01 0.26
-5 9 13 -0.34 0.33
-5 9 13 0.98 0.42
5 -9 13 -0.24 0.3
5 9 13 -0.35 0.37
-5 9 -13 0.21 0.3
5 9 13 0.26 0.32
-5 -9 13 0.13 0.31
5 -9 -13 0.41 0.29
5 -9 -13 0 0.27
-5 9 14 2.58 0.45
-5 -9 -14 1.93 0.37
5 -9 14 1.96 0.34
5 9 -14 1.88 0.34
5 -9 -14 1.75 0.32
-5 9 -14 1.91 0.35
-5 -9 14 1.72 0.34
5 9 14 1.83 0.38
5 -9 15 0.29 0.26
5 9 -15 0.43 0.26
-5 9 15 1.08 0.41
-5 -9 -15 -0.17 0.31
-5 -9 15 0.22 0.28
5 9 15 0.12 0.31
-5 9 -15 0.4 0.29
5 -9 -15 0.06 0.26
-5 -9 -16 0.74 0.29
5 9 -16 0.66 0.24
-5 9 16 1.08 0.37
5 -9 16 0.87 0.25
-5 9 -16 0.68 0.28
-5 -9 16 0.71 0.27
5 -9 -16 0.55 0.25
5 9 16 0.77 0.3
5 9 -17 0.87 0.23
-5 9 17 0.82 0.32
-5 -9 -17 0.57 0.24
5 -9 17 1.3 0.25
-5 9 -17 0.87 0.26
5 -9 -17 0.62 0.24
-5 -9 17 0.83 0.24
5 9 17 0.69 0.27
-6 -9 0 -0.59 0.47
-6 9 0 -0.15 0.14
6 9 0 0.1 0.21
-6 9 0 -0.16 0.2
6 9 -1 66.75 3.45
-6 9 1 59.13 3.37
-6 -9 1 50.81 3.56
-6 9 -1 60.03 3.4
6 9 1 60.23 3.41
6 9 -2 3.69 0.48
-6 9 2 3.01 0.38
6 -9 2 3 0.33
6 9 2 2.89 0.4
6 9 -3 26.68 1.64
6 -9 3 28.28 1.53
-6 9 3 26.14 1.53
6 9 3 25.45 1.55
-6 9 -3 25.96 1.58
6 9 3 22.44 1.63
-6 9 4 35.27 2.05
6 -9 4 33.11 2.03
6 9 -4 36.29 2.15
6 9 4 34.65 2.07
-6 9 -4 36.86 2.09
6 9 4 34.94 2.15
6 -9 5 6.35 0.48
-6 9 5 6.46 0.54
6 9 -5 5.36 0.68
-6 9 5 5.83 0.45
-6 9 -5 6.3 0.6
6 9 5 5.26 0.52
6 9 5 6.26 0.7
6 9 -6 18.88 1.31
6 -9 6 18.42 1.19
-6 9 6 19.35 1.2
-6 9 6 19.35 1.16
6 9 6 19.4 1.3
6 9 6 19.7 1.2
-6 9 -6 19.61 1.23
-6 9 7 6.7 0.49
6 -9 7 5.47 0.51
-6 9 7 5.85 0.56
6 9 7 5.61 0.66
6 -9 8 4.36 0.5
-6 9 8 4.71 0.47
-6 9 -8 4.87 0.57
6 9 8 3.81 0.64
6 -9 9 15.61 1.08
-6 9 9 16.31 1.05
6 9 9 15.89 1.16
-6 9 -9 16.72 1.12
-6 9 10 8.34 0.69
-6 -9 -10 8.07 0.72
6 -9 10 7.91 0.72
6 -9 10 6.71 0.6
6 9 -10 7.42 0.65
6 -9 -10 7.95 0.64
-6 9 -10 8.72 0.76
6 -9 -10 7.8 0.63
6 9 10 7.86 0.7
6 9 10 7.82 0.83
-6 9 11 4.36 0.6
6 -9 11 4.03 0.47
6 -9 11 4.12 0.6
6 9 -11 4.18 0.49
-6 -9 -11 5.44 0.58
6 -9 -11 4.23 0.52
6 -9 -11 4.2 0.5
-6 9 -11 3.97 0.65
6 9 11 3.72 0.71
6 9 11 4.32 0.6
-6 9 12 2.94 0.5
-6 -9 -12 2.08 0.44
6 -9 12 1.26 0.34
6 -9 12 1.42 0.35
6 9 -12 0.94 0.31
-6 9 12 1.1 0.34
6 -9 -12 2.29 0.36
6 9 12 2.04 0.4
6 -9 -12 2.02 0.34
-6 9 -12 1.62 0.35
6 9 12 0.83 0.42
6 -9 13 7.8 0.61
-6 -9 -13 6.92 0.64
-6 9 13 8.41 0.67
6 9 -13 6.57 0.6
6 -9 -13 8.15 0.61
6 -9 -13 7.86 0.61
6 9 13 7.21 0.69
6 9 13 6.4 0.84
-6 9 -13 7.35 0.59
6 -9 14 0.8 0.3
6 9 -14 0.92 0.3
-6 9 14 1.73 0.4
-6 -9 -14 0.66 0.35
6 -9 -14 0.95 0.29
6 9 14 0.46 0.33
-6 9 -14 0.83 0.32
-6 -9 14 0.21 0.29
-6 -9 -15 4.99 0.48
6 -9 15 5.04 0.45
-6 9 15 4.72 0.54
6 9 -15 4.66 0.46
-6 9 -15 4.62 0.43
6 -9 -15 4.95 0.43
6 9 15 4.47 0.51
-6 9 16 3.35 0.42
6 9 -16 3.27 0.33
6 -9 16 2.75 0.34
-6 -9 -16 2.58 0.36
-6 9 -16 3.32 0.37
6 9 16 2.93 0.4
6 -9 -16 2.9 0.35
-6 9 17 1.14 0.31
6 9 -17 1.02 0.23
6 -9 17 0.78 0.23
6 -9 -17 1.4 0.27
-6 9 -17 0.88 0.25
6 9 17 0.83 0.27
7 9 0 99.05 5.54
-7 9 0 96.03 5.49
7 9 -1 7.01 0.62
-7 9 1 5.82 0.51
-7 9 -1 6.49 0.58
7 9 1 6.67 0.57
-7 9 2 89.86 5.16
7 9 -2 94.48 5.23
7 -9 2 91.63 5.16
7 9 2 89.96 5.19
-7 9 -2 91.94 5.19
7 9 -3 96.02 5.29
7 -9 3 90.19 5.2
-7 9 3 92.07 5.2
-7 9 -3 95.9 5.24
7 9 3 87.28 5.23
-7 9 4 54.7 3.1
7 -9 4 54.37 3.09
7 9 -4 55.87 3.2
7 9 4 54.58 3.12
7 9 4 50.93 3.19
-7 9 -4 53.92 3.13
-7 9 5 87.91 5.04
7 9 -5 93.23 5.16
-7 9 5 88.7 5.06
7 9 5 88.27 5.14
7 9 5 91.28 5.08
-7 9 -5 87.29 5.08
-7 9 6 4.93 0.51
7 9 -6 4.16 0.62
7 -9 6 5 0.46
-7 9 6 5.24 0.43
7 9 6 5.04 0.5
7 9 6 4.89 0.72
-7 9 -6 5.16 0.56
7 -9 7 38.56 2.15
-7 9 7 36.54 2.13
-7 9 -7 34.64 2.17
7 9 7 35.57 2.15
7 9 7 36.99 2.25
-7 9 8 3 0.41
7 -9 8 3.32 0.46
-7 9 -8 3.72 0.56
7 9 8 2.49 0.44
-7 -9 -9 5.53 0.67
7 -9 9 4.86 0.56
-7 9 9 4.27 0.51
-7 9 -9 4.73 0.63
7 9 9 3.54 0.57
7 9 9 3.59 0.68
7 -9 -9 3.99 0.46
7 -9 10 1.48 0.35
-7 9 10 1.5 0.31
7 -9 10 1.57 0.32
7 -9 10 0.98 0.33
7 9 -10 1.87 0.39
7 9 10 1.1 0.38
7 9 10 2.04 0.42
7 -9 -10 2.16 0.42
-7 9 -10 1.45 0.37
7 -9 -10 1.99 0.41
-7 9 11 0.95 0.31
7 -9 11 1.18 0.31
7 -9 11 1.1 0.37
7 9 -11 1.38 0.35
7 -9 11 1.73 0.35
7 9 11 0.88 0.39
-7 9 -11 0.85 0.35
7 9 11 1.56 0.41
7 9 -12 4 0.46
-7 -9 -12 4.33 0.57
-7 9 12 2.94 0.62
7 -9 12 4.01 0.49
7 -9 12 3.66 0.52
7 9 12 2.99 0.53
7 -9 -12 4.81 0.49
-7 9 -12 4.81 0.47
7 -9 -12 4.27 0.48
7 9 12 4.25 0.59
7 9 -13 1.51 0.34
7 -9 13 1.01 0.32
7 9 13 0.79 0.34
7 -9 -13 1.25 0.32
-7 -9 13 0.75 0.34
7 9 -14 5.48 0.51
-7 9 14 6.02 0.58
7 -9 14 5.72 0.51
-7 -9 -14 5.89 0.55
7 9 14 5.86 0.58
7 -9 -14 5.8 0.49
-7 9 -14 5.63 0.51
7 9 -15 4.27 0.41
-7 9 15 4.13 0.49
7 -9 15 3.59 0.39
-7 -9 -15 3.69 0.43
-7 9 -15 4.42 0.41
7 -9 -15 3.4 0.38
7 9 15 3.57 0.45
-7 9 16 1.72 0.36
7 9 -16 1.66 0.3
-7 -9 -16 1.4 0.3
7 -9 16 1.39 0.26
7 -9 -16 1.44 0.27
-7 9 -16 1.28 0.28
7 9 16 1.25 0.29
7 9 -17 2.01 0.28
-7 9 17 1.94 0.32
-7 9 -17 1.57 0.26
7 9 17 1.55 0.27
7 -9 -17 1.83 0.29
8 9 0 0.09 0.19
-8 9 0 0 0.17
8 9 -1 19.54 1.23
-8 9 1 18.56 1.15
-8 9 -1 17.9 1.19
8 9 1 18.98 1.2
-8 9 2 0.31 0.17
8 9 -2 0.28 0.23
8 9 2 0.38 0.19
-8 9 -2 0.25 0.23
8 9 -3 17.07 1.18
8 -9 3 17.28 1.04
-8 9 3 16.57 1.05
8 9 3 16.62 1.09
-8 9 -3 16.53 1.11
8 -9 4 3.89 0.41
8 9 -4 4.03 0.64
-8 9 4 4.39 0.47
-8 9 -4 5.03 0.55
8 9 4 4.76 0.48
8 -9 5 1.57 0.3
-8 9 5 0.9 0.23
8 9 -5 0.49 0.3
-8 9 5 1.16 0.19
8 9 5 0.61 0.21
8 9 5 0.7 0.37
-8 9 -5 1.39 0.29
8 -9 6 3.06 0.39
-8 9 6 3.25 0.37
8 9 6 2.23 0.47
8 9 6 3.32 0.45
-8 9 -6 3.33 0.54
8 -9 7 1.55 0.27
-8 9 7 2.48 0.39
8 9 7 2.14 0.41
-8 9 -7 2.98 0.52
8 9 7 1.7 0.44
8 -9 8 0.5 0.31
8 -9 8 0.28 0.22
-8 9 8 0.43 0.21
8 9 -8 0.09 0.31
-8 -9 8 1.12 0.33
8 9 8 0.16 0.38
-8 9 -8 0.66 0.29
8 -9 -8 0.38 0.25
8 9 8 0.1 0.16
8 9 -9 6.86 0.59
-8 9 9 6.09 0.59
8 -9 9 4.9 0.63
8 -9 9 5.56 0.63
8 -9 -9 6.24 0.57
-8 -9 9 7.47 0.6
8 9 9 6.16 0.72
8 9 9 5.17 0.85
-8 9 -9 7.29 0.72
-8 9 10 0.14 0.26
8 -9 10 0.53 0.29
8 -9 10 0.36 0.34
8 -9 10 0.1 0.32
8 9 -10 0.43 0.33
8 9 10 0.8 0.4
8 -9 -10 0.57 0.37
8 -9 -10 0.52 0.28
8 9 10 -0.15 0.38
-8 9 -10 0.48 0.35
8 9 -11 0.24 0.3
8 -9 11 0.19 0.34
-8 -9 -11 1.48 0.46
-8 9 11 0.07 0.28
8 -9 11 0.01 0.23
8 -9 11 0.47 0.33
8 9 11 0.58 0.38
-8 9 -11 -0.26 0.34
8 -9 -11 0.39 0.27
8 -9 -11 0.41 0.34
8 9 11 -0.11 0.38
8 -9 12 -0.14 0.32
-8 9 12 -0.32 0.3
-8 -9 -12 1.1 0.43
8 9 -12 0.24 0.3
8 -9 12 0.27 0.32
-8 9 12 0.9 0.36
-8 9 -12 0.71 0.33
8 -9 -12 0.4 0.28
8 9 12 -0.06 0.4
8 9 12 0.39 0.35
8 -9 -12 0.5 0.31
8 -9 13 3.67 0.45
8 -9 13 3.44 0.47
-8 9 13 4.04 0.47
-8 -9 -13 4.47 0.51
8 9 -13 3.51 0.47
8 -9 -13 3.78 0.43
-8 9 -13 3.91 0.44
8 9 13 3.34 0.54
8 -9 14 0.37 0.25
-8 9 14 1.14 0.36
-8 -9 -14 1.03 0.36
8 9 -14 0.97 0.27
8 -9 14 0.57 0.28
8 9 14 0.62 0.3
-8 9 -14 1.43 0.31
8 -9 -14 0.88 0.28
8 -9 15 0.87 0.25
-8 9 15 2.06 0.36
8 9 -15 1.19 0.26
-8 -9 -15 1.76 0.34
-8 9 -15 1.4 0.29
8 -9 -15 1.77 0.32
8 9 15 1.29 0.3
8 9 -16 1.07 0.23
-8 9 16 1.39 0.32
8 -9 -16 0.98 0.25
-8 9 -16 1.14 0.26
8 9 16 0.69 0.26
-9 9 0 0.3 0.18
9 9 0 0.3 0.22
-9 9 1 0 0.17
9 9 -1 0.09 0.23
9 9 1 -0.01 0.17
-9 9 -1 -0.16 0.21
-9 9 2 0.88 0.21
9 9 -2 0.73 0.27
-9 9 -2 0.54 0.26
9 9 2 0.78 0.2
9 9 -3 0.78 0.3
-9 9 3 1.1 0.22
-9 9 -3 0.84 0.26
9 9 3 1.14 0.24
-9 9 4 0.09 0.2
-9 9 4 0.19 0.15
9 9 -4 -0.01 0.3
9 -9 4 0.24 0.16
9 9 4 0.23 0.19
-9 9 -4 0.2 0.25
-9 9 5 2.32 0.37
9 -9 5 2.59 0.37
9 9 -5 1.97 0.4
9 9 5 2.87 0.44
-9 9 -5 3.1 0.54
-9 9 6 0.09 0.17
9 9 -6 -0.19 0.24
9 -9 6 0.09 0.19
9 -9 6 0.09 0.25
-9 9 -6 0.27 0.26
9 9 6 -0.19 0.41
9 9 6 0.05 0.19
9 -9 -6 0.06 0.21
9 9 -7 2.14 0.41
-9 9 7 3.12 0.43
9 -9 7 2.71 0.39
9 -9 7 3.28 0.46
-9 9 -7 4.17 0.59
-9 -9 7 3.72 0.53
9 -9 -7 2.84 0.42
9 9 7 2.39 0.52
9 9 7 3.16 0.51
9 -9 8 -0.06 0.23
9 -9 8 -0.2 0.33
-9 9 8 0.08 0.21
9 9 8 -0.03 0.31
-9 9 -8 0.41 0.3
-9 -9 8 1.03 0.33
9 -9 -8 -0.01 0.25
9 9 8 -0.33 0.41
9 -9 9 -0.01 0.33
-9 9 9 0.36 0.25
9 9 -9 -0.05 0.33
-9 9 -9 0.83 0.34
9 9 9 0.02 0.43
9 -9 -9 0.33 0.27
9 -9 -9 -0.13 0.37
9 9 9 0.5 0.42
-9 9 10 0.11 0.27
9 -9 10 -0.5 0.25
9 9 -10 -0.17 0.29
9 -9 10 0.33 0.32
9 -9 -10 0.04 0.25
9 -9 -10 -0.12 0.35
9 9 10 0.26 0.4
-9 9 -10 0.08 0.35
9 9 10 -0.33 0.41
9 9 -11 1.74 0.36
9 -9 11 2.43 0.38
9 -9 11 2.43 0.4
-9 9 11 1.68 0.35
9 9 11 2.96 0.44
9 -9 -11 2.14 0.38
9 9 11 1.95 0.48
9 -9 -11 2.4 0.48
9 9 -12 0.32 0.3
9 -9 12 0.36 0.31
9 -9 12 0.23 0.31
-9 9 12 1.04 0.35
9 -9 -12 0.48 0.31
9 9 12 -0.31 0.34
9 -9 -12 0.38 0.27
9 9 12 0.46 0.34
-9 9 -12 0.47 0.32
9 -9 13 -0.1 0.26
9 9 -13 0.19 0.26
-9 9 13 0.48 0.33
9 -9 13 -0.05 0.28
-9 -9 -13 0.12 0.38
9 -9 -13 0.2 0.28
-9 9 -13 0.41 0.29
9 9 13 -0.07 0.3
-9 -9 13 0.82 0.3
9 9 -14 0.35 0.23
-9 -9 -14 0.31 0.34
9 -9 14 0.19 0.24
-9 9 14 0.7 0.33
9 -9 -14 0.34 0.25
9 9 14 0.33 0.27
-9 9 -14 0.36 0.28
-9 -9 14 0.81 0.27
9 9 -15 0.32 0.21
-9 9 15 0.73 0.32
9 -9 -15 0.01 0.22
-9 9 -15 0.04 0.24
9 9 15 0.01 0.26
-9 9 16 0.45 0.31
9 9 -16 0.26 0.21
9 -9 -16 0.15 0.22
9 9 16 0.01 0.24
-10 9 0 -0.06 0.19
10 9 0 -0.01 0.21
10 9 -1 21.4 1.34
-10 9 1 20.98 1.24
10 9 1 20.22 1.29
-10 9 -1 16.81 1.26
10 9 -2 1.56 0.32
-10 9 2 2.04 0.37
10 9 2 2.36 0.42
-10 9 -2 1.33 0.3
-10 9 3 20.03 1.31
10 9 -3 21.54 1.47
-10 9 -3 21.87 1.38
10 9 3 21.84 1.36
-10 9 4 13.27 0.88
10 9 -4 13.44 1.06
-10 9 -4 13.7 0.99
10 9 4 13.05 0.94
-10 -9 -5 5.91 0.64
-10 9 5 7.46 0.57
10 9 -5 6.92 0.74
10 -9 5 7.33 0.58
10 9 5 7.06 0.63
-10 9 -5 7.43 0.72
10 -9 6 11.03 0.84
-10 -9 -6 12.35 0.89
10 -9 6 12.14 0.83
-10 9 6 12.68 0.84
10 9 -6 13.43 0.84
-10 -9 6 10.78 0.85
10 -9 -6 10.7 0.82
10 9 6 11.94 0.89
-10 9 -6 12.92 0.95
-10 9 7 1.06 0.26
10 9 -7 0.7 0.34
10 -9 7 0.89 0.25
10 -9 7 1.36 0.34
-10 9 -7 0.87 0.31
10 9 7 0.12 0.47
10 -9 -7 1.2 0.29
10 9 7 0.7 0.25
-10 9 8 3.95 0.53
10 9 -8 3.32 0.52
10 -9 8 4.46 0.54
10 9 8 3.05 0.6
-10 9 -8 4.35 0.65
10 -9 -8 3.9 0.46
-10 -9 8 4.67 0.56
10 -9 9 5.59 0.58
10 9 -9 5.26 0.57
-10 9 9 6.12 0.62
10 9 9 6.58 0.75
10 -9 -9 5.95 0.54
10 -9 -9 5.12 0.64
10 9 9 4.85 0.95
-10 9 -9 7.07 0.78
-10 -9 -10 4.13 0.6
-10 9 10 3.35 0.55
10 -9 10 3.12 0.48
10 9 -10 2.52 0.45
10 9 10 2.54 0.55
10 -9 -10 3.91 0.54
-10 9 -10 3.49 0.69
10 9 10 4.18 0.65
10 -9 -10 4 0.45
10 9 -11 3.68 0.46
10 -9 11 3.38 0.49
10 9 11 4.08 0.61
10 -9 -11 3.72 0.51
10 -9 -11 3.52 0.44
-10 -9 -12 1.19 0.43
-10 9 12 1.21 0.34
10 -9 12 0.44 0.28
10 9 -12 0.11 0.27
10 -9 -12 0.65 0.3
-10 -9 12 1.11 0.31
10 9 12 0.3 0.34
-10 9 -12 -0.09 0.31
10 -9 13 7.17 0.55
10 9 -13 6.66 0.55
-10 9 13 6.61 0.59
-10 -9 -13 7.21 0.62
10 9 13 7.46 0.62
-10 -9 13 8.4 0.58
10 -9 -13 7.22 0.55
-10 9 -13 6.39 0.55
-10 -9 -14 -0.08 0.3
10 9 -14 0.64 0.22
-10 9 14 0.54 0.31
10 -9 14 0.23 0.22
10 9 14 0.38 0.27
-10 -9 14 0.62 0.25
10 -9 -14 0.19 0.23
-10 9 -14 0.27 0.26
-10 9 15 4.56 0.44
10 9 -15 4.44 0.39
10 -9 -15 5.02 0.4
10 9 15 5.18 0.46
11 9 0 16.15 1.14
-11 9 0 16.1 1.06
-11 9 1 0.62 0.23
11 9 -1 0.55 0.29
11 9 1 1.02 0.27
11 9 -2 15.96 1.09
-11 -9 -2 11.36 0.88
-11 9 2 12.96 0.91
-11 9 -2 12.81 0.99
11 9 2 14.67 0.97
11 9 -3 17.81 1.27
-11 -9 -3 14.68 1.07
-11 9 3 17.77 1.08
11 9 3 17.01 1.14
-11 9 -3 17.22 1.17
-11 -9 -4 6.48 0.64
11 9 -4 5.2 0.74
-11 9 4 6.26 0.53
11 9 -4 4.76 0.5
11 -9 4 5.55 0.51
-11 9 -4 5.47 0.7
11 9 4 5.8 0.6
11 9 -5 29.46 1.7
11 -9 5 30.41 1.7
-11 -9 -5 26.21 1.71
-11 9 5 30.1 1.72
11 9 5 28.46 1.76
-11 9 -5 30.47 1.8
-11 -9 5 23.93 1.69
11 9 -6 0.44 0.3
11 -9 6 0.26 0.29
-11 9 6 0.49 0.24
11 9 6 0.29 0.24
-11 9 -6 0.41 0.33
11 -9 -6 0.51 0.27
-11 -9 6 0.9 0.32
11 9 -7 30.97 1.85
11 -9 7 32.69 1.82
-11 9 7 31.4 1.86
-11 -9 -7 31.27 1.88
-11 9 -7 31.2 1.93
-11 -9 7 26.55 1.82
-11 9 8 0.41 0.25
11 -9 8 0.79 0.31
11 9 -8 0.63 0.32
-11 9 -8 0.16 0.33
11 9 8 0.51 0.36
11 -9 -8 0.7 0.28
11 -9 9 8.06 0.69
-11 -9 -9 9.61 0.82
-11 9 9 8.17 0.74
11 9 9 8.68 0.86
-11 -9 9 8.49 0.7
11 -9 -9 8.12 0.74
11 -9 -9 9.23 0.66
-11 9 -9 8.27 0.86
11 9 -10 3.92 0.49
11 -9 10 3.4 0.49
-11 -9 -10 4.57 0.61
11 9 10 3.76 0.53
-11 -9 10 5.08 0.51
11 -9 -10 3.37 0.44
11 -9 -10 3.74 0.55
11 -9 11 6.89 0.59
-11 -9 -11 6.75 0.7
11 9 -11 5.75 0.57
-11 9 11 6.82 0.58
11 9 11 7.04 0.69
11 -9 -11 7.29 0.62
-11 -9 11 7.56 0.59
11 9 -12 4.68 0.47
-11 -9 -12 4.49 0.55
-11 9 12 4.58 0.49
11 -9 12 4.36 0.45
11 -9 -12 4.77 0.5
11 9 12 4.58 0.54
-11 -9 12 5.47 0.46
11 9 -13 0.78 0.25
-11 9 13 1.41 0.32
-11 -9 -13 1.42 0.37
11 -9 13 0.98 0.25
11 -9 -13 1.26 0.28
11 9 13 0.84 0.31
11 -9 14 1.92 0.29
-11 9 14 2.22 0.35
11 9 -14 2.07 0.29
11 -9 -14 1.88 0.33
11 9 14 2.2 0.32
-11 -9 14 2.33 0.33
-11 9 15 1.71 0.32
11 9 -15 1.82 0.28
11 9 15 1.48 0.29
11 -9 -15 1.11 0.27
12 9 0 0.06 0.16
-12 9 0 -0.06 0.22
12 9 0 0.11 0.27
12 9 -1 13.81 1.05
12 9 1 12.82 0.99
-12 9 -1 11.36 0.89
-12 -9 -2 3.08 0.47
12 9 -2 1.94 0.42
12 9 -2 2.43 0.39
-12 9 2 2.38 0.41
12 9 2 2.76 0.53
12 -9 3 9.52 0.67
12 9 -3 9.68 0.94
-12 -9 -3 8.99 0.72
-12 9 3 9.63 0.71
12 9 -3 9.37 0.67
-12 9 -3 7.81 0.82
12 9 3 9.79 0.81
-12 -9 -4 6.2 0.61
12 -9 4 5.24 0.51
12 9 -4 5.75 0.52
-12 9 4 5.29 0.54
12 9 4 5.04 0.62
-12 9 -4 4.53 0.7
-12 9 5 1.54 0.29
12 9 -5 1.87 0.36
-12 -9 5 1.78 0.35
12 -9 -5 1.54 0.33
-12 9 -5 0.97 0.37
12 9 5 1.59 0.31
-12 9 6 7.07 0.64
12 -9 6 6.85 0.61
12 9 -6 6.89 0.6
-12 -9 6 6.22 0.62
12 -9 -6 7.21 0.61
-12 9 -6 7.12 0.81
12 9 -7 0.43 0.3
12 -9 7 0.8 0.31
-12 9 -7 0.54 0.35
-12 -9 7 0.96 0.3
12 -9 -7 1.2 0.31
12 9 -8 3.83 0.49
12 -9 8 4.76 0.53
12 -9 -8 4.88 0.49
-12 9 -8 3.83 0.68
-12 -9 8 4.99 0.52
12 -9 9 2.93 0.37
12 9 -9 2.63 0.45
12 -9 -9 3 0.46
12 -9 -9 2.77 0.4
12 9 9 3.06 0.52
-12 -9 -10 3.46 0.6
12 9 -10 2.01 0.37
12 -9 10 2.84 0.36
-12 -9 10 3.06 0.44
12 -9 -10 2.43 0.43
12 9 10 2.42 0.46
12 9 -11 0.59 0.28
-12 -9 -11 0.83 0.43
12 -9 11 0.71 0.26
-12 9 11 1.01 0.32
12 -9 -11 0.31 0.31
12 9 11 0.63 0.37
-12 -9 11 1.05 0.27
-12 9 12 0.33 0.3
12 9 -12 0.17 0.23
12 -9 12 0 0.22
-12 -9 -12 0.26 0.36
12 -9 -12 0.05 0.26
12 9 12 0.22 0.31
12 9 -13 1.76 0.21
-12 9 13 1.28 0.33
12 9 -13 1.56 0.29
12 -9 13 1.61 0.25
12 9 13 1.74 0.33
-12 -9 13 2.11 0.33
12 -9 -13 1.79 0.34
12 9 -14 0.29 0.1
-12 9 14 0.48 0.28
12 9 -14 0.68 0.21
12 -9 14 0.02 0.18
12 9 14 0.31 0.28
12 -9 -14 0.24 0.24
-12 -9 14 0.53 0.22
13 9 0 0.31 0.24
13 9 0 0.23 0.32
13 9 -1 -0.03 0.23
13 9 -1 -0.15 0.32
-13 9 -1 -0.11 0.22
13 9 1 0.13 0.3
13 -9 -1 -0.27 0.14
13 9 1 0.04 0.24
13 9 -2 0.13 0.25
13 9 -2 -0.07 0.33
-13 -9 -2 0.55 0.32
13 -9 2 -0.01 0.2
13 9 2 0.18 0.23
13 9 2 0.17 0.28
13 9 -3 -0.06 0.29
13 9 -3 0.03 0.25
13 -9 3 -0.1 0.24
-13 -9 -3 0.69 0.34
13 9 3 0.1 0.26
13 9 -4 0.49 0.27
13 -9 4 0.36 0.27
13 9 4 0.32 0.25
-13 -9 4 -0.15 0.29
13 9 -5 0.39 0.26
13 -9 5 -0.02 0.27
-13 -9 5 -0.09 0.29
13 -9 -5 0.18 0.31
13 9 -6 0.09 0.26
13 -9 6 -0.18 0.27
13 -9 -6 0.38 0.3
-13 -9 6 0.35 0.29
13 -9 7 0.83 0.3
13 9 -7 0.77 0.31
13 -9 -7 0.99 0.3
-13 -9 7 1.01 0.3
13 9 -8 0.32 0.19
13 9 -8 -0.02 0.28
13 -9 8 0.01 0.26
-13 -9 8 0.57 0.28
13 -9 9 0.22 0.26
13 9 -9 0.14 0.28
-13 -9 -9 0.95 0.45
13 9 -9 0.19 0.16
13 9 9 0.33 0.31
13 -9 -9 0.26 0.32
13 -9 10 0.04 0.24
13 9 -10 0.37 0.18
-13 9 10 0.26 0.31
13 9 -10 0.07 0.26
-13 -9 -10 0.86 0.44
13 9 10 0.12 0.37
-13 -9 10 0.69 0.26
13 -9 -10 0.11 0.31
13 9 -11 0.26 0.16
-13 9 11 -0.06 0.29
13 -9 11 0.02 0.22
-13 -9 -11 0.65 0.4
13 9 -11 0.22 0.24
13 -9 -11 0.11 0.28
-13 -9 11 0.63 0.24
13 9 11 0 0.32
-13 9 12 -0.16 0.29
13 9 -12 0.45 0.14
13 -9 12 0.3 0.2
13 9 -12 0.5 0.22
-13 -9 -12 -0.11 0.33
-13 -9 12 0.78 0.23
13 -9 -12 0.26 0.27
13 9 12 0.42 0.31
13 -9 13 -0.05 0.18
-13 9 13 -0.26 0.27
13 9 -13 0.2 0.2
13 -9 -13 0 0.24
-13 -9 13 0.49 0.22
13 9 13 0.06 0.28
14 9 0 0.18 0.33
14 9 0 0.22 0.25
14 9 -1 7.82 0.89
14 9 -1 6.71 0.57
-14 -9 -1 7.28 0.65
14 -9 -1 6.96 0.5
14 9 1 7.07 0.57
14 9 1 8.36 0.83
14 -9 2 0.65 0.22
14 9 -2 0.9 0.27
-14 -9 -2 1.13 0.33
14 9 2 0.54 0.3
14 9 2 0.77 0.25
14 -9 -2 0.74 0.2
-14 -9 -3 4.97 0.58
14 -9 3 4.67 0.44
14 9 -3 3.4 0.42
14 9 3 4.71 0.63
14 9 -4 1.64 0.3
14 -9 4 1.3 0.28
14 9 -5 0.29 0.25
14 -9 5 0.74 0.26
14 -9 -5 0.13 0.15
-14 -9 5 0.47 0.31
14 9 -6 3.82 0.45
14 -9 6 3.57 0.43
-14 -9 6 3.78 0.49
14 9 -7 1.75 0.34
14 -9 7 1.64 0.31
-14 -9 7 2.19 0.43
-14 -9 -8 8.05 0.72
14 9 -8 6.81 0.6
14 -9 8 7.02 0.58
-14 -9 8 7.01 0.6
-14 9 9 7.35 0.62
-14 -9 -9 9.16 0.75
14 9 -9 9.14 0.66
14 -9 9 8.84 0.63
-14 -9 9 8.72 0.64
14 -9 10 2.06 0.33
-14 9 10 1.71 0.35
-14 -9 -10 2.4 0.5
14 9 -10 1.98 0.36
-14 -9 -11 2.71 0.42
14 -9 11 2.64 0.33
14 9 -11 2.67 0.34
-14 -9 11 3.38 0.35
14 -9 12 0.06 0.19
14 9 -12 0.31 0.21
-14 -9 12 0.54 0.23
15 9 -1 1.76 0.3
-15 -9 -1 1.75 0.34
15 9 1 1.47 0.28
15 9 -2 4.62 0.44
-15 -9 -2 4.76 0.52
15 -9 -2 4.07 0.37
15 9 -3 14.68 0.92
-15 -9 -3 14.28 0.98
15 -9 3 15.12 0.9
15 -9 -3 13.01 0.86
15 9 -4 3.95 0.44
15 -9 4 4.11 0.41
15 -9 -4 3.14 0.33
15 9 -5 24.83 1.42
15 -9 5 25.07 1.39
-15 -9 -5 22.88 1.43
-15 -9 5 20.22 1.41
15 -9 6 2.59 0.37
15 9 -6 2.11 0.39
-15 -9 6 2.16 0.36
15 -9 7 23.25 1.31
-15 -9 -7 21.59 1.37
15 9 -7 22.06 1.33
-15 -9 7 20.26 1.33
-15 -9 -8 1.32 0.39
15 9 -8 0.64 0.26
15 -9 8 0.51 0.23
-15 -9 8 0.48 0.27
15 -9 9 5.65 0.43
-15 -9 -9 4.45 0.53
15 9 -9 4.3 0.43
-15 -9 9 5.16 0.46
15 -9 10 3.59 0.37
15 9 -10 4.74 0.4
-15 -9 10 4.19 0.4
15 -9 11 1.47 0.23
15 9 -11 1.44 0.28
-15 -9 11 2.16 0.31
-16 -9 0 0.34 0.28
16 9 0 0.17 0.22
16 9 -1 28.4 1.57
-16 -9 -1 24.25 1.58
-16 -9 -2 3.75 0.51
16 9 -2 3.4 0.4
16 9 -3 12.17 0.8
-16 -9 -3 11.76 0.86
-16 -9 -4 5.09 0.55
16 9 -4 4.67 0.43
16 -9 -4 3.92 0.36
16 9 -5 2.4 0.36
16 -9 5 2.81 0.33
16 -9 -5 1.9 0.26
16 9 -6 6.87 0.52
16 -9 6 5.61 0.49
-16 -9 -6 6.36 0.59
16 9 -7 0.22 0.22
-16 -9 -7 0.83 0.36
16 -9 7 0.17 0.21
-16 -9 7 0 0.26
-16 -9 -8 4.48 0.53
16 9 -8 5.74 0.45
16 -9 8 5.48 0.44
-16 -9 8 5.28 0.48
16 9 -9 5.17 0.42
16 -9 9 4.54 0.41
-16 -9 9 4.67 0.43
16 -9 10 1.56 0.25
16 9 -10 1.43 0.28
-16 -9 10 1.74 0.31
-17 -9 0 2.03 0.41
17 9 -1 0.31 0.21
-17 -9 -1 0.61 0.28
-17 -9 1 0.24 0.26
17 9 -2 2.42 0.34
-17 -9 -2 2.34 0.46
-17 -9 2 2.3 0.35
17 9 -3 1.63 0.3
-17 -9 -3 1.91 0.34
17 9 -4 1.59 0.31
-17 -9 -4 2.1 0.36
17 9 -5 2.41 0.33
-17 -9 -5 2.18 0.46
-17 -9 -6 0.65 0.33
17 9 -6 0.31 0.2
17 9 -7 3.33 0.34
-17 -9 -7 2.45 0.42
17 9 -8 -0.06 0.19
-18 -9 0 0.04 0.25
-18 -9 -1 2.52 0.38
-18 -9 1 2.74 0.4
-18 -9 -2 0.35 0.26
-18 -9 2 0.53 0.26
18 9 -3 2.45 0.32
-18 -9 -3 2.75 0.36
-18 -9 3 2.81 0.41
18 9 -4 0.53 0.21
-18 -9 -4 0.53 0.29
-18 -9 -5 1.5 0.34
18 9 -5 1.13 0.24
18 9 -6 0.4 0.22
-19 -9 0 4.62 0.41
-19 -9 -1 0.07 0.25
-19 -9 1 0.18 0.24
-19 -9 -2 3.47 0.39
-19 -9 2 3.24 0.38
0 10 1 1.16 0.24
0 -10 -1 1.18 0.68
0 -10 1 1.69 0.71
0 10 1 0.88 0.26
0 10 -1 0.71 0.22
0 10 2 3.07 0.52
0 -10 -2 2.33 0.7
0 -10 2 3.15 0.34
0 10 -2 3.91 0.5
0 -10 2 3.72 0.84
0 10 -3 39.54 2.22
0 10 3 37.73 2.21
0 -10 3 35.9 2.57
0 -10 3 37.44 2.17
0 -10 4 20.99 1.19
0 10 -4 19.23 1.26
0 10 4 18.43 1.21
0 -10 4 17.99 1.68
0 -10 5 97.08 5.42
0 10 -5 95.4 5.44
0 10 5 95.6 5.43
0 -10 6 9.94 0.69
0 10 6 9.72 0.76
0 10 -6 9.04 0.77
0 10 7 57.87 3.26
0 10 -7 55.96 3.25
0 -10 7 55.24 3.23
0 10 -8 0.73 0.27
0 10 8 0.59 0.29
0 -10 8 0.48 0.21
0 10 8 0.41 0.19
0 10 9 39.86 2.27
0 10 -9 34.87 2.24
0 -10 9 38.64 2.24
0 -10 10 14.08 1
0 10 10 14.22 1.04
0 10 11 16.86 1.2
0 -10 -11 15.69 1.05
0 -10 11 15.71 1.04
0 -10 11 17.55 1.15
0 -10 12 6.65 0.7
0 10 12 5.96 0.63
0 -10 12 6.71 0.58
0 10 -12 5.57 0.55
0 10 12 6.21 0.75
0 -10 -12 6.4 0.56
0 10 -13 1.14 0.33
0 -10 13 1.59 0.33
0 -10 13 1.41 0.35
0 10 13 1.85 0.39
0 -10 14 1.87 0.38
0 -10 14 2.72 0.41
0 10 -14 2 0.4
0 10 14 2.53 0.4
0 -10 -14 3.16 0.43
0 -10 -15 3.69 0.44
0 10 15 2.97 0.46
0 10 -15 4.65 0.43
0 -10 15 3.44 0.43
0 -10 -16 1.96 0.34
0 -10 16 1.75 0.32
0 10 -16 1.57 0.31
0 10 -17 3.61 0.35
0 -10 -17 2.8 0.32
0 -10 17 2.98 0.32
0 10 -18 0.49 0.22
0 -10 18 0.58 0.24
0 -10 -18 0.46 0.22
-1 10 0 -0.08 0.22
-1 -10 0 0.74 0.64
1 10 0 0.24 0.13
-1 10 0 0.36 0.25
1 -10 0 -0.08 0.14
1 10 0 0.11 0.21
1 -10 0 0.91 0.81
1 -10 1 29.49 1.7
-1 10 1 26.62 1.73
-1 -10 -1 28.17 2.04
1 -10 1 29.19 2.21
1 10 -1 31.15 1.77
-1 10 1 29.67 1.74
1 -10 -1 27.79 2.17
-1 10 -1 28.44 1.72
1 10 1 30.83 1.75
1 10 1 29.38 1.76
-1 -10 1 30.18 2.05
-1 10 -1 31.33 1.77
-1 10 2 1.45 0.27
1 -10 2 1.96 0.85
-1 -10 -2 0.86 0.61
1 -10 2 0.82 0.18
-1 -10 2 2.36 0.7
1 -10 -2 0.4 0.65
1 10 2 1.26 0.36
1 10 2 1.38 0.3
-1 10 -2 1.24 0.23
1 10 2 1.11 0.22
1 10 -3 42.47 2.36
1 -10 3 44.01 2.3
1 -10 3 40.58 2.77
-1 10 3 42.43 2.33
-1 10 -3 40.91 2.34
1 10 3 41.42 2.33
-1 10 -3 33.3 2.27
-1 -10 3 39.98 2.61
1 10 3 33.46 2.36
1 -10 4 15.28 0.95
1 10 -4 16.69 1.06
1 -10 4 12.11 1.45
-1 10 4 14.71 1
-1 -10 4 13.31 1.39
-1 10 -4 15.88 1.03
-1 -10 4 14.97 0.94
1 10 4 15.1 1.03
1 10 -5 1.05 0.29
1 -10 5 0.58 0.18
-1 10 5 0.44 0.17
-1 10 5 1.07 0.27
-1 10 -5 1.1 0.28
1 10 5 1.27 0.3
-1 -10 5 0.64 0.21
1 10 -6 14.6 0.99
-1 10 6 12.59 0.88
1 -10 6 13.74 0.91
-1 10 6 14.59 0.97
-1 10 -6 14.23 0.94
1 10 6 14.32 0.98
-1 -10 6 13.99 0.92
-1 10 7 2.92 0.5
-1 10 7 2.79 0.39
1 -10 7 2.31 0.38
1 10 -7 3.18 0.52
-1 -10 7 2.18 0.4
1 10 7 2.78 0.52
-1 10 -7 3.54 0.51
1 -10 8 15.14 0.96
1 10 -8 13.8 1
-1 10 8 13.59 0.93
-1 10 8 14.99 1.02
-1 10 -8 14.5 0.99
-1 -10 8 14.51 0.97
1 10 8 14 1.01
-1 10 9 9.42 0.82
1 10 -9 9.68 0.79
1 -10 9 9.45 0.75
-1 10 9 9.95 0.73
-1 -10 9 9.65 0.76
1 10 9 9.82 0.81
-1 10 -9 10.28 0.81
1 -10 10 1.45 0.28
-1 10 10 1.15 0.3
-1 10 10 1.62 0.35
1 10 10 1.42 0.34
-1 10 -10 0.89 0.29
-1 -10 10 1.52 0.3
1 -10 11 16.24 1.02
-1 10 11 15.74 1.18
-1 -10 -11 16.94 1.05
1 -10 11 15.6 1.11
1 10 11 15.42 1.16
-1 -10 11 15.82 1.03
1 -10 -11 17.06 1.03
-1 -10 11 14.92 1.12
1 10 11 16.18 1.07
-1 -10 -12 1.44 0.38
1 -10 12 2.19 0.36
1 -10 12 1.45 0.34
1 10 -12 1.92 0.36
-1 -10 12 2.31 0.38
1 10 12 1.97 0.41
1 10 12 0.81 0.39
-1 10 -12 1.92 0.38
1 -10 -12 2.29 0.44
-1 -10 12 1.3 0.34
1 10 -13 13.24 0.86
-1 10 13 10.89 0.88
-1 -10 -13 13.11 0.88
1 -10 13 13.85 1
1 -10 13 12.16 0.86
-1 10 -13 14.16 0.87
1 10 13 13.56 0.92
1 -10 -13 13.72 0.86
1 10 13 11.16 1.02
-1 -10 13 12.14 0.86
-1 -10 13 13.67 1.01
1 -10 14 0.11 0.29
-1 10 14 -0.01 0.25
1 10 -14 0.49 0.29
1 -10 14 0.62 0.31
-1 -10 -14 0.28 0.32
-1 10 -14 0.5 0.3
1 10 14 0.31 0.34
-1 -10 14 0.33 0.29
1 -10 -14 0.44 0.31
-1 -10 -15 5.34 0.47
1 10 -15 4.91 0.48
1 -10 15 5.13 0.48
1 10 15 4.85 0.54
-1 10 -15 4.86 0.49
1 -10 -15 5.17 0.48
-1 -10 15 5.5 0.48
1 10 -16 1.61 0.29
-1 -10 -16 1.18 0.29
1 -10 16 1.55 0.28
1 10 16 0.84 0.29
-1 -10 16 1.4 0.29
1 -10 -16 1.19 0.28
-1 10 -16 1.53 0.3
1 -10 17 0.85 0.25
1 10 -17 0.67 0.23
-1 -10 -17 0.63 0.24
1 -10 -17 0.71 0.24
-1 -10 17 0.64 0.23
-1 10 -17 0.65 0.24
-1 -10 -18 1 0.23
1 -10 18 1.38 0.25
1 10 -18 1.21 0.23
-1 -10 18 1.21 0.23
1 -10 -18 0.9 0.24
-1 10 -18 1.14 0.23
2 -10 0 -0.12 0.87
2 -10 0 0.05 0.14
-2 10 0 -0.12 0.2
-2 10 0 0.67 0.24
2 10 0 0.37 0.23
2 10 0 0.4 0.17
-2 -10 0 1.02 0.6
2 -10 1 0.31 0.15
-2 -10 -1 0.78 0.58
-2 10 1 0.36 0.23
2 10 -1 0.72 0.23
2 -10 1 0.33 0.88
-2 -10 1 1.44 0.62
-2 10 -1 0.95 0.27
2 10 1 0.47 0.27
-2 10 -1 0.34 0.2
2 10 1 0.74 0.23
2 -10 -1 -0.4 0.8
2 10 1 0.59 0.27
-2 -10 -2 0.1 0.55
-2 10 2 -0.14 0.23
2 -10 2 0.1 0.14
2 10 -2 0.3 0.23
2 -10 2 0.13 0.89
-2 -10 2 0.77 0.62
2 10 2 0.25 0.2
-2 10 -2 0.03 0.19
2 10 2 0.75 0.29
2 10 2 0.11 0.31
-2 10 -2 0.61 0.26
2 -10 3 0.03 0.15
2 -10 3 0.15 0.84
-2 10 3 0.33 0.23
2 10 -3 0.78 0.25
2 10 3 0.06 0.18
2 10 3 0.77 0.29
-2 10 -3 0.57 0.24
-2 -10 3 0.93 0.62
-2 10 -3 -0.02 0.19
2 10 3 0.39 0.34
2 10 -4 0.65 0.28
-2 10 4 0.23 0.21
2 -10 4 0 0.15
2 -10 4 -0.4 0.7
2 10 4 0.58 0.26
-2 10 -4 0.7 0.27
-2 -10 4 -0.22 0.59
2 10 -5 1.53 0.3
-2 10 5 1.02 0.2
2 -10 5 1.29 0.22
-2 10 5 1.61 0.27
-2 -10 5 1.04 0.23
-2 10 6 -0.04 0.16
-2 10 6 0.09 0.24
2 10 -6 0.04 0.25
2 -10 6 -0.1 0.16
2 10 6 0.19 0.27
-2 10 -6 0.7 0.26
-2 -10 6 -0.28 0.19
2 10 -7 3.85 0.53
-2 10 7 3.43 0.41
-2 10 7 4.17 0.56
2 -10 7 3.5 0.41
2 10 7 3.49 0.55
-2 -10 7 3.08 0.47
-2 10 -7 4.26 0.53
2 -10 8 0.57 0.2
-2 10 8 0.34 0.27
2 10 -8 0.28 0.25
-2 10 8 0.47 0.21
-2 10 -8 0.46 0.27
2 10 8 0.31 0.26
-2 -10 8 0.27 0.23
-2 10 9 -0.4 0.28
-2 10 9 0.24 0.23
2 -10 9 0.08 0.19
-2 10 -9 0.1 0.27
2 10 9 0.18 0.28
-2 -10 9 -0.08 0.24
-2 10 10 -0.19 0.31
-2 10 10 0.12 0.26
2 -10 10 0.12 0.22
-2 -10 -10 -0.03 0.38
2 -10 10 -0.13 0.28
-2 -10 10 0.11 0.27
2 10 10 -0.15 0.31
-2 10 -10 0.23 0.28
2 10 10 -0.11 0.28
2 -10 11 0.07 0.26
-2 -10 -11 0 0.38
-2 10 11 -0.3 0.32
2 -10 11 0.14 0.3
-2 10 11 -0.13 0.29
2 -10 -11 -0.16 0.31
2 10 11 -0.44 0.3
-2 -10 11 -0.18 0.28
2 10 11 0.2 0.35
2 10 -12 0.4 0.31
2 -10 12 0.08 0.28
2 -10 12 0.59 0.32
-2 -10 -12 0.75 0.35
2 10 12 0.1 0.35
-2 10 -12 0.65 0.3
-2 -10 12 0.1 0.31
-2 -10 12 0.47 0.33
2 -10 -12 1.01 0.33
2 10 12 0.84 0.36
-2 -10 -13 -0.07 0.33
2 -10 13 -0.38 0.29
2 10 -13 -0.48 0.28
-2 10 13 0.55 0.44
2 -10 13 -0.2 0.3
-2 10 -13 -0.32 0.3
2 -10 -13 -0.1 0.31
-2 -10 13 0.02 0.31
2 10 13 -0.66 0.34
2 10 13 0.06 0.34
2 -10 14 0.41 0.29
-2 -10 -14 0.24 0.32
2 10 -14 -0.03 0.28
2 -10 14 -0.21 0.28
-2 10 14 0.63 0.45
2 -10 -14 0.61 0.3
-2 -10 14 0.04 0.29
2 10 14 0.29 0.35
-2 10 -14 0.3 0.31
-2 -10 -15 0.02 0.3
2 -10 15 0.1 0.27
2 10 -15 0.38 0.28
-2 10 15 -0.21 0.4
-2 10 -15 0.29 0.29
2 -10 -15 0.19 0.27
-2 -10 15 0.19 0.28
2 10 15 0.26 0.32
-2 -10 -16 -0.21 0.27
2 -10 16 -0.01 0.23
2 10 -16 -0.11 0.24
2 -10 -16 0.03 0.25
-2 10 -16 -0.06 0.27
-2 -10 16 0.02 0.25
2 10 16 0.11 0.29
2 -10 17 0.18 0.21
-2 -10 -17 0.04 0.23
2 10 -17 0.07 0.21
-2 10 -17 0.2 0.24
2 -10 -17 -0.19 0.22
-2 -10 17 0.16 0.23
2 -10 18 0.12 0.21
-2 -10 18 -0.03 0.2
3 10 0 0.5 0.18
-3 10 0 -0.06 0.19
-3 10 0 0.3 0.23
3 10 0 0.29 0.22
3 -10 0 -1.08 0.8
-3 -10 0 0.58 0.55
3 -10 1 20.26 2.1
-3 10 1 25.12 1.48
-3 -10 -1 22.84 1.74
3 10 -1 26.4 1.53
3 -10 1 25 1.45
-3 10 -1 24.5 1.47
-3 10 -1 26.69 1.52
3 10 1 25.02 1.49
-3 -10 1 24.61 1.77
3 -10 2 0.09 0.14
3 10 -2 0.39 0.26
-3 -10 -2 -0.68 0.5
-3 10 2 -0.12 0.2
3 -10 2 -0.18 0.89
3 10 2 0.41 0.2
-3 10 -2 0.62 0.23
3 10 2 0.36 0.28
-3 -10 2 0.47 0.56
-3 10 -2 -0.14 0.18
3 -10 3 35.91 2.79
-3 10 3 40.97 2.34
3 -10 3 38.31 2.32
3 10 -3 44.06 2.4
3 10 3 42.27 2.39
3 10 3 41.91 2.34
-3 -10 3 37.66 2.58
-3 10 -3 41.22 2.37
-3 10 4 16.32 1.05
3 -10 4 15.47 1
3 10 -4 16.88 1.12
3 10 4 17.65 1.13
-3 10 -4 17.19 1.09
3 10 4 14.59 1.01
-3 10 5 5.51 0.54
3 10 -5 4.54 0.56
-3 10 5 4.98 0.43
3 -10 5 5.12 0.45
-3 10 -5 5.63 0.58
3 10 5 5.69 0.64
-3 10 6 8.64 0.6
-3 10 6 8.75 0.69
3 -10 6 8.61 0.62
3 10 -6 8.43 0.74
3 10 6 8.45 0.74
-3 -10 6 7.49 0.64
-3 10 -6 8.98 0.7
3 10 -7 -0.1 0.25
-3 10 7 0.16 0.26
-3 10 7 0.19 0.17
3 -10 7 0.02 0.15
-3 10 -7 0.6 0.25
3 10 7 0.14 0.24
-3 -10 7 -0.12 0.21
-3 10 8 6.61 0.53
3 -10 8 6.03 0.54
3 10 -8 5.58 0.6
-3 10 8 6.38 0.64
3 10 8 5.82 0.66
-3 10 -8 6.69 0.63
-3 -10 8 5.98 0.6
-3 10 9 1.13 0.26
3 -10 9 0.87 0.24
-3 10 9 0.81 0.32
-3 10 -9 1.13 0.3
-3 -10 9 0.75 0.28
3 10 9 0.72 0.29
-3 10 10 0.68 0.27
3 -10 10 0.7 0.24
-3 -10 -10 1.01 0.41
3 -10 10 0.74 0.31
-3 10 10 0.1 0.33
-3 -10 10 0.51 0.29
3 10 10 0.89 0.36
3 10 10 0.58 0.29
-3 10 -10 0.98 0.31
3 -10 11 3.45 0.54
3 -10 11 2.85 0.41
-3 -10 -11 3.16 0.49
-3 10 11 2.72 0.55
3 10 -11 2.62 0.42
3 10 11 3.02 0.43
3 10 11 2.14 0.41
-3 -10 11 2.3 0.39
3 -10 -11 2.81 0.45
-3 10 12 1.66 0.43
3 -10 12 1.01 0.32
-3 -10 -12 1.13 0.39
3 -10 12 1.13 0.34
3 10 -12 0.51 0.33
-3 10 12 0.29 0.33
-3 10 -12 0.78 0.32
3 -10 -12 1.21 0.33
3 10 12 1.07 0.37
3 10 12 0.54 0.38
-3 -10 12 0.83 0.34
-3 -10 12 0.51 0.32
3 10 -13 3.55 0.44
-3 -10 -13 2.99 0.48
3 -10 13 4.57 0.47
3 -10 13 3.4 0.59
-3 10 -13 3.89 0.44
3 -10 -13 4.45 0.46
3 10 13 2.78 0.49
3 10 13 3.32 0.52
-3 -10 13 4.09 0.47
3 10 -14 -0.17 0.28
3 -10 14 -0.34 0.27
3 -10 14 -0.06 0.27
-3 -10 -14 -0.08 0.32
-3 10 14 0.79 0.44
-3 10 -14 -0.16 0.29
3 10 14 -0.07 0.32
-3 -10 14 0.19 0.3
3 -10 -14 0.1 0.29
-3 -10 -15 2.23 0.36
3 10 -15 1.87 0.35
-3 10 15 2.05 0.45
3 -10 15 2.08 0.34
3 -10 -15 1.87 0.36
-3 10 -15 1.88 0.34
3 10 15 2.13 0.37
-3 -10 15 2.17 0.33
3 -10 16 0.24 0.23
3 10 -16 0.24 0.24
-3 -10 -16 -0.16 0.27
-3 10 16 0.46 0.36
-3 -10 16 0.02 0.25
3 -10 -16 0.09 0.24
-3 10 -16 -0.14 0.26
3 10 16 0.27 0.3
3 10 -17 0.26 0.22
3 -10 17 0.41 0.22
-3 -10 -17 0.12 0.24
3 10 17 0.24 0.19
3 -10 -17 -0.09 0.23
-3 -10 17 0.23 0.23
-3 10 -17 0.11 0.24
-4 -10 0 6.9 0.95
-4 10 0 7.22 0.62
-4 10 0 7.91 0.58
4 10 0 7.55 0.64
-4 10 1 5.05 0.45
4 10 -1 6.12 0.59
-4 -10 -1 4.16 0.73
4 -10 1 5.01 0.42
-4 10 -1 4.84 0.47
-4 10 -1 5.85 0.55
-4 -10 1 4.92 0.91
4 10 1 5.78 0.53
4 -10 2 4.64 0.38
-4 10 2 3.99 0.46
4 10 -2 4.4 0.57
-4 -10 2 3.64 0.72
4 10 2 4.24 0.61
4 10 2 3.93 0.46
-4 10 -2 4.93 0.55
4 10 -3 23.04 1.37
-4 10 3 20.07 1.28
4 -10 3 19.93 1.25
4 10 3 20.81 1.37
-4 10 -3 22.33 1.33
4 10 3 20.2 1.29
4 -10 4 9.08 0.59
-4 10 4 8.18 0.64
4 10 -4 7.56 0.74
4 10 4 8.51 0.77
-4 10 -4 8.11 0.67
4 10 4 7.94 0.62
4 -10 5 47.48 2.77
4 10 -5 52.83 2.85
-4 10 5 48.15 2.78
4 10 5 48.76 2.83
4 10 5 44.43 2.77
-4 10 -5 48.03 2.79
-4 10 6 0.71 0.18
-4 10 6 0.82 0.25
4 10 -6 0.29 0.27
4 -10 6 0.84 0.19
-4 10 -6 0.86 0.25
4 10 6 0.78 0.28
-4 10 7 22.05 1.31
4 -10 7 21.51 1.33
4 10 -7 21.65 1.4
-4 10 7 22.28 1.36
-4 10 -7 21.03 1.36
4 10 7 21.37 1.4
4 -10 8 0.35 0.2
-4 10 8 -0.15 0.27
4 10 -8 -0.27 0.24
-4 10 8 0.24 0.19
4 10 8 0.19 0.25
-4 10 -8 0.36 0.26
4 -10 9 14.83 0.97
-4 10 9 13.39 1.02
-4 10 9 15.33 0.97
-4 10 -9 15.08 1.02
-4 -10 9 12.87 1
4 10 9 14.13 1.05
4 -10 10 1.41 0.33
4 -10 10 0.94 0.26
-4 -10 -10 1.78 0.46
-4 10 10 1.16 0.29
-4 -10 10 0.91 0.32
4 10 10 1.59 0.38
-4 10 -10 1.02 0.33
4 10 10 1.3 0.35
4 -10 -10 0.84 0.33
4 -10 11 3.19 0.43
-4 -10 -11 3.82 0.57
4 10 -11 2.12 0.43
-4 10 11 2.52 0.39
4 -10 11 3.54 0.55
4 10 11 3.36 0.44
4 -10 -11 3.52 0.46
4 10 11 2.72 0.45
-4 10 12 0.61 0.34
4 -10 12 1.47 0.33
-4 -10 -12 1.62 0.39
4 10 -12 0.96 0.33
4 -10 12 1 0.32
-4 -10 12 0.3 0.33
4 10 12 1.13 0.35
-4 10 -12 1.15 0.34
4 -10 -12 1.51 0.33
4 10 12 0.38 0.38
-4 10 13 1.63 0.44
4 10 -13 0.95 0.3
-4 -10 -13 0.53 0.34
4 -10 13 0.21 0.29
4 -10 13 0.63 0.31
-4 10 -13 1.05 0.32
-4 -10 13 0.5 0.32
4 -10 -13 1.15 0.31
4 10 13 0.78 0.33
4 -10 14 3.01 0.4
-4 10 14 3.68 0.54
4 10 -14 2.08 0.4
-4 -10 -14 2.68 0.44
-4 10 -14 2.64 0.41
4 10 14 2.82 0.4
4 -10 -14 2.98 0.4
-4 -10 14 2.14 0.4
-4 10 15 1.88 0.43
4 10 -15 1.96 0.32
-4 -10 -15 1.35 0.34
4 -10 15 1.78 0.29
-4 -10 15 1.72 0.32
4 -10 -15 1.04 0.28
-4 10 -15 2.05 0.33
4 10 15 1.48 0.34
4 10 -16 0.82 0.25
4 -10 16 1.46 0.26
-4 10 16 1.12 0.37
-4 -10 -16 1.04 0.29
4 10 16 0.91 0.31
4 -10 -16 1.25 0.27
-4 -10 16 1.15 0.28
-4 10 -16 1.03 0.29
4 10 -17 1.44 0.26
-4 10 17 0.58 0.31
-4 -10 -17 0.91 0.25
4 -10 17 1.55 0.25
4 -10 -17 1.18 0.26
4 10 17 1.41 0.27
-4 -10 17 1.27 0.24
-4 10 -17 1.62 0.27
-5 10 0 -0.02 0.17
-5 10 0 0.15 0.21
5 10 0 0.08 0.21
5 -10 1 76.76 4.23
-5 10 1 71.72 4.23
5 10 -1 79.68 4.29
-5 10 -1 74.8 4.23
-5 10 -1 74.96 4.26
5 10 1 71.36 4.26
5 -10 2 2.29 0.31
-5 10 2 2.26 0.38
5 10 -2 2.88 0.52
-5 10 -2 2.92 0.49
5 10 2 2.17 0.39
-5 10 3 56.89 3.29
5 -10 3 59.15 3.29
5 10 -3 58.97 3.37
-5 10 -3 57.96 3.32
5 10 3 57.7 3.31
5 10 3 55.93 3.36
5 10 -4 22.35 1.4
5 -10 4 21.18 1.27
-5 10 4 20.86 1.29
-5 10 -4 21.9 1.34
5 10 4 20.81 1.3
5 10 4 19.6 1.39
5 10 -5 4.04 0.62
-5 10 5 4.49 0.39
5 -10 5 4.97 0.42
-5 10 5 4.93 0.49
-5 10 -5 4.63 0.54
5 10 5 4.43 0.46
5 10 5 4.8 0.63
-5 10 6 15.44 0.96
5 -10 6 15.7 0.99
-5 10 6 16.01 1.02
5 10 -6 14.4 1.1
5 10 6 15.47 1.1
-5 10 -6 15.43 1.04
5 10 -7 0.91 0.29
5 -10 7 1.06 0.21
-5 10 7 0.98 0.27
5 10 7 1.04 0.31
-5 10 8 3.01 0.58
-5 10 8 3.63 0.44
5 -10 8 3.49 0.46
-5 10 -8 4.56 0.56
5 10 8 3.1 0.58
5 -10 9 5.74 0.6
-5 10 9 6.59 0.59
-5 -10 -9 6.25 0.65
5 10 9 5.89 0.7
5 10 9 5.81 0.61
-5 10 -9 7.05 0.69
5 -10 10 6.09 0.55
5 -10 10 6.53 0.64
-5 10 10 6.77 0.62
-5 -10 -10 7.04 0.7
5 10 -10 4.91 0.54
5 10 10 6.22 0.63
-5 10 -10 6.8 0.74
5 -10 -10 5.01 0.55
5 10 10 6 0.75
-5 10 11 17.97 1.23
-5 -10 -11 18.46 1.2
5 10 -11 20.95 1.18
5 -10 11 18.66 1.17
5 -10 11 18.47 1.25
5 10 11 18.21 1.2
5 10 11 18.58 1.32
-5 10 -11 17.73 1.28
5 -10 -11 17.18 1.16
5 -10 -11 18.85 1.16
-5 10 12 0.53 0.33
5 -10 12 1.17 0.33
5 10 -12 0.72 0.3
5 -10 12 0.91 0.31
-5 -10 -12 1.51 0.4
-5 10 12 2.07 0.43
-5 10 -12 0.72 0.32
5 10 12 1.1 0.35
5 10 12 0.41 0.4
5 -10 -12 1.24 0.32
5 10 -13 9.1 0.67
-5 10 13 10.51 0.74
5 -10 13 9.79 0.67
-5 -10 -13 8 0.69
5 -10 13 8.15 0.76
5 10 13 7.84 0.91
-5 -10 13 7.41 0.65
5 10 13 9.26 0.74
-5 10 -13 9.88 0.66
5 -10 -13 9.38 0.67
-5 -10 -14 0.23 0.33
-5 10 14 0.94 0.4
5 -10 14 0.35 0.26
5 10 -14 0.16 0.27
5 -10 -14 0.27 0.27
-5 -10 14 -0.23 0.29
5 10 14 0.1 0.32
-5 10 -14 0 0.3
-5 10 15 4.05 0.52
5 10 -15 3.9 0.42
5 -10 15 4.13 0.38
-5 -10 -15 3.64 0.41
-5 -10 15 3.41 0.39
5 -10 -15 3.73 0.39
5 10 15 3.72 0.5
-5 10 -15 3.9 0.42
5 -10 16 2.02 0.28
-5 -10 -16 1.79 0.31
5 10 -16 1.67 0.31
-5 10 16 2.11 0.39
-5 -10 16 1.64 0.27
5 -10 -16 1.49 0.28
-5 10 -16 1.81 0.3
5 10 16 1.68 0.32
-5 10 17 0.73 0.31
5 10 -17 0.95 0.24
5 -10 17 0.96 0.24
-5 -10 -17 0.6 0.25
5 10 17 0.82 0.26
5 -10 -17 0.88 0.25
-5 10 -17 0.6 0.24
-6 10 0 0.21 0.21
-6 10 0 1.03 0.2
6 10 0 0.62 0.2
6 10 -1 0.39 0.21
-6 10 1 0.34 0.18
6 10 1 0.48 0.21
-6 10 -1 0.34 0.22
-6 10 -1 0.26 0.15
6 10 -2 1.27 0.29
-6 10 2 1.26 0.21
6 -10 2 1.71 0.27
-6 10 -2 1.31 0.27
6 10 2 1.15 0.22
6 10 -3 0.03 0.24
6 -10 3 0.25 0.14
-6 10 3 0.18 0.19
6 10 3 0.04 0.17
-6 10 -3 0.44 0.24
6 10 3 -0.41 0.31
6 10 -4 4.89 0.67
-6 10 4 6.22 0.52
6 -10 4 5.77 0.46
-6 10 -4 5.93 0.59
6 10 4 5.45 0.52
6 10 4 5.17 0.75
6 10 -5 4.83 0.68
-6 10 5 5.4 0.53
-6 10 5 5.16 0.41
6 -10 5 4.78 0.43
6 10 5 3.99 0.67
6 10 5 4.71 0.51
-6 10 -5 5.39 0.57
-6 10 6 1.04 0.26
-6 10 6 1.1 0.18
6 10 -6 0.66 0.3
6 -10 6 0.85 0.19
6 10 6 0.91 0.22
6 10 6 1.27 0.35
-6 10 -6 1.19 0.27
6 10 -7 6.24 0.7
-6 10 7 7.56 0.56
-6 10 7 7.21 0.64
6 -10 7 7.29 0.58
6 10 7 7.12 0.78
-6 10 -7 7.49 0.67
-6 10 8 -0.02 0.28
6 -10 8 0.29 0.21
-6 10 8 0.32 0.2
6 10 8 -0.01 0.3
-6 10 -8 0.88 0.28
6 -10 9 2.48 0.48
-6 10 9 2.58 0.47
6 -10 9 2.17 0.36
6 10 9 1.8 0.39
6 -10 -9 2.77 0.43
-6 10 -9 3.29 0.58
6 10 9 3.14 0.45
-6 10 10 0.26 0.26
6 -10 10 -0.21 0.3
6 -10 10 0.01 0.26
6 10 -10 -0.2 0.31
-6 10 -10 0.21 0.32
6 -10 -10 0.17 0.34
6 10 10 -0.32 0.32
6 10 10 0.48 0.37
6 -10 -10 0.48 0.29
-6 -10 -11 2.48 0.5
6 -10 11 0.95 0.32
6 -10 11 1.4 0.35
6 10 -11 1.36 0.35
-6 10 11 1.39 0.33
6 -10 -11 1.56 0.35
6 10 11 1.04 0.42
6 10 11 1.47 0.39
-6 10 -11 0.63 0.34
6 -10 -11 1.8 0.35
6 10 -12 0.61 0.29
6 -10 12 0.52 0.29
-6 -10 -12 0.92 0.39
-6 10 12 0.1 0.31
6 -10 12 0.59 0.31
-6 10 -12 0.49 0.31
6 10 12 0.9 0.37
6 -10 -12 0.95 0.31
6 10 12 -0.19 0.38
6 -10 -12 0.71 0.31
-6 -10 -13 0.2 0.35
6 -10 13 -0.27 0.28
-6 10 13 0.93 0.38
6 10 -13 -0.01 0.28
6 -10 -13 0.07 0.29
-6 10 -13 0.18 0.31
6 -10 -13 0.43 0.29
6 10 13 -0.02 0.33
6 -10 14 1.19 0.3
6 10 -14 1.13 0.3
-6 -10 -14 1.68 0.35
6 10 14 1.25 0.34
6 -10 -14 1.5 0.31
-6 10 -14 1.16 0.32
6 10 -15 0.91 0.26
6 -10 15 0.75 0.26
-6 10 15 1.55 0.38
-6 -10 -15 0.64 0.31
-6 10 -15 0.93 0.29
6 10 15 0.54 0.3
6 -10 -15 0.56 0.25
6 -10 16 0.86 0.24
-6 -10 -16 0.7 0.27
-6 10 16 0.7 0.34
6 10 -16 0.67 0.23
6 -10 -16 0.76 0.25
-6 10 -16 0.44 0.25
6 10 16 0.43 0.27
6 10 -17 0.77 0.23
-6 10 17 0.57 0.3
6 -10 -17 0.57 0.24
6 10 17 0.45 0.24
7 10 0 -0.11 0.19
-7 10 0 0.02 0.15
7 10 -1 5.23 0.57
-7 10 1 5.31 0.46
-7 10 -1 4.14 0.52
7 10 1 5.35 0.51
7 10 -2 -0.05 0.24
-7 10 2 0.1 0.16
7 10 2 0.09 0.15
-7 10 -2 0 0.22
7 -10 3 7.81 0.56
7 10 -3 7.68 0.74
-7 10 3 8.15 0.6
7 10 3 7.71 0.62
-7 10 -3 7.69 0.68
7 -10 4 5.84 0.47
-7 10 4 5.77 0.51
7 10 -4 5.43 0.69
7 10 4 4.36 0.75
-7 10 -4 5.98 0.6
7 10 4 5.36 0.52
-7 10 5 4.54 0.39
7 -10 5 4.66 0.42
7 10 -5 3.65 0.65
-7 10 5 4.6 0.51
-7 10 -5 4.19 0.56
7 10 5 4.32 0.49
7 10 5 3.64 0.7
-7 10 6 3.71 0.4
-7 10 6 3.99 0.48
7 10 -6 2.96 0.61
7 -10 6 3.66 0.41
-7 10 -6 3.7 0.54
7 10 6 3.79 0.49
-7 10 7 -0.22 0.24
7 -10 7 0.12 0.19
-7 10 7 0.19 0.17
7 10 7 -0.11 0.33
7 -10 -7 0.02 0.21
-7 10 -7 0.4 0.27
7 10 7 0.11 0.2
-7 -10 -8 1.38 0.5
7 -10 8 0.06 0.21
-7 10 8 0.32 0.2
-7 10 -8 0.67 0.29
-7 -10 8 0.11 0.31
7 10 8 -0.34 0.3
7 10 8 -0.5 0.34
7 -10 -8 0.06 0.25
-7 10 9 0.38 0.24
7 -10 9 0.28 0.25
7 -10 9 0.09 0.3
7 10 -9 0.48 0.32
7 -10 9 0.52 0.27
-7 10 -9 0.81 0.33
7 10 9 0.46 0.38
7 10 9 0.14 0.36
7 -10 -9 0.61 0.28
-7 10 10 0.08 0.26
7 10 -10 -0.37 0.32
7 -10 10 0.33 0.27
7 -10 10 0.27 0.31
7 -10 10 -0.1 0.34
-7 10 -10 0.18 0.33
7 -10 -10 0.09 0.28
7 10 10 0.32 0.36
7 10 10 -0.36 0.36
7 -10 -10 -0.15 0.35
-7 -10 10 1.03 0.35
7 -10 11 1.69 0.39
7 10 -11 2.1 0.36
7 -10 11 1.32 0.33
-7 10 11 1.49 0.34
7 -10 11 2.41 0.39
7 10 11 0.96 0.43
7 10 11 2.49 0.42
7 -10 -11 2.3 0.42
7 -10 -11 2.85 0.47
-7 -10 -12 1.5 0.41
7 -10 12 0.94 0.32
-7 10 12 0.32 0.31
7 -10 12 0.24 0.32
7 10 -12 0.63 0.31
7 -10 -12 0.94 0.32
7 10 12 1.02 0.37
-7 10 -12 0.49 0.33
7 -10 -12 0.97 0.32
7 10 12 0.42 0.4
-7 -10 -13 3.47 0.48
7 -10 13 2.53 0.41
7 10 -13 2.03 0.39
-7 10 13 2.9 0.44
7 -10 -13 2.95 0.42
-7 10 -13 2.29 0.39
7 10 13 2.15 0.39
7 -10 -13 2.56 0.42
-7 -10 13 1.94 0.43
7 -10 14 0.37 0.27
7 10 -14 0.41 0.27
-7 10 14 0.76 0.36
-7 -10 -14 0.35 0.32
-7 10 -14 0.16 0.28
7 -10 -14 0.38 0.26
7 10 14 0.07 0.29
7 -10 15 1.05 0.26
7 10 -15 0.97 0.25
-7 10 15 1.17 0.36
-7 -10 -15 1.36 0.32
7 -10 -15 1.24 0.26
7 10 15 0.74 0.29
-7 10 -15 0.97 0.29
7 -10 16 0.44 0.23
-7 10 16 0.75 0.32
-7 -10 -16 0.33 0.26
7 10 -16 0.55 0.22
7 10 16 0.23 0.24
-7 10 -16 0.48 0.24
7 -10 -16 0.25 0.23
-8 10 0 8.89 0.64
8 10 0 8.39 0.7
8 10 -1 0.71 0.23
-8 10 1 0.96 0.21
8 10 1 0.9 0.23
-8 10 -1 0.31 0.23
-8 10 2 17.96 1.12
8 10 -2 18.06 1.23
8 10 2 18.21 1.16
-8 10 -2 17.09 1.16
8 10 -3 6.11 0.7
-8 10 3 6.64 0.55
8 -10 3 5.5 0.48
8 10 3 6.4 0.57
-8 10 -3 6.96 0.63
-8 10 4 3.46 0.44
8 -10 4 3.98 0.4
-8 10 -4 3.92 0.56
8 10 4 3.24 0.46
-8 10 5 23.94 1.48
-8 10 5 24.3 1.45
8 -10 5 23.42 1.46
8 10 -5 24.98 1.62
8 10 5 25.17 1.51
-8 10 -5 25.62 1.53
8 10 5 21.64 1.62
8 -10 6 2.42 0.39
8 10 -6 2.05 0.39
-8 10 6 2.67 0.38
8 10 6 2.82 0.48
8 10 6 1.87 0.46
8 -10 7 16.67 1.01
8 -10 7 14.1 0.97
-8 10 7 15.94 0.98
-8 -10 -7 13.79 1.03
-8 10 -7 15.92 1.07
8 -10 -7 14.19 0.96
8 10 7 15.78 1.02
8 10 7 15.7 1.21
-8 -10 7 12.74 1
8 -10 8 5.4 0.58
-8 10 8 6.11 0.58
8 -10 8 5.46 0.6
8 10 -8 6.24 0.58
8 10 8 5.12 0.84
-8 10 -8 6.81 0.72
-8 -10 8 7.24 0.63
8 -10 -8 5.26 0.55
-8 10 9 27.94 1.69
8 -10 9 26.47 1.63
8 -10 9 28.37 1.72
8 10 -9 28.54 1.67
-8 -10 -9 26.95 1.71
8 -10 9 27.15 1.66
8 -10 -9 28.02 1.65
-8 -10 9 25.86 1.66
-8 10 -9 28.82 1.75
8 10 9 26.51 1.7
8 10 9 27.93 1.86
8 -10 10 3.01 0.52
8 -10 10 2.37 0.44
8 10 -10 3.22 0.42
-8 10 10 2.93 0.52
8 -10 10 3.24 0.42
8 10 10 2.52 0.5
8 10 10 2.99 0.47
8 -10 -10 1.89 0.41
-8 10 -10 2.17 0.41
8 -10 -10 2.59 0.45
8 10 -11 2.77 0.46
-8 10 11 3.43 0.58
-8 -10 -11 4.92 0.6
8 -10 11 4.13 0.53
8 -10 11 4.22 0.49
8 -10 -11 4.62 0.52
8 10 11 4.16 0.62
8 -10 -11 3.96 0.45
8 10 11 3.13 0.53
8 -10 12 4.11 0.48
8 10 -12 3.28 0.48
-8 10 12 4.96 0.52
-8 -10 -12 4.65 0.57
8 -10 12 4.22 0.5
8 -10 -12 4.16 0.47
8 10 12 3.68 0.59
-8 10 -12 3.34 0.42
8 -10 -12 4.25 0.49
8 10 -13 0.76 0.28
-8 -10 -13 1.09 0.38
8 -10 13 0.22 0.28
8 -10 13 0.4 0.29
-8 10 13 0.91 0.35
8 10 13 0.3 0.31
-8 -10 13 1 0.31
-8 10 -13 0.8 0.3
8 -10 -13 0.87 0.29
-8 -10 -14 5.62 0.5
-8 10 14 4.67 0.49
8 10 -14 4.32 0.43
8 -10 14 4.95 0.44
-8 10 -14 4.57 0.44
8 10 14 4.77 0.52
8 -10 -14 5.36 0.45
8 -10 15 1.4 0.26
-8 -10 -15 1.3 0.32
8 10 -15 1.64 0.28
-8 10 15 2.22 0.36
8 -10 -15 1.52 0.29
8 10 15 1.54 0.3
-8 10 -15 1.77 0.28
-8 10 16 2.2 0.34
8 10 -16 1.93 0.29
8 -10 -16 2.35 0.31
8 10 16 1.87 0.3
-9 10 0 0.08 0.18
9 10 0 0.02 0.21
-9 10 1 41.54 2.35
9 10 -1 41.96 2.43
-9 10 -1 35.25 2.36
9 10 1 40.24 2.4
-9 10 -1 42.2 2.35
9 10 -2 6.25 0.69
-9 10 2 6.83 0.57
9 10 2 6.21 0.58
-9 10 -2 5.54 0.61
-9 10 3 29.87 1.83
9 10 -3 32.61 1.98
9 10 3 31.63 1.88
-9 10 -3 29.7 1.88
-9 10 4 27.84 1.75
-9 10 4 29.56 1.73
9 10 -4 29.64 1.9
-9 10 -4 30.43 1.81
9 10 4 29.03 1.79
9 10 -5 1.97 0.41
9 -10 5 2.26 0.4
9 -10 5 2.57 0.39
-9 10 5 2.85 0.38
9 10 5 2.67 0.46
-9 10 -5 2.03 0.36
9 -10 6 27.94 1.55
-9 10 6 27.59 1.56
-9 -10 -6 23.02 1.57
9 -10 6 27.9 1.58
-9 10 -6 27.95 1.65
9 10 6 27.38 1.62
9 -10 -6 24.3 1.54
9 10 6 23.76 1.79
-9 -10 6 21.98 1.54
9 10 -7 9.11 0.65
9 -10 7 7.43 0.64
9 -10 7 6.64 0.64
-9 10 7 7.94 0.64
-9 10 -7 7.95 0.76
9 10 7 5.59 0.97
-9 -10 7 8.17 0.67
9 10 7 7.36 0.68
9 -10 -7 6.62 0.59
9 -10 8 3.32 0.42
-9 10 8 2.88 0.48
9 10 -8 2.24 0.4
9 -10 8 2.93 0.5
-9 -10 8 4.05 0.53
9 -10 -8 2.89 0.43
-9 10 -8 3.48 0.66
9 10 8 1.94 0.53
9 10 8 1.58 0.45
9 -10 9 4.23 0.49
9 -10 9 4.6 0.53
9 10 -9 5.35 0.54
-9 10 9 4.94 0.58
9 -10 9 3.86 0.57
9 10 9 5.38 0.72
9 10 9 3.11 0.59
-9 10 -9 5.72 0.69
9 -10 -9 4.76 0.49
-9 10 10 7.41 0.69
-9 -10 -10 7.81 0.75
9 -10 10 7.33 0.62
9 -10 10 7.22 0.65
9 10 10 8.12 0.76
-9 10 -10 6.89 0.81
9 -10 -10 6.65 0.58
-9 -10 10 8.26 0.66
9 -10 -10 7.65 0.68
9 10 10 6.24 0.94
-9 10 11 17.6 1.32
9 -10 11 20.98 1.26
9 -10 11 21.72 1.27
-9 -10 -11 18.87 1.3
9 10 -11 19.74 1.26
9 -10 -11 22.47 1.29
9 -10 -11 18.38 1.24
-9 -10 11 21.32 1.26
9 10 11 21.49 1.32
9 -10 12 1.12 0.32
9 -10 12 0.64 0.31
-9 10 12 1.59 0.35
-9 -10 -12 1.96 0.43
9 -10 -12 1.58 0.3
9 -10 -12 1.18 0.33
9 10 12 0.91 0.36
-9 -10 12 2.36 0.43
9 -10 13 9.19 0.63
-9 -10 -13 8.27 0.68
9 -10 13 8.36 0.61
9 10 -13 8.19 0.62
-9 10 13 8.06 0.65
-9 -10 13 9.18 0.64
9 10 13 8.57 0.69
9 -10 -13 8.28 0.63
9 10 -14 1.21 0.25
-9 10 14 1.31 0.34
-9 -10 -14 0.78 0.33
9 -10 14 0.62 0.24
9 10 14 0.77 0.28
-9 -10 14 1.2 0.26
9 -10 -14 0.89 0.26
-9 -10 -15 3.26 0.36
9 10 -15 3.35 0.33
-9 10 15 3.5 0.4
9 10 15 3.41 0.4
9 -10 -15 3.29 0.35
10 10 0 7.98 0.73
-10 10 0 8.24 0.66
-10 10 1 0.29 0.23
10 10 -1 0.3 0.27
-10 10 -1 0.37 0.2
10 10 1 0.33 0.22
-10 10 2 8.31 0.68
10 10 -2 7.82 0.82
10 10 2 8.27 0.7
10 10 -3 4.68 0.74
-10 10 3 4.78 0.51
-10 10 -3 4.43 0.61
10 10 3 5.21 0.55
10 -10 4 7.71 0.59
-10 10 4 7.46 0.58
10 10 -4 7.29 0.82
-10 -10 -4 6.72 0.64
-10 10 -4 6.67 0.72
10 10 4 6.44 0.64
10 10 -5 12.69 1.03
-10 -10 -5 13.01 0.9
-10 10 5 12.65 0.86
10 -10 5 12.79 0.85
10 10 5 12.63 0.92
-10 -10 5 11.07 0.86
-10 10 -5 11.97 0.96
10 -10 6 0.18 0.22
10 10 -6 0.35 0.33
10 -10 6 0.58 0.31
-10 10 6 0.54 0.22
-10 -10 6 0.89 0.32
10 -10 -6 0.52 0.27
-10 10 -6 0.31 0.32
10 10 6 0.55 0.25
10 -10 7 2.41 0.47
10 10 -7 3.38 0.49
-10 10 7 3.53 0.5
10 -10 7 3.29 0.48
10 10 7 3.38 0.53
10 -10 -7 3.22 0.44
-10 10 -7 2.2 0.4
-10 -10 7 4.19 0.52
10 -10 8 0.35 0.31
10 -10 -8 0.32 0.28
10 10 8 0.2 0.37
-10 -10 8 0.98 0.32
10 -10 9 3.14 0.49
-10 -10 -9 5.46 0.67
10 10 -9 3.73 0.49
-10 10 9 4.06 0.56
10 -10 -9 2.91 0.55
10 -10 -9 4.64 0.47
-10 10 -9 4.06 0.71
10 10 9 4.76 0.71
10 10 -10 -0.21 0.28
10 -10 10 0.06 0.29
-10 10 10 -0.37 0.25
10 -10 10 -0.02 0.3
10 -10 -10 0.02 0.25
10 -10 -10 0.01 0.35
-10 10 -10 -0.47 0.32
10 10 10 0.61 0.42
10 10 -11 0.17 0.29
10 -10 11 0.52 0.29
10 -10 11 0.36 0.29
-10 -10 -11 1.53 0.45
10 10 11 0.75 0.37
10 -10 -11 0.59 0.26
10 -10 -11 0.42 0.34
10 10 -12 0.69 0.27
10 -10 12 0.06 0.22
10 -10 12 0.44 0.26
-10 -10 -12 1.13 0.41
-10 10 12 0.85 0.32
10 10 12 0.24 0.32
10 -10 -12 0.67 0.3
10 10 -13 0.4 0.23
-10 -10 -13 0.36 0.35
10 -10 13 -0.16 0.24
-10 10 13 0.39 0.3
-10 -10 13 0.75 0.26
10 10 13 0.21 0.29
10 -10 -13 0.11 0.26
-10 -10 -14 0.41 0.29
10 10 -14 0.53 0.22
-10 10 14 0.94 0.31
10 -10 14 0.62 0.22
-10 -10 14 0.84 0.25
10 10 14 0.7 0.28
10 -10 -14 1.05 0.26
10 10 -15 0.54 0.21
-10 10 15 0.48 0.3
10 -10 -15 0.06 0.24
10 10 15 0.09 0.27
11 10 0 0.15 0.26
-11 10 0 -0.05 0.23
11 10 -1 0.39 0.31
-11 10 1 0.01 0.23
-11 10 -1 0.23 0.23
11 10 1 0.27 0.25
11 10 -2 -0.01 0.32
-11 -10 -2 0.51 0.33
-11 10 2 0.08 0.24
11 -10 2 -0.17 0.19
11 10 2 0.1 0.21
-11 -10 -3 0.89 0.36
-11 10 3 0.28 0.2
11 -10 3 0.08 0.27
11 10 -3 0.15 0.21
11 10 -3 0.14 0.35
-11 10 -3 -0.29 0.29
11 -10 -3 -0.22 0.21
11 10 3 0.21 0.23
11 10 -4 0.05 0.34
-11 10 4 0.18 0.21
11 -10 4 -0.13 0.27
11 10 -4 0.34 0.28
-11 -10 4 -0.26 0.28
-11 10 -4 -0.38 0.32
11 10 4 0.08 0.21
11 -10 5 -0.05 0.28
-11 10 5 0.23 0.22
11 10 -5 0.24 0.29
-11 10 -5 -0.04 0.32
11 10 5 0.01 0.23
-11 -10 5 0.37 0.3
11 -10 -5 0.23 0.28
11 -10 6 0.22 0.3
11 10 -6 0.21 0.3
-11 10 6 0.24 0.24
11 -10 -6 0.23 0.27
11 10 6 0.22 0.24
-11 10 -6 0.19 0.33
-11 -10 6 0.83 0.31
11 10 -7 0.05 0.29
-11 10 7 0.33 0.25
11 -10 7 0.19 0.3
11 -10 -7 0.28 0.27
-11 -10 7 0.69 0.29
11 10 -8 -0.02 0.29
-11 10 8 0.2 0.25
11 -10 8 0.07 0.29
11 -10 -8 0.06 0.26
-11 -10 8 0.61 0.3
11 10 8 0.32 0.36
11 10 -9 -0.23 0.29
11 -10 9 -0.08 0.28
11 -10 -9 -0.23 0.33
11 -10 -9 -0.03 0.24
11 10 9 -0.29 0.43
-11 -10 9 0.76 0.29
11 -10 10 0.23 0.28
11 10 -10 -0.23 0.28
-11 -10 -10 1.23 0.47
11 -10 -10 0.17 0.34
11 -10 -10 0.35 0.24
11 10 10 0.06 0.4
-11 -10 -11 0.79 0.43
11 10 -11 -0.31 0.26
11 -10 11 -0.11 0.25
-11 10 11 0.39 0.32
11 10 11 0.14 0.35
11 -10 -11 -0.14 0.3
-11 -10 11 0.62 0.27
-11 -10 -12 0.28 0.37
-11 10 12 0.53 0.3
11 -10 12 0.12 0.24
11 10 -12 0.2 0.24
11 10 12 -0.13 0.32
-11 -10 12 0.75 0.26
11 -10 -12 0.22 0.27
11 -10 13 0.18 0.22
11 10 -13 0.11 0.22
-11 -10 -13 -0.27 0.32
-11 10 13 0.31 0.29
11 10 13 0.06 0.28
11 -10 -13 -0.02 0.25
-11 -10 13 0.52 0.24
-11 10 14 0.2 0.28
11 -10 14 -0.07 0.18
11 10 -14 0.35 0.2
-11 -10 14 -0.01 0.21
11 -10 -14 -0.09 0.24
11 10 14 -0.09 0.27
12 10 0 11.91 0.98
-12 10 0 10.35 0.82
12 10 -1 0.67 0.22
12 10 -1 0.7 0.36
-12 -10 -1 1.54 0.37
-12 10 1 0.04 0.25
-12 10 -1 0.72 0.27
12 10 1 0.67 0.29
12 -10 2 9.51 0.64
12 10 -2 8.64 0.65
-12 -10 -2 9.17 0.75
12 10 -2 9.55 0.95
12 10 2 9.63 0.83
-12 10 -2 8.04 0.73
12 10 -3 6.34 0.55
-12 10 3 5.91 0.59
12 -10 3 6.24 0.53
12 10 -3 6.33 0.87
-12 -10 -3 7.03 0.68
12 10 3 5.77 0.7
-12 -10 -4 8.25 0.73
-12 10 4 7.96 0.65
12 10 -4 7.27 0.6
12 -10 4 8.13 0.61
12 10 4 7.36 0.74
-12 -10 4 5.85 0.63
-12 10 5 12.92 0.91
-12 -10 -5 12.87 0.92
12 -10 5 13.69 0.87
12 10 -5 13.54 0.88
-12 10 -5 11.26 1.02
12 -10 -5 11.63 0.88
-12 -10 5 10.82 0.88
12 10 5 14.25 0.97
12 10 -6 2.27 0.43
12 -10 6 2.8 0.43
-12 10 6 2.69 0.48
12 -10 -6 2.67 0.44
-12 10 -6 1.7 0.42
-12 -10 6 2.19 0.45
12 10 6 3.01 0.52
-12 -10 -7 9.26 0.74
12 10 -7 7.12 0.64
12 -10 7 8.96 0.65
-12 10 -7 7.84 0.82
-12 -10 7 7.22 0.65
12 -10 -7 8.63 0.65
12 10 -8 0.1 0.27
12 -10 8 0.24 0.27
12 -10 -8 0.35 0.26
12 -10 9 10.03 0.73
-12 -10 -9 10.33 0.85
12 10 -9 9.45 0.75
-12 -10 9 10.01 0.74
12 -10 -9 10.77 0.71
12 10 9 9.93 0.85
12 10 -10 1 0.3
12 -10 10 1.39 0.28
-12 -10 -10 2.35 0.48
12 10 10 1.04 0.41
12 -10 -10 1.31 0.35
-12 -10 10 1.68 0.3
12 -10 11 1.88 0.29
-12 10 11 1.98 0.34
-12 -10 -11 2.56 0.45
12 10 -11 1.21 0.3
12 -10 -11 1.88 0.34
-12 -10 11 2.5 0.37
12 10 11 1.82 0.4
12 10 -12 0.45 0.23
12 -10 12 0.33 0.21
-12 -10 -12 0.78 0.36
12 10 -12 0.35 0.14
-12 10 12 0.5 0.29
12 -10 -12 0.44 0.27
12 10 12 0.69 0.32
12 -10 13 0.31 0.19
-12 10 13 0.08 0.28
12 10 -13 0.57 0.21
-12 -10 13 0.64 0.23
12 10 13 0.16 0.29
12 -10 -13 0.25 0.24
13 10 0 0.04 0.24
13 10 0 -0.02 0.32
13 10 -1 18.8 1.15
-13 -10 -1 16.58 1.19
13 10 -1 19.88 1.4
13 10 1 18.72 1.35
13 10 1 18.68 1.15
13 10 -2 1.2 0.39
13 10 -2 1.32 0.28
13 -10 2 1.9 0.29
-13 10 -2 0.83 0.27
13 10 2 1.82 0.3
13 10 2 1.33 0.35
13 -10 3 16.12 0.98
13 10 -3 14.9 0.99
-13 -10 -3 14.64 1.05
13 10 3 15.92 1.15
13 -10 4 3.85 0.43
13 10 -4 3.14 0.43
13 10 4 3.77 0.6
-13 -10 4 2.52 0.47
13 -10 5 2.4 0.39
13 10 -5 2.11 0.39
-13 -10 5 2.89 0.4
13 10 5 2.73 0.54
13 -10 -5 2.83 0.48
13 -10 6 9.71 0.7
-13 -10 -6 10.85 0.82
13 10 -6 8.49 0.69
13 -10 -6 10.28 0.73
-13 -10 6 8.31 0.71
13 -10 7 2.05 0.33
13 10 -7 2.43 0.36
-13 -10 7 2.52 0.45
13 -10 -7 2.12 0.41
13 -10 8 4.63 0.47
13 10 -8 3.75 0.49
13 -10 -8 5.46 0.48
-13 -10 8 4.97 0.51
-13 -10 -9 4.67 0.61
13 10 -9 4.05 0.45
13 -10 9 3.09 0.41
-13 -10 9 3.54 0.45
13 10 -10 1.75 0.35
-13 -10 -10 2.67 0.5
13 -10 10 2.57 0.38
-13 10 10 2.16 0.39
-13 -10 10 2.95 0.38
-13 10 11 10.65 0.76
13 10 -11 12.72 0.77
-13 -10 -11 11.56 0.82
13 -10 11 11.53 0.75
13 10 11 11.72 0.82
-13 -10 11 11.51 0.75
13 10 -12 0.6 0.21
-13 -10 -12 0.32 0.31
13 -10 12 0.47 0.19
-13 10 12 0.39 0.29
13 10 12 0.56 0.28
13 -10 -12 0.14 0.2
-13 -10 12 1.04 0.23
13 -10 13 10.23 0.64
13 10 -13 10.13 0.66
-13 -10 13 10.43 0.65
14 10 0 2.89 0.41
-14 -10 0 2.66 0.47
14 10 -1 0.34 0.36
-14 -10 -1 1.25 0.33
14 10 -1 0.88 0.27
14 10 1 0.46 0.35
14 10 1 0.93 0.26
14 10 -2 1.24 0.28
-14 -10 -2 1.59 0.36
14 10 2 1.27 0.28
14 10 2 0.85 0.34
14 10 -3 5.38 0.51
-14 -10 -3 6.15 0.62
14 -10 3 5.53 0.49
14 10 3 5.61 0.68
14 -10 4 2.4 0.31
-14 -10 4 1.4 0.34
14 10 -5 14.65 0.92
14 -10 5 13.92 0.9
-14 -10 -5 14.91 0.99
-14 -10 5 12.32 0.93
14 10 -6 0.74 0.29
14 -10 6 1.34 0.27
-14 -10 6 1.44 0.33
14 -10 7 6.78 0.57
14 10 -7 7.17 0.58
-14 -10 -7 8.89 0.71
-14 -10 7 6.44 0.6
14 -10 8 0.29 0.23
14 10 -8 0.38 0.24
-14 -10 -8 0.76 0.4
-14 -10 8 0.58 0.27
14 10 -9 11.24 0.71
14 -10 9 10.09 0.68
-14 -10 -9 9.83 0.76
-14 10 9 8.91 0.69
-14 -10 9 10.23 0.69
-14 10 10 2.91 0.39
14 -10 10 3.68 0.38
14 10 -10 4.14 0.38
-14 -10 -10 3.56 0.51
-14 -10 10 4.26 0.39
-14 -10 -11 2.63 0.42
14 -10 11 2.91 0.32
14 10 -11 2.6 0.32
-14 -10 11 3.6 0.34
14 10 -12 1.77 0.28
14 -10 12 1.8 0.27
-14 -10 12 2.3 0.3
-15 -10 0 0.16 0.29
15 10 0 0.11 0.23
-15 -10 -1 0.77 0.31
15 10 -1 0.41 0.24
15 10 1 0.7 0.26
15 10 -2 0.29 0.23
-15 -10 -2 0.4 0.31
15 10 -3 1.01 0.27
-15 -10 -3 1.48 0.37
15 10 -4 0.2 0.23
-15 -10 -4 0.76 0.34
15 -10 5 0.18 0.21
15 10 -5 -0.07 0.22
-15 -10 -5 0.82 0.37
-15 -10 5 -0.29 0.27
15 -10 6 0.39 0.23
15 10 -6 0.57 0.25
-15 -10 6 0.52 0.29
15 -10 7 0.11 0.22
15 10 -7 0.13 0.23
-15 -10 -7 0.46 0.37
-15 -10 7 0.3 0.27
15 -10 8 0.42 0.22
-15 -10 -8 1 0.38
15 10 -8 0.56 0.23
-15 -10 8 0.5 0.25
15 -10 9 0.08 0.2
-15 -10 -9 0.17 0.37
15 10 -9 0.08 0.21
-15 -10 9 0.39 0.24
-15 -10 -10 0.06 0.33
15 -10 10 0.01 0.19
15 10 -10 0.23 0.2
-15 -10 10 0.49 0.22
-16 -10 0 5.13 0.51
16 10 0 5.1 0.46
-16 -10 -1 0.81 0.3
16 10 -1 0.73 0.23
-16 -10 1 0.79 0.3
-16 -10 -2 4.39 0.5
16 10 -2 4.07 0.43
-16 -10 2 4.12 0.49
16 10 -3 2.38 0.36
-16 -10 -3 2.29 0.48
16 10 -4 3.25 0.39
-16 -10 -4 3.66 0.51
-16 -10 -5 4.35 0.52
16 10 -5 3.22 0.39
-16 -10 -6 1 0.35
16 10 -6 0.78 0.23
-16 -10 6 0.23 0.27
16 10 -7 2.41 0.32
-16 -10 -7 2.38 0.47
16 -10 7 3.16 0.33
-16 -10 7 2.13 0.36
-16 -10 -8 0.88 0.36
16 10 -8 1.06 0.23
16 -10 8 0.78 0.22
-16 -10 8 1.03 0.27
16 -10 9 1.34 0.23
-16 -10 -9 0.63 0.33
16 10 -9 1.35 0.27
-16 -10 9 1.73 0.31
-17 -10 0 0.16 0.26
-17 -10 -1 14.08 0.97
17 10 -1 17.24 0.95
-17 -10 1 14.59 0.99
17 10 -2 2.03 0.31
-17 -10 -2 2.42 0.41
-17 -10 2 2.52 0.41
17 10 -3 13.03 0.81
-17 -10 -3 12.15 0.86
-17 -10 3 12.65 0.86
17 10 -4 6.43 0.5
-17 -10 -4 5.67 0.57
-17 -10 4 7.33 0.59
17 10 -5 2.5 0.33
-17 -10 -5 2.71 0.45
17 10 -6 8.99 0.59
-17 -10 -6 7.87 0.64
-17 -10 -7 0.04 0.32
17 10 -7 0.28 0.2
-18 -10 0 2.07 0.32
-18 -10 -1 0.87 0.27
-18 -10 1 0.87 0.28
-18 -10 -2 1.15 0.3
-18 -10 2 1.47 0.3
18 10 -3 5.1 0.4
-18 -10 -3 4.27 0.46
-18 -10 3 4.87 0.47
-18 -10 -4 1.31 0.32
18 10 -5 8.25 0.54
-18 -10 -5 6.55 0.58
-18 -10 5 8.53 0.64
0 -11 0 -0.25 0.61
0 11 0 0.18 0.2
0 11 0 0.24 0.24
0 11 1 0.08 0.21
0 -11 1 0.1 0.15
0 11 1 0.17 0.25
0 -11 1 0.4 0.66
0 11 -1 0.18 0.22
0 11 -1 0.44 0.25
0 -11 2 0.06 0.14
0 11 2 0.38 0.26
0 11 2 -0.04 0.19
0 11 -2 0.15 0.19
0 -11 2 -0.15 0.71
0 11 -2 0.58 0.25
0 11 -3 0.33 0.25
0 11 3 0.09 0.23
0 -11 3 -0.17 0.15
0 -11 3 -0.95 0.67
0 11 -3 -0.13 0.11
0 -11 4 0.23 0.18
0 11 -4 0.7 0.27
0 11 4 0.45 0.26
0 11 5 0.28 0.1
0 11 -5 0.3 0.23
0 11 5 0.19 0.25
0 11 -6 0.34 0.23
0 11 6 0.19 0.25
0 -11 6 0.04 0.19
0 11 6 0.18 0.11
0 -11 7 -0.27 0.18
0 11 7 -0.02 0.12
0 11 7 -0.02 0.25
0 11 -7 0.04 0.26
0 11 8 -0.18 0.28
0 -11 8 0.1 0.22
0 11 -8 0.13 0.27
0 11 9 -0.08 0.29
0 -11 9 0.1 0.23
0 11 -9 0.16 0.28
0 11 -10 -0.33 0.25
0 11 10 -0.13 0.31
0 -11 -10 -0.01 0.33
0 -11 10 -0.14 0.25
0 11 10 0.01 0.34
0 -11 10 -0.6 0.29
0 -11 11 0.57 0.32
0 11 11 0.14 0.35
0 11 11 0.86 0.37
0 -11 11 0.05 0.28
0 -11 -11 1.12 0.36
0 11 12 -0.01 0.36
0 -11 12 -0.03 0.3
0 -11 -12 0.18 0.33
0 -11 12 -0.1 0.3
0 -11 -13 0.93 0.33
0 -11 13 0.43 0.3
0 11 13 0.7 0.35
0 -11 13 0.13 0.31
0 11 -13 0.71 0.32
0 11 14 -0.08 0.34
0 -11 14 0.29 0.29
0 11 -14 -0.35 0.29
0 -11 -14 -0.25 0.3
0 -11 -15 0.41 0.29
0 -11 15 0.29 0.28
0 11 -15 0.2 0.28
0 11 15 0 0.31
0 11 -16 0.08 0.25
0 -11 16 0.07 0.23
0 -11 -16 0.03 0.24
0 -11 -17 0.07 0.23
0 11 -17 0.09 0.22
0 -11 17 0.17 0.22
-1 11 0 66.6 3.81
1 11 0 66.61 3.83
-1 11 0 70.31 3.83
1 11 0 64.52 3.81
1 11 -1 3.11 0.44
-1 11 1 2.82 0.48
-1 11 1 3 0.44
1 11 1 3.81 0.56
-1 -11 1 1.82 0.67
-1 11 -1 3.61 0.51
-1 11 -1 2.41 0.44
1 11 1 3.12 0.45
1 -11 2 76.45 4.25
-1 11 2 79.01 4.27
1 11 -2 74.29 4.29
1 11 2 73.34 4.26
-1 11 -2 75.05 4.29
-1 11 -2 72.58 4.25
1 11 2 75.74 4.28
1 -11 3 -0.03 0.15
1 11 -3 0.29 0.24
-1 11 3 0.37 0.24
1 11 3 0.37 0.27
-1 -11 3 -0.03 0.16
-1 -11 3 -0.58 0.6
-1 11 -3 0.03 0.19
-1 11 -3 0.47 0.26
-1 11 4 14.57 1
1 -11 4 14.6 0.93
1 11 -4 14.18 0.99
-1 -11 4 15.55 0.95
-1 11 -4 14.62 1.02
1 11 4 15.2 1.02
-1 11 5 3.8 0.5
1 11 -5 3.95 0.54
-1 11 5 2.96 0.37
1 -11 5 3.29 0.39
1 11 5 4.12 0.55
-1 11 -5 3.97 0.48
-1 -11 5 3 0.43
1 -11 6 0.33 0.18
-1 11 6 0.36 0.24
-1 11 6 0.2 0.17
1 11 -6 0.5 0.26
1 11 6 0.25 0.26
-1 -11 6 0.02 0.2
-1 11 -6 0.72 0.27
1 -11 7 4.35 0.47
1 11 -7 4.41 0.57
-1 11 7 4.06 0.55
-1 11 7 4.45 0.45
1 11 7 4.42 0.59
-1 -11 7 4.17 0.48
-1 11 -7 4.64 0.57
1 11 -8 4.75 0.57
-1 11 8 4.84 0.63
-1 11 8 4.6 0.48
1 -11 8 3.93 0.47
-1 11 -8 4.94 0.61
-1 -11 8 3.61 0.52
1 11 8 3.77 0.59
1 -11 9 0.36 0.23
-1 11 9 -0.12 0.3
-1 11 9 0.22 0.24
1 11 -9 0.29 0.26
-1 11 -9 0.2 0.27
1 11 9 0.18 0.29
-1 -11 9 0.39 0.25
1 -11 10 3.75 0.43
-1 -11 -10 4 0.48
1 -11 10 3.27 0.53
-1 11 10 2.99 0.45
1 11 10 3.29 0.63
-1 -11 10 3.27 0.55
1 11 10 3.89 0.55
1 -11 -10 3.18 0.44
-1 11 -10 3.01 0.58
-1 -11 -11 2.16 0.4
-1 11 11 0.93 0.39
1 -11 11 2.18 0.37
-1 11 11 1.93 0.39
1 -11 -11 2.29 0.41
-1 -11 11 1.83 0.36
-1 -11 11 1.29 0.34
1 11 11 1.94 0.4
1 -11 12 10.93 0.8
-1 11 12 9.59 0.98
1 -11 12 12.12 0.92
-1 -11 -12 12.2 0.81
1 11 -12 11.89 0.8
-1 11 12 11.56 0.85
1 11 12 11.97 0.87
-1 -11 12 11 0.8
1 -11 -12 12.59 0.81
-1 -11 12 11.21 0.93
1 11 12 10.72 1
-1 11 -12 11.89 0.8
1 11 -13 0.14 0.3
-1 11 13 -0.27 0.35
-1 -11 -13 0.23 0.33
1 -11 13 0.1 0.29
1 -11 13 -0.11 0.29
-1 -11 13 -0.05 0.3
1 -11 -13 0.36 0.32
-1 -11 13 0.06 0.29
-1 11 -13 0.09 0.3
1 11 13 0.12 0.34
1 -11 14 9.03 0.65
-1 11 14 8.67 0.7
-1 -11 -14 8.8 0.67
1 11 -14 8.66 0.66
1 11 14 8.81 0.71
-1 -11 14 8.76 0.65
-1 11 -14 8.63 0.66
1 -11 -14 9.01 0.66
1 11 -15 0.3 0.27
-1 11 15 -0.09 0.2
-1 -11 -15 0.2 0.29
1 -11 15 0.17 0.26
-1 11 -15 -0.01 0.28
-1 -11 15 0.08 0.27
1 -11 -15 -0.05 0.27
1 11 15 -0.29 0.31
-1 -11 -16 2.01 0.33
1 -11 16 2.41 0.32
1 11 -16 1.66 0.32
-1 -11 16 1.83 0.3
1 -11 -16 1.99 0.31
1 11 16 1.68 0.33
-1 11 -16 1.83 0.31
-1 -11 -17 0.84 0.24
1 -11 17 0.72 0.22
1 11 -17 0.7 0.23
-1 -11 17 0.86 0.23
-1 11 -17 0.76 0.23
1 -11 -17 0.4 0.24
2 11 0 0.18 0.19
-2 -11 0 -0.52 0.51
-2 11 0 0.09 0.19
-2 11 0 0.21 0.24
-2 11 1 4.04 0.54
2 -11 1 6.13 0.44
2 11 -1 4.61 0.56
-2 11 1 5.12 0.52
-2 11 -1 5.38 0.57
-2 -11 1 3.52 0.75
2 11 1 4.9 0.52
-2 11 -1 4.92 0.49
2 11 1 6.22 0.6
2 11 -2 16.63 1.07
-2 11 2 17.21 1.06
2 -11 2 14.97 1
2 11 2 16.63 1.1
-2 11 -2 16.75 1.09
-2 11 -2 15.91 1.02
2 11 2 15.92 1.04
2 -11 3 5.38 0.44
-2 11 3 4.99 0.5
2 11 -3 4.99 0.55
-2 11 -3 5.41 0.54
2 11 3 5.55 0.62
2 11 3 4.7 0.5
-2 11 -3 5.28 0.48
2 11 -4 30.91 1.75
2 -11 4 26.06 1.66
-2 11 4 28.51 1.7
2 11 4 27.59 1.73
-2 11 -4 27.81 1.67
-2 11 -4 29.37 1.71
-2 11 5 4.21 0.4
-2 11 5 4.7 0.53
2 -11 5 4.45 0.43
2 11 -5 4.8 0.58
2 11 5 4.76 0.59
-2 -11 5 4.77 0.47
-2 11 -5 4.5 0.56
2 11 -6 48.82 2.79
-2 11 6 47.93 2.72
2 -11 6 46.46 2.74
-2 11 6 47.2 2.77
-2 11 -6 46.27 2.77
-2 -11 6 49.07 2.75
2 11 6 47.1 2.79
2 -11 7 2.31 0.37
2 11 -7 1.44 0.3
-2 11 7 2.1 0.38
-2 11 7 2.17 0.33
-2 -11 7 2.03 0.3
2 11 7 2.34 0.36
-2 11 -7 2.53 0.49
-2 11 8 22.91 1.36
2 -11 8 22.27 1.37
2 11 -8 21.2 1.42
-2 11 8 22.94 1.43
-2 11 -8 21.43 1.4
2 11 8 21.83 1.44
-2 -11 8 22.36 1.39
2 11 -9 0.25 0.25
2 -11 9 0.68 0.24
-2 11 9 0.66 0.25
-2 11 9 0.3 0.32
-2 -11 9 0.58 0.27
2 11 9 0.36 0.28
2 11 9 -0.19 0.31
-2 11 -9 0.72 0.3
2 -11 10 10.43 0.72
-2 11 10 9.74 0.8
2 -11 10 11.64 0.82
-2 -11 -10 9.9 0.75
-2 11 10 10.94 0.89
-2 -11 10 10.58 0.84
-2 11 -10 9.63 0.85
2 -11 -10 8.45 0.71
2 11 10 10.77 0.88
2 11 10 9.64 0.77
2 -11 11 2.25 0.36
2 -11 11 1.28 0.31
-2 11 11 0.82 0.38
-2 -11 11 1.81 0.36
2 11 11 1.32 0.39
2 -11 -11 2.13 0.38
-2 -11 11 1.27 0.34
2 11 11 2.25 0.41
-2 -11 -12 7.62 0.6
2 -11 12 7.41 0.71
2 -11 12 6.65 0.58
2 11 -12 5.27 0.56
2 11 12 6.51 0.66
2 -11 -12 7.67 0.58
2 11 12 6.47 0.82
-2 -11 12 6.55 0.59
-2 -11 12 7.03 0.74
2 11 -13 0.23 0.3
-2 -11 -13 0.39 0.34
-2 11 13 -0.56 0.3
2 -11 13 0.03 0.29
2 -11 13 0.31 0.31
2 -11 -13 0.63 0.31
-2 -11 13 0.1 0.31
2 11 13 0.02 0.32
2 11 13 -0.56 0.35
-2 11 -13 0.02 0.3
-2 -11 -14 2.26 0.43
2 11 -14 2.84 0.4
2 -11 14 2.06 0.39
-2 11 -14 2.94 0.41
2 11 14 1.96 0.38
-2 -11 14 2.06 0.35
2 -11 -14 2.13 0.4
2 11 -15 0.27 0.27
-2 -11 -15 0.19 0.29
2 -11 15 0.26 0.25
-2 -11 15 -0.07 0.27
2 11 15 -0.23 0.31
2 -11 -15 0.26 0.27
-2 11 -15 0.22 0.29
2 -11 16 4.04 0.37
2 11 -16 4.41 0.39
-2 -11 -16 3.49 0.39
2 11 16 3.69 0.45
2 -11 -16 3.61 0.37
-2 -11 16 3.73 0.37
-2 11 -16 4.51 0.4
2 11 -17 0.08 0.21
-2 -11 -17 -0.03 0.22
2 -11 17 0.11 0.2
-2 11 -17 -0.08 0.22
2 -11 -17 -0.26 0.22
-2 -11 17 -0.1 0.22
-3 11 0 70.45 3.9
-3 11 0 69.53 3.92
3 11 0 66.47 3.93
3 11 -1 0.56 0.24
3 -11 1 0.11 0.14
-3 11 1 0.42 0.22
3 11 1 0.36 0.2
-3 11 -1 0.45 0.24
-3 11 -1 0.29 0.19
3 11 1 0.28 0.27
-3 11 2 80.41 4.48
3 11 -2 82.37 4.52
3 -11 2 74.91 4.46
3 11 2 79.33 4.49
3 11 2 77.77 4.51
-3 11 -2 79.24 4.47
-3 11 -2 79.49 4.5
3 11 -3 0.16 0.24
-3 11 3 0.14 0.21
3 -11 3 0.04 0.13
-3 11 -3 0.31 0.24
-3 11 -3 -0.09 0.18
3 11 3 0.08 0.17
3 11 3 0.53 0.29
-3 11 4 15.39 0.98
3 11 -4 14.82 1.04
3 -11 4 15.99 0.94
3 11 4 13.66 0.96
3 11 4 14.44 1.05
-3 11 -4 14.67 1.02
3 -11 5 1.74 0.32
-3 11 5 1.63 0.27
-3 11 5 1.38 0.29
3 11 -5 1.23 0.3
-3 11 -5 1.5 0.29
3 11 5 1.32 0.32
3 -11 6 4.75 0.44
-3 11 6 4.62 0.43
-3 11 6 4.81 0.54
3 11 -6 3.5 0.57
3 11 6 4.26 0.59
-3 11 -6 4.13 0.5
3 -11 7 0.52 0.19
-3 11 7 0.38 0.26
-3 11 7 0.45 0.19
3 11 -7 0.31 0.25
-3 11 -7 0.65 0.26
3 11 7 0.33 0.29
-3 -11 7 0.23 0.24
3 11 -8 1.14 0.29
-3 11 8 1.44 0.33
3 -11 8 1.24 0.25
-3 11 -8 1.93 0.32
-3 -11 8 1.04 0.28
3 11 8 1.18 0.32
-3 11 9 -0.04 0.31
3 -11 9 0.13 0.27
3 -11 9 0.29 0.21
3 11 -9 -0.29 0.23
-3 11 9 0.33 0.24
-3 -11 9 0.12 0.27
3 11 9 0.05 0.33
3 11 9 0.13 0.3
-3 11 -9 0.46 0.29
-3 11 10 4.24 0.71
3 -11 10 4.87 0.58
3 -11 10 5.19 0.51
-3 11 10 5.38 0.59
-3 -11 -10 5.91 0.57
3 11 10 5.2 0.68
-3 -11 10 4.3 0.62
3 -11 -10 4.22 0.49
3 11 10 5.74 0.64
-3 11 -10 5.58 0.63
3 11 -11 0.23 0.3
-3 11 11 0.12 0.3
-3 11 11 -0.52 0.32
-3 -11 -11 0.96 0.41
3 -11 11 0.59 0.32
3 -11 11 0.36 0.28
-3 -11 11 0.14 0.31
3 11 11 0.58 0.37
3 11 11 0.12 0.34
3 -11 -11 0.46 0.33
3 -11 12 9.3 0.82
3 11 -12 9.87 0.68
3 -11 12 9.2 0.69
-3 11 12 10.28 0.78
-3 -11 -12 9.37 0.73
3 11 12 8.32 0.92
3 -11 -12 9.87 0.7
-3 -11 12 9.06 0.69
3 11 12 7.62 0.72
3 11 -13 -0.11 0.29
3 -11 13 0.29 0.29
-3 11 13 0.89 0.43
-3 -11 -13 0.03 0.34
3 -11 13 0.01 0.29
3 11 13 -0.61 0.35
3 11 13 -0.1 0.32
3 -11 -13 0.05 0.29
-3 -11 13 -0.09 0.3
-3 11 -13 -0.28 0.31
3 -11 14 8.18 0.6
-3 -11 -14 8.1 0.63
3 11 -14 7.59 0.6
-3 11 14 7.27 0.68
3 -11 -14 8.24 0.6
-3 -11 14 7.8 0.6
-3 11 -14 7.92 0.61
3 11 14 7.6 0.67
-3 11 15 0.23 0.38
3 11 -15 0.03 0.25
-3 -11 -15 -0.18 0.27
3 -11 15 0.04 0.24
3 -11 -15 -0.03 0.25
3 11 15 0.07 0.31
-3 11 -15 0.03 0.28
-3 -11 15 -0.06 0.26
3 -11 16 1.66 0.28
3 11 -16 1.77 0.31
-3 -11 -16 1.61 0.29
3 -11 -16 1.83 0.29
3 11 16 1.52 0.32
-3 11 -16 1.4 0.3
-3 -11 16 1.77 0.29
3 -11 17 0.11 0.21
3 11 -17 -0.01 0.21
-3 -11 -17 -0.25 0.22
-3 -11 17 -0.06 0.21
3 11 17 0.06 0.22
3 -11 -17 -0.29 0.22
-3 11 -17 -0.08 0.21
-4 11 0 -0.07 0.17
4 11 0 0.09 0.2
-4 11 0 -0.25 0.22
-4 11 1 0.5 0.19
4 -11 1 0.69 0.16
4 11 -1 0.53 0.22
4 11 1 0.51 0.19
-4 11 -1 0.64 0.25
-4 11 -1 0.44 0.19
-4 11 2 0.25 0.17
4 11 -2 -0.02 0.24
4 -11 2 0.29 0.14
4 11 2 0.13 0.19
-4 11 -2 0.02 0.17
4 11 2 0.43 0.3
-4 11 -2 0.09 0.24
4 11 -3 0.37 0.25
-4 11 3 0.24 0.2
4 -11 3 0.21 0.15
4 11 3 0.35 0.31
4 11 3 -0.02 0.18
-4 11 -3 0.29 0.22
4 11 -4 1.8 0.31
-4 11 4 1.78 0.27
4 -11 4 1.88 0.29
4 11 4 1.7 0.34
4 11 4 1.26 0.23
-4 11 -4 1.99 0.31
4 -11 5 0.43 0.16
-4 11 5 0.58 0.23
4 11 -5 0.29 0.27
-4 11 -5 0.5 0.25
4 11 5 0.22 0.3
4 11 5 0.21 0.18
-4 11 6 3.86 0.38
4 11 -6 3.59 0.57
4 -11 6 3.41 0.4
-4 11 6 4.06 0.53
4 11 6 3.28 0.59
-4 11 -6 3.8 0.53
4 -11 7 -0.01 0.16
-4 11 7 0.09 0.25
-4 11 7 0.05 0.17
4 11 -7 -0.24 0.26
-4 11 -7 0.12 0.25
4 11 7 0.02 0.26
4 -11 8 3.18 0.44
4 11 -8 2.51 0.5
-4 11 8 2.99 0.44
-4 11 8 2.71 0.4
4 11 8 3.04 0.59
-4 11 -8 4.15 0.55
-4 11 9 0.27 0.23
4 -11 9 0 0.27
-4 -11 -9 0.58 0.45
-4 11 9 -0.15 0.31
4 -11 9 0.09 0.21
4 11 9 0.19 0.35
-4 11 -9 0.18 0.29
4 11 9 0.06 0.28
4 11 -10 -0.41 0.23
4 -11 10 0.15 0.25
-4 11 10 0.11 0.27
-4 -11 -10 0.63 0.42
4 -11 10 0.3 0.29
4 11 10 -0.07 0.32
4 -11 -10 0 0.26
4 -11 -10 -0.25 0.32
4 11 10 0.27 0.37
-4 11 -10 -0.11 0.3
4 -11 11 0.3 0.3
4 -11 11 0.19 0.28
4 11 -11 0.1 0.31
-4 11 11 0.18 0.3
-4 -11 -11 0.73 0.41
-4 11 -11 -0.51 0.29
4 11 11 -0.2 0.34
4 -11 -11 0.39 0.32
4 -11 -11 0.01 0.22
4 11 11 0.2 0.35
4 -11 12 1.96 0.37
4 -11 12 2.3 0.42
-4 -11 -12 2.64 0.49
4 11 -12 2.36 0.38
4 11 12 2.63 0.4
4 -11 -12 2.33 0.42
4 11 12 1.58 0.43
4 -11 13 0.21 0.28
4 11 -13 0.56 0.29
-4 -11 -13 0.93 0.35
4 -11 13 0.71 0.29
4 11 13 0.38 0.32
4 -11 -13 0.86 0.29
-4 -11 13 0.29 0.31
-4 11 -13 0.4 0.3
4 -11 14 -0.19 0.25
-4 11 14 0.5 0.41
-4 -11 -14 -0.26 0.3
4 11 -14 0.04 0.27
4 11 14 0.28 0.32
-4 -11 14 -0.04 0.29
4 -11 -14 -0.13 0.26
-4 11 -14 -0.2 0.29
4 -11 15 0.31 0.23
-4 11 15 0.8 0.39
4 11 -15 0.09 0.24
-4 -11 -15 -0.03 0.28
4 11 15 0.02 0.3
-4 11 -15 -0.09 0.28
4 -11 -15 0.28 0.25
-4 -11 15 0.24 0.27
-4 -11 -16 -0.37 0.24
-4 11 16 -0.15 0.33
4 -11 16 -0.09 0.21
4 11 -16 -0.2 0.22
4 11 16 -0.29 0.27
-4 -11 16 -0.31 0.23
-4 -11 -17 -0.34 0.22
4 -11 17 0.07 0.22
4 11 -17 0 0.21
4 11 17 0 0.21
4 -11 -17 -0.13 0.23
-5 11 0 27.09 1.6
-5 11 0 25.46 1.63
5 11 0 28.88 1.66
5 11 -1 0.78 0.24
-5 11 1 0.67 0.18
-5 11 -1 0.54 0.17
5 11 1 0.63 0.2
-5 11 -1 0.49 0.23
5 11 -2 12.25 0.9
-5 11 2 12.23 0.8
5 -11 2 12.72 0.78
-5 11 -2 11.98 0.79
-5 11 -2 11.7 0.86
5 11 2 11.02 0.82
5 -11 3 0.77 0.17
5 11 -3 0.62 0.27
-5 11 3 0.67 0.21
5 11 3 0.74 0.33
5 11 3 0.51 0.2
-5 11 -3 0.41 0.24
5 -11 4 7.36 0.55
-5 11 4 7.94 0.62
5 11 -4 7.51 0.71
5 11 4 6.92 0.79
-5 11 -4 7.69 0.67
5 11 4 7.58 0.62
5 11 -5 0.25 0.28
-5 11 5 0.61 0.23
5 -11 5 0.52 0.16
-5 11 5 0.6 0.16
5 11 5 0.22 0.31
-5 11 -5 0.53 0.25
5 11 5 0.27 0.19
5 -11 6 0.32 0.16
-5 11 6 0.13 0.23
-5 11 6 0.19 0.16
5 11 -6 -0.2 0.26
5 11 6 -0.06 0.31
5 11 6 -0.01 0.14
-5 11 -6 0.38 0.25
-5 11 7 0.39 0.27
-5 11 7 0.48 0.19
5 -11 7 0.55 0.19
5 11 -7 -0.03 0.27
5 11 7 0.57 0.33
-5 11 -7 0.56 0.27
-5 11 8 2.97 0.44
5 -11 8 2.49 0.41
5 -11 8 1.94 0.31
-5 11 8 2.51 0.38
5 11 8 2.17 0.39
-5 11 9 0.63 0.25
5 -11 9 0.52 0.29
5 -11 9 0.51 0.24
-5 11 9 0.21 0.32
-5 11 -9 0.6 0.31
5 11 9 0.94 0.39
5 11 9 0.14 0.31
5 -11 -9 0.71 0.3
5 -11 10 2.98 0.4
-5 -11 -10 3.87 0.6
-5 11 10 2.5 0.52
5 -11 10 2.65 0.52
5 11 -10 2.48 0.41
-5 11 -10 2.3 0.4
5 -11 -10 3.12 0.46
5 11 10 2.09 0.44
5 11 10 3.1 0.44
5 -11 -10 2.21 0.46
5 11 -11 -0.15 0.31
5 -11 11 0.29 0.28
-5 -11 -11 1.13 0.41
-5 11 11 -0.07 0.29
5 -11 11 -0.05 0.3
5 -11 -11 0.43 0.31
5 11 11 0.36 0.35
5 11 11 -0.04 0.36
5 -11 -11 0.52 0.32
-5 11 -11 -0.04 0.32
5 -11 12 3.77 0.58
-5 -11 -12 3.47 0.52
5 -11 12 3.64 0.43
5 11 -12 3.18 0.43
-5 11 12 4.86 0.55
5 -11 -12 3.61 0.47
5 11 12 2.36 0.48
5 -11 -12 3.63 0.45
5 11 12 3.79 0.54
5 -11 13 0.15 0.28
-5 -11 -13 0.36 0.35
5 11 -13 0.17 0.28
5 -11 13 -0.24 0.22
-5 11 13 0.73 0.4
5 -11 -13 0.02 0.26
5 -11 -13 0.3 0.28
-5 11 -13 -0.55 0.28
5 11 13 0.03 0.32
-5 11 14 1.42 0.4
5 -11 14 0.95 0.28
5 11 -14 1.2 0.3
-5 -11 -14 0.91 0.34
5 -11 -14 0.97 0.29
5 11 14 0.88 0.34
-5 11 -14 0.53 0.3
5 -11 15 0.17 0.23
5 11 -15 0.19 0.23
-5 -11 -15 -0.28 0.28
-5 11 15 0.87 0.37
5 -11 -15 -0.12 0.24
5 11 15 0.09 0.28
-5 11 -15 -0.22 0.27
5 -11 16 0.2 0.22
-5 11 16 0.1 0.33
-5 -11 -16 -0.12 0.25
5 11 -16 0.01 0.21
5 11 16 -0.22 0.25
5 -11 -16 -0.03 0.23
-5 11 -16 -0.2 0.24
-5 -11 -17 0.27 0.21
5 -11 17 0.58 0.24
5 11 -17 0.38 0.22
5 11 17 0.07 0.22
5 -11 -17 0.33 0.24
6 11 0 -0.06 0.19
-6 11 0 -0.01 0.15
6 11 -1 2.5 0.42
-6 11 1 2.23 0.36
-6 11 -1 1.6 0.29
-6 11 -1 2.23 0.34
6 11 1 2.27 0.37
6 -11 2 19.84 1.23
-6 11 2 20.61 1.25
6 11 -2 21.2 1.34
-6 11 -2 20.44 1.24
-6 11 -2 20.96 1.3
6 11 2 19.64 1.28
6 -11 3 1.49 0.28
-6 11 3 1.05 0.22
6 11 -3 1.59 0.31
-6 11 -3 1.43 0.29
6 11 3 1.36 0.24
-6 11 4 28.64 1.68
6 -11 4 26.23 1.65
6 11 -4 28.92 1.78
6 11 4 25.73 1.78
6 11 4 28.28 1.7
-6 11 -4 30.39 1.73
-6 11 5 0.15 0.13
6 11 -5 -0.19 0.28
-6 11 5 0.29 0.22
6 -11 5 0.13 0.15
6 11 5 0.04 0.19
6 11 5 -0.21 0.33
-6 11 -5 0.13 0.25
6 -11 6 46.02 2.72
6 11 -6 48.62 2.82
-6 11 6 46.49 2.74
-6 11 6 47.82 2.71
-6 11 -6 46.6 2.76
6 11 6 46.45 2.74
6 11 6 46.72 2.83
-6 11 7 0.46 0.19
6 11 -7 0.01 0.28
6 -11 7 0.34 0.19
-6 11 7 0.2 0.27
6 -11 -7 0.13 0.23
6 11 7 0.01 0.33
-6 11 -7 0.44 0.28
-6 11 8 51.12 2.93
6 -11 8 50.28 2.9
-6 11 8 48.33 2.97
6 -11 8 53.19 2.96
6 11 8 51.75 3.03
-6 11 -8 50.2 2.97
6 -11 -8 49.69 2.92
-6 11 9 0.92 0.26
6 -11 9 0.74 0.31
6 -11 9 0.73 0.26
-6 -11 9 1.24 0.37
6 -11 -9 0.9 0.3
-6 11 -9 0.56 0.32
6 11 9 0.67 0.38
6 11 9 0.07 0.35
6 11 -10 9.21 0.74
-6 -11 -10 10.16 0.86
6 -11 10 11.3 0.84
-6 11 10 10.92 0.82
6 -11 10 9.82 0.74
6 11 10 9.93 0.84
6 11 10 10.64 0.96
6 -11 -10 9.64 0.77
6 -11 -10 10.95 0.77
-6 -11 10 9.95 0.81
-6 11 -10 9.51 0.88
-6 -11 -11 3.81 0.57
6 -11 11 2.42 0.44
6 11 -11 2.57 0.4
6 -11 11 2.87 0.56
-6 11 11 2.79 0.56
6 -11 -11 3.36 0.48
6 -11 -11 3.92 0.48
6 11 11 3.47 0.47
6 -11 12 0.99 0.32
6 11 -12 1.28 0.32
6 -11 12 0.61 0.28
6 11 12 0.74 0.35
6 -11 -12 1.19 0.32
-6 11 13 2.03 0.4
-6 -11 -13 1.96 0.38
6 -11 13 1.13 0.3
6 11 -13 1.08 0.3
6 11 13 0.94 0.35
6 -11 -13 1.46 0.33
-6 11 -13 0.58 0.31
6 -11 -13 1.92 0.38
6 -11 14 2.09 0.32
6 11 -14 2.43 0.38
-6 11 14 2.71 0.46
-6 -11 -14 2.14 0.38
-6 11 -14 2.08 0.33
6 11 14 1.76 0.35
6 -11 -14 1.89 0.37
6 -11 15 0.9 0.25
6 11 -15 0.98 0.25
-6 -11 -15 1.16 0.31
-6 11 15 1.21 0.36
6 -11 -15 1.49 0.3
-6 11 -15 0.71 0.27
6 11 15 0.72 0.29
6 11 -16 2.74 0.3
-6 -11 -16 2.31 0.31
-6 11 16 2.3 0.39
6 -11 16 2.49 0.3
6 -11 -16 2.21 0.31
6 11 16 2.33 0.36
7 11 0 83.28 4.72
-7 11 0 81.61 4.67
-7 11 1 0.13 0.18
7 11 -1 -0.05 0.22
-7 11 -1 0.1 0.16
-7 11 -1 -0.17 0.21
7 11 1 0.1 0.17
-7 11 2 81.41 4.62
7 11 -2 81.8 4.7
7 11 2 81.74 4.66
-7 11 -2 80.99 4.64
7 -11 3 0.14 0.14
-7 11 3 0.16 0.19
7 11 -3 0.05 0.26
-7 11 -3 0.08 0.24
7 11 3 0.05 0.19
7 -11 4 29.84 1.75
-7 11 4 29.58 1.77
7 11 -4 30.09 1.89
-7 11 -4 29.45 1.81
7 11 4 29.06 1.79
7 11 -5 1.65 0.39
-7 11 5 2.58 0.46
-7 11 5 2.49 0.33
7 -11 5 2.67 0.37
7 11 5 2.51 0.44
7 11 5 1.93 0.44
-7 11 -5 2.95 0.53
7 -11 6 6.61 0.53
-7 11 6 6.17 0.51
-7 11 6 5.99 0.59
7 11 -6 5.12 0.71
7 11 6 5.74 0.58
-7 11 -6 5.59 0.65
7 11 6 4.63 0.77
-7 11 7 3.04 0.41
-7 11 7 1.78 0.34
-7 -11 -7 3.27 0.63
-7 11 -7 3.21 0.57
7 11 7 2.21 0.46
-7 -11 7 2.14 0.44
7 -11 -7 2.72 0.4
-7 11 8 8.32 0.62
7 -11 8 6.8 0.63
7 -11 8 6.77 0.58
7 11 8 5.74 0.86
7 11 8 6.13 0.64
7 -11 -8 7.99 0.61
7 -11 9 13.7 0.9
7 -11 9 13.2 0.91
7 11 -9 12.16 0.9
-7 11 9 13.99 0.96
7 -11 9 14.45 0.98
-7 -11 -9 13.06 1.03
7 11 9 13.5 1.13
-7 11 -9 14.13 1.06
-7 -11 9 13.35 0.94
7 -11 -9 13.43 0.92
7 11 9 12.6 1
-7 -11 -10 28.94 1.99
7 11 -10 37.38 1.99
7 -11 10 33.31 1.97
7 -11 10 33.89 1.98
7 -11 10 32.06 2.04
-7 11 10 33.11 2.02
-7 11 -10 32.34 2.06
7 -11 -10 36.65 2.01
-7 -11 10 34.59 1.99
7 11 10 33.73 2.02
7 11 10 33.61 2.14
7 -11 -10 31.74 1.97
7 -11 11 6.7 0.58
-7 11 11 5.73 0.67
7 -11 11 5.71 0.59
7 -11 11 6.78 0.67
-7 -11 -11 7.79 0.68
7 11 -11 5.45 0.57
7 -11 -11 6.57 0.58
7 -11 -11 7.63 0.62
7 11 11 5.44 0.84
7 11 11 7.15 0.7
7 -11 12 30.35 1.78
7 11 -12 29.96 1.79
-7 11 12 30.75 1.78
-7 -11 -12 27.24 1.8
7 11 12 29.37 1.81
7 -11 -12 31.42 1.79
-7 -11 12 30.47 1.78
7 -11 -12 30.96 1.79
-7 -11 -13 1.91 0.39
-7 11 13 1.74 0.37
7 -11 13 1.25 0.3
7 11 -13 1.13 0.3
7 11 13 1.17 0.35
-7 -11 13 0.6 0.31
7 -11 -13 1.39 0.31
7 -11 -13 1.42 0.3
-7 -11 -14 12.96 0.84
7 11 -14 12.45 0.83
-7 11 14 12.32 0.87
7 -11 14 13.64 0.83
7 11 14 12.69 0.87
7 -11 -14 13.45 0.84
-7 -11 -15 -0.05 0.27
7 -11 15 0.34 0.23
-7 11 15 0.52 0.33
7 11 -15 0.15 0.22
7 11 15 0.03 0.27
7 -11 -15 0.45 0.24
7 11 -16 3.85 0.34
7 -11 16 3.2 0.31
-7 11 16 3.01 0.43
-7 -11 -16 4.23 0.35
7 11 16 3.31 0.4
7 -11 -16 4.32 0.36
-8 11 0 0.03 0.17
8 11 0 -0.09 0.17
8 11 -1 1.4 0.29
-8 11 1 1.64 0.25
-8 11 -1 1.37 0.22
8 11 1 1.21 0.24
8 11 -2 3.16 0.56
-8 11 2 3.7 0.43
-8 11 -2 2.2 0.34
8 11 2 3.07 0.45
8 11 -3 0.13 0.3
-8 11 3 0.25 0.22
8 11 3 0.13 0.2
-8 11 -3 -0.05 0.25
-8 11 4 8.68 0.69
8 -11 4 8.15 0.63
8 11 -4 8.3 0.86
-8 11 -4 9.23 0.77
8 11 4 8.71 0.7
8 -11 5 0.27 0.18
-8 11 5 0.44 0.25
-8 11 5 0.39 0.17
8 11 -5 0.21 0.32
8 -11 5 0.1 0.23
-8 11 -5 0.4 0.29
8 -11 -5 0.21 0.18
8 11 5 0.42 0.22
8 11 5 -0.64 0.37
8 11 -6 8.39 0.83
-8 11 6 7.66 0.73
-8 -11 -6 9.75 0.8
-8 11 6 8.97 0.65
8 -11 6 8.53 0.67
8 -11 6 8.68 0.66
-8 -11 6 7.27 0.66
8 11 6 7.05 0.96
-8 11 -6 9.27 0.78
8 11 6 9.02 0.73
8 -11 -6 8.07 0.65
8 -11 7 0.06 0.32
-8 11 7 0.25 0.2
8 -11 7 0.1 0.21
8 11 -7 -0.24 0.34
-8 11 -7 0.59 0.31
8 -11 -7 0.15 0.27
8 11 7 -0.16 0.41
-8 -11 -8 16.65 1.1
8 -11 8 14.03 0.96
-8 11 8 14.59 1.01
8 11 -8 15.53 1
8 -11 8 14.55 1.03
8 -11 8 14.35 1.01
8 11 8 13.41 1.04
8 -11 -8 14.98 0.99
8 11 8 14.12 1.26
-8 11 -8 14.97 1.11
-8 -11 8 15.75 1.01
8 -11 9 0.11 0.29
8 -11 9 0.18 0.33
8 11 -9 0.21 0.33
-8 11 9 0.44 0.25
8 -11 9 0.38 0.27
-8 11 -9 0.52 0.32
8 -11 -9 0.17 0.27
8 11 9 -0.01 0.39
8 -11 -9 -0.16 0.41
-8 11 10 0.3 0.27
8 -11 10 0.41 0.34
8 -11 10 0.42 0.27
8 -11 10 0.77 0.32
8 11 -10 0.35 0.32
8 -11 -10 0.25 0.37
8 11 10 -0.11 0.41
8 11 10 0.54 0.4
-8 11 -10 0.54 0.35
8 -11 -10 0.69 0.27
8 -11 11 0.84 0.31
8 -11 11 0.23 0.32
8 11 -11 0.35 0.3
-8 11 11 -0.1 0.28
8 11 11 0.38 0.37
8 -11 -11 0.61 0.33
8 11 11 -0.27 0.39
8 -11 -11 0.54 0.27
8 11 -12 0.25 0.28
8 -11 12 0.15 0.3
8 -11 12 0.51 0.28
-8 11 12 1.1 0.34
8 -11 -12 0.58 0.28
8 11 12 0.76 0.35
8 -11 -12 0.35 0.3
8 11 -13 0.57 0.27
8 -11 13 0.18 0.25
-8 11 13 0.9 0.33
8 -11 13 0.72 0.27
-8 -11 -13 1.29 0.35
8 11 13 0.61 0.32
8 -11 -13 0.54 0.28
8 -11 -13 0.69 0.28
8 11 -14 1.11 0.25
8 -11 14 0.73 0.26
-8 11 14 1.73 0.35
-8 -11 -14 0.76 0.31
8 -11 -14 0.93 0.27
8 11 14 0.79 0.29
-8 -11 -15 0.56 0.28
8 11 -15 0.55 0.22
8 -11 15 0.48 0.23
-8 11 15 0.75 0.32
8 11 15 0.38 0.26
8 -11 -15 0.63 0.26
9 11 0 0.56 0.24
-9 11 0 0.6 0.23
-9 11 1 0.21 0.22
9 11 -1 0.24 0.24
9 11 1 0.25 0.23
-9 11 -1 0.33 0.21
9 11 -2 -0.11 0.25
-9 11 2 0.41 0.23
-9 11 -2 -0.42 0.24
-9 11 -2 0.15 0.19
9 11 2 0.11 0.21
-9 11 3 0.46 0.24
9 11 -3 0.2 0.3
9 -11 3 0.08 0.2
-9 11 -3 0.2 0.27
9 11 3 0.53 0.22
9 -11 4 0.74 0.28
9 11 -4 0.27 0.34
-9 11 4 0.75 0.19
-9 11 4 0.51 0.26
9 11 4 0.63 0.24
9 -11 -4 0.17 0.19
-9 11 -4 0.44 0.31
9 -11 5 0.18 0.2
9 11 -5 -0.13 0.33
-9 11 5 0.12 0.26
-9 11 5 0.31 0.19
9 -11 5 0.3 0.29
-9 11 -5 0.23 0.3
-9 -11 5 0.58 0.3
9 -11 -5 0.32 0.26
9 11 5 0.16 0.23
9 -11 6 0.14 0.31
9 -11 -6 0.3 0.28
-9 -11 6 0.98 0.31
-9 11 -6 0.41 0.32
-9 11 7 0.53 0.23
9 -11 7 0.26 0.25
9 11 -7 0.3 0.31
9 -11 7 0.67 0.33
9 -11 7 0.47 0.25
9 11 7 -0.42 0.44
9 -11 -7 0.72 0.29
-9 -11 7 1.21 0.33
-9 11 -7 0.5 0.33
9 11 7 0.4 0.25
9 -11 8 0.09 0.28
-9 11 8 0.12 0.24
9 -11 8 0.38 0.32
9 -11 8 0.14 0.25
9 11 -8 0.18 0.33
-9 11 -8 0.4 0.32
9 -11 -8 0.51 0.27
9 11 8 -0.54 0.43
9 11 8 0.59 0.44
9 -11 9 0.08 0.29
9 -11 9 0.3 0.3
9 11 -9 -0.06 0.3
-9 11 9 0.23 0.26
9 -11 9 0.19 0.25
9 -11 -9 -0.04 0.39
9 11 9 0.3 0.42
9 -11 -9 0.13 0.26
-9 11 -9 0.08 0.32
9 -11 10 0.34 0.31
9 11 -10 0.63 0.3
-9 11 10 0.17 0.27
9 -11 10 0.3 0.3
9 -11 -10 0.47 0.26
-9 11 -10 -0.05 0.34
9 11 10 0.41 0.4
9 -11 -10 0.49 0.37
9 -11 11 0.6 0.31
9 11 -11 0.17 0.28
9 -11 11 0.35 0.3
9 -11 -11 0.47 0.26
9 -11 -11 0.51 0.34
9 11 11 0.74 0.37
9 11 -12 1.99 0.34
-9 11 12 2.29 0.39
-9 -11 -12 2.42 0.48
9 -11 12 1.91 0.33
9 -11 12 2.11 0.34
-9 -11 12 2.94 0.42
9 -11 -12 1.74 0.35
9 11 12 1.94 0.38
9 -11 -12 1.85 0.32
9 11 -13 0.27 0.24
9 -11 13 0.32 0.24
-9 -11 -13 0.06 0.34
9 -11 13 0.01 0.24
-9 11 13 0.26 0.3
-9 -11 13 0.76 0.27
9 11 13 -0.01 0.29
9 -11 -13 0.1 0.26
9 -11 14 0.48 0.22
-9 11 14 1.24 0.32
-9 -11 -14 0.55 0.31
9 11 -14 0.64 0.22
9 11 14 0.47 0.28
9 -11 -14 0.76 0.25
9 11 -15 0.25 0.2
-9 11 15 0.61 0.31
-9 -11 -15 -0.38 0.25
9 -11 -15 0.06 0.23
9 11 15 -0.16 0.26
10 11 0 0.08 0.24
-10 11 0 -0.03 0.22
10 11 -1 4.21 0.63
-10 11 1 3.99 0.52
10 11 1 4.15 0.56
-10 11 -1 3.74 0.49
10 -11 2 10.49 0.73
-10 11 2 10.89 0.82
10 11 -2 11.18 0.97
-10 11 -2 10.69 0.8
10 11 2 11.12 0.86
10 11 -3 2.34 0.44
-10 11 3 2.31 0.34
-10 11 -3 1.9 0.37
10 11 3 3 0.49
10 -11 -3 2.18 0.3
-10 11 4 22.58 1.35
10 -11 4 23.08 1.33
-10 -11 -4 21.48 1.39
10 11 -4 21.51 1.55
-10 -11 4 19.45 1.33
10 11 4 22.25 1.41
10 -11 -4 21.33 1.28
-10 11 -4 21.66 1.44
-10 11 5 2.13 0.42
10 11 -5 0.97 0.36
10 -11 5 2.12 0.34
10 11 5 1.35 0.29
-10 -11 5 2.62 0.48
-10 11 -5 1.19 0.36
10 -11 -5 1.94 0.35
10 11 -6 18.32 1.15
10 -11 6 18.18 1.13
-10 -11 -6 18.03 1.2
-10 11 6 19.06 1.17
-10 11 -6 17.39 1.27
-10 -11 6 16.73 1.15
10 11 6 17.65 1.2
10 -11 7 0.11 0.29
-10 -11 7 0.82 0.31
10 -11 8 21.4 1.49
-10 11 8 25.57 1.54
10 11 -8 25.48 1.51
-10 -11 -8 23.52 1.56
10 -11 8 26.47 1.48
-10 11 -8 24.54 1.61
10 -11 -8 26.14 1.5
-10 -11 8 24.08 1.5
10 11 -9 0.15 0.29
-10 11 9 0.04 0.26
10 -11 9 0.41 0.29
10 -11 9 0.34 0.29
-10 11 -9 -0.43 0.31
10 -11 -9 0.04 0.4
10 -11 -9 0.26 0.25
10 11 9 0.44 0.44
10 11 -10 5.31 0.54
10 -11 10 6 0.54
10 -11 10 5.88 0.55
-10 -11 -10 7.01 0.71
10 11 10 5.98 0.71
10 -11 -10 6.05 0.6
-10 -11 10 6.93 0.58
10 -11 -10 6.16 0.54
10 -11 11 0.52 0.29
-10 -11 -11 1.36 0.43
10 -11 11 0.01 0.27
10 11 -11 0.22 0.27
-10 -11 11 1.07 0.29
10 -11 -11 0.11 0.24
10 -11 -11 -0.04 0.31
10 11 11 0.36 0.36
-10 -11 -12 1.61 0.38
-10 11 12 1.1 0.32
10 -11 12 0.92 0.28
10 11 -12 0.58 0.26
10 -11 12 0.73 0.27
-10 -11 12 1.16 0.28
10 11 12 0.4 0.33
10 -11 -12 1.04 0.29
10 -11 13 0.21 0.21
-10 -11 -13 0.33 0.33
-10 11 13 0.37 0.3
10 11 -13 0.28 0.22
10 -11 -13 0.37 0.26
10 11 13 -0.11 0.28
-10 -11 13 0.89 0.25
-10 -11 -14 0.11 0.27
-10 11 14 0.58 0.29
10 -11 14 -0.17 0.21
10 -11 -14 0.5 0.24
10 11 14 0.01 0.26
11 11 0 66.58 3.85
-11 11 0 64 3.76
-11 11 1 -0.03 0.26
-11 -11 -1 0.53 0.35
11 11 -1 0.23 0.31
11 11 1 0.26 0.27
-11 11 -1 0.07 0.24
11 11 -2 64.48 3.61
11 -11 2 65.77 3.41
-11 11 2 56.75 3.46
-11 -11 -2 51.43 3.41
11 11 2 61.13 3.52
-11 11 -2 60.06 3.46
-11 11 3 0.18 0.21
11 11 -3 0.12 0.22
-11 -11 -3 1.11 0.42
11 11 -3 0.1 0.35
11 -11 3 0.34 0.27
11 11 3 0.26 0.24
11 -11 -3 -0.08 0.21
-11 11 4 28.15 1.62
-11 -11 -4 24.85 1.63
11 11 -4 28.4 1.8
11 11 -4 25.96 1.57
11 -11 4 28.77 1.57
-11 -11 4 23.63 1.58
-11 11 -4 24.05 1.69
11 11 4 26.86 1.68
-11 11 5 0.92 0.25
11 -11 5 1.34 0.31
11 11 -5 0.68 0.3
11 -11 -5 1.2 0.32
-11 11 -5 0.3 0.36
-11 -11 5 0.92 0.32
11 11 5 0.46 0.25
-11 11 6 3.12 0.5
11 -11 6 2.74 0.46
11 11 -6 2.3 0.38
11 -11 -6 2.67 0.44
-11 -11 6 2.75 0.48
11 11 -7 0.21 0.29
11 -11 7 0.19 0.29
-11 11 7 0.29 0.26
-11 -11 7 0.81 0.29
11 -11 -7 0.26 0.27
11 11 -8 2.1 0.41
11 -11 8 1.05 0.3
11 -11 8 1.51 0.32
11 -11 -8 1.3 0.28
11 11 8 0.24 0.36
11 11 -9 0.81 0.31
11 -11 9 1.21 0.31
11 -11 9 1.26 0.31
-11 -11 9 1.57 0.31
11 11 9 0.95 0.45
11 -11 -9 1.59 0.29
11 11 -10 5.5 0.5
11 -11 10 4.8 0.49
11 -11 -10 3.76 0.5
11 11 10 5.31 0.65
11 -11 -10 4.32 0.46
-11 -11 10 5.32 0.49
-11 -11 -11 0.77 0.4
11 -11 11 0.15 0.25
-11 11 11 0.58 0.31
11 11 -11 -0.01 0.24
11 -11 -11 0.5 0.24
-11 -11 11 0.84 0.26
11 11 11 0.34 0.36
11 -11 -11 0.37 0.29
11 11 -12 8.66 0.62
-11 -11 -12 8.35 0.67
11 -11 12 8.7 0.61
-11 11 12 8.22 0.63
-11 -11 12 8.99 0.61
11 -11 -12 9.15 0.63
11 11 12 9.35 0.7
-11 -11 -13 0.03 0.31
11 -11 13 -0.12 0.19
-11 11 13 0.04 0.27
11 11 -13 0.09 0.2
11 11 13 0.14 0.28
11 -11 -13 0.05 0.24
-11 -11 13 0.32 0.22
11 -11 -14 3.71 0.33
12 -11 0 0.03 0.14
-12 11 0 -0.09 0.26
-12 -11 0 0.36 0.35
12 11 0 0.08 0.32
-12 -11 -1 1.09 0.37
12 11 -1 0.09 0.17
-12 11 1 -0.03 0.26
12 -11 1 0.05 0.15
12 11 -1 0.38 0.34
12 11 1 0.22 0.31
-12 11 -1 0.23 0.25
12 -11 -1 0.28 0.18
12 11 -2 2.11 0.45
12 11 -2 3.42 0.4
-12 11 2 3.06 0.47
12 11 2 3.12 0.61
-12 11 -2 2.15 0.34
12 -11 -2 3.2 0.34
-12 11 3 1.41 0.28
12 -11 3 2.07 0.32
12 11 -3 1.19 0.41
12 11 -3 1.36 0.3
12 11 3 1.39 0.33
-12 11 -3 1.37 0.29
-12 -11 3 0.62 0.31
12 -11 4 11.46 0.78
-12 11 4 11.17 0.84
-12 -11 -4 12.22 0.91
12 11 -4 12.94 0.8
-12 -11 4 9.69 0.81
12 11 4 10.89 0.91
12 -11 5 0.9 0.28
12 11 -5 0.58 0.29
-12 11 5 0.6 0.25
-12 -11 5 0.66 0.32
12 -11 -5 0.6 0.31
12 11 5 0.67 0.28
12 -11 6 8.01 0.61
12 11 -6 8.24 0.62
12 11 6 7.58 0.68
12 -11 -6 7.73 0.63
-12 11 -6 5.46 0.78
-12 -11 6 6.56 0.62
12 11 -7 0.49 0.28
12 -11 7 1.13 0.29
-12 -11 7 1.15 0.3
12 -11 -7 0.96 0.29
12 -11 8 9.79 0.74
12 11 -8 10.4 0.76
-12 -11 -8 11.48 0.87
12 -11 -8 10.62 0.74
-12 -11 8 9.7 0.73
-12 -11 -9 1.22 0.45
12 11 -9 0.04 0.26
12 -11 9 0.26 0.25
12 11 9 0.35 0.3
-12 -11 9 0.61 0.28
12 -11 -9 0.26 0.24
12 11 -10 3.87 0.44
-12 -11 -10 4.25 0.59
12 -11 10 3.99 0.43
-12 -11 10 4.07 0.44
12 11 10 4.2 0.58
12 11 -11 0.15 0.23
-12 -11 -11 0.09 0.37
12 -11 11 0.01 0.21
-12 11 11 0.32 0.28
12 -11 -11 0.15 0.25
12 11 11 0.25 0.33
12 -11 12 1.67 0.25
-12 -11 -12 2.1 0.38
12 11 -12 1.23 0.25
-12 11 12 1.69 0.31
12 11 12 1.72 0.36
-12 -11 12 2.16 0.31
12 -11 13 0.15 0.19
-12 -11 -13 -0.35 0.25
-12 11 13 0.29 0.27
12 11 -13 0.32 0.19
12 11 13 0.13 0.28
-12 -11 13 0.25 0.21
-13 -11 0 0.43 0.34
13 -11 0 -0.02 0.17
13 11 0 0.19 0.26
13 11 0 0.29 0.35
13 11 -1 0.08 0.35
-13 -11 -1 0.35 0.34
13 11 -1 0.06 0.25
13 11 1 -0.13 0.23
-13 11 -1 -0.03 0.21
13 11 1 0.29 0.32
13 -11 -1 0.11 0.17
13 11 -2 0.38 0.36
13 11 -2 0.69 0.27
-13 11 -2 0.05 0.23
13 11 2 0.27 0.31
13 11 -3 0.13 0.25
13 -11 3 0.1 0.24
-13 11 -3 -0.07 0.22
13 11 3 0.24 0.29
13 -11 4 -0.12 0.25
13 11 -4 0.28 0.26
13 11 4 0.19 0.27
-13 11 -4 -0.08 0.21
13 -11 -4 0.03 0.27
-13 -11 4 -0.03 0.3
-13 -11 -5 1.22 0.42
13 -11 5 0.18 0.25
13 11 -5 0.18 0.25
-13 -11 5 0.07 0.3
13 -11 -5 0.34 0.32
13 11 5 0.27 0.24
13 11 -6 -0.08 0.25
13 -11 6 0.11 0.24
-13 -11 -6 1.03 0.43
13 -11 -6 0.02 0.29
-13 -11 6 0.17 0.29
13 11 -7 -0.02 0.25
13 -11 7 0.15 0.24
-13 -11 -7 1.05 0.42
-13 -11 7 0.46 0.28
13 -11 -7 0.12 0.28
13 -11 8 0 0.23
13 11 -8 -0.22 0.25
-13 -11 -8 0.92 0.42
13 -11 -8 0.07 0.24
-13 -11 8 0.29 0.26
-13 -11 -9 1.05 0.43
13 11 -9 0.37 0.24
13 -11 9 0.12 0.22
-13 -11 9 0.59 0.26
13 -11 10 -0.07 0.2
-13 -11 -10 -0.22 0.38
-13 11 10 0.19 0.29
13 11 -10 -0.01 0.21
-13 -11 10 0.39 0.23
-13 11 11 -0.08 0.27
-13 -11 -11 0.19 0.34
13 11 -11 0.09 0.2
13 -11 11 -0.09 0.19
-13 -11 11 0.41 0.22
13 11 -12 0.23 0.19
-13 11 12 -0.14 0.27
13 -11 12 0.08 0.19
-13 -11 -12 -0.24 0.27
-14 -11 0 0.33 0.32
14 11 0 -0.11 0.34
14 11 0 -0.08 0.24
14 11 -1 -0.08 0.25
-14 -11 -1 0.73 0.33
14 11 -1 -0.06 0.48
14 11 1 0.15 0.24
-14 -11 1 0.58 0.35
14 11 1 0.27 0.33
14 11 -2 7 0.56
-14 -11 -2 7.09 0.66
14 11 2 6.27 0.78
14 11 -3 1.58 0.31
-14 -11 -4 14.73 1.02
14 11 -4 16.08 0.96
-14 -11 4 13.35 0.96
14 11 -5 0.97 0.28
14 -11 5 1.46 0.26
-14 -11 5 0.88 0.31
14 -11 -5 1.42 0.35
14 11 -6 11.23 0.76
14 -11 6 11.52 0.74
-14 -11 -6 11.45 0.86
-14 -11 6 10.03 0.78
14 -11 7 0.01 0.22
-14 -11 -7 0.78 0.39
14 11 -7 0.01 0.23
-14 -11 7 0.13 0.26
-14 -11 -8 9.02 0.73
14 11 -8 9.17 0.66
14 -11 8 9.59 0.65
-14 -11 8 9.42 0.66
-14 -11 -9 0.21 0.37
-14 11 9 -0.07 0.29
14 11 -9 0.22 0.21
14 -11 9 0.04 0.2
-14 -11 9 0.61 0.24
14 -11 10 2.22 0.31
-14 -11 -10 2.06 0.42
-14 11 10 1.93 0.32
14 11 -10 1.97 0.3
-14 -11 10 2.86 0.33
14 -11 11 0.35 0.19
14 11 -11 0.36 0.2
-14 -11 -11 0.15 0.31
-14 -11 11 0.72 0.22
-15 -11 0 31.15 2
15 11 0 36.76 1.99
-15 -11 -1 0.65 0.32
15 11 -1 0.22 0.24
-15 -11 1 0.7 0.33
15 11 -2 34.33 1.85
-15 -11 -2 28.5 1.86
-15 -11 2 31.64 1.88
-15 -11 -3 0.67 0.34
15 11 -3 0.01 0.23
15 11 -4 6.99 0.55
-15 -11 -4 7.05 0.66
15 11 -5 1.43 0.27
-15 -11 -5 2.61 0.51
-15 -11 5 1.4 0.31
15 11 -6 1.22 0.25
-15 -11 6 0.78 0.29
15 11 -7 0.37 0.22
-15 -11 -7 1.3 0.37
15 -11 7 0.7 0.22
-15 -11 7 0.65 0.27
15 -11 8 4.87 0.42
15 11 -8 5.6 0.42
-15 -11 -8 4.46 0.51
-15 -11 8 4.63 0.45
15 11 -9 0.8 0.22
-15 -11 -9 1.46 0.39
15 -11 9 1.27 0.23
-15 -11 9 1.27 0.26
15 11 -10 4.37 0.35
15 -11 10 3.78 0.36
-15 -11 -10 3.04 0.4
-15 -11 10 4.14 0.37
-16 -11 0 0.59 0.3
-16 -11 -1 1.09 0.32
16 11 -1 0.6 0.23
-16 -11 1 1.15 0.32
16 11 -2 3.98 0.4
-16 -11 -2 3.19 0.46
-16 -11 2 4.19 0.5
-16 -11 -3 1.66 0.35
16 11 -3 0.9 0.24
-16 -11 -4 9.57 0.75
16 11 -4 10.91 0.71
-16 -11 4 11.61 0.79
-16 -11 -5 0.63 0.32
16 11 -5 -0.04 0.2
16 11 -6 7.57 0.52
-16 -11 -6 6.46 0.59
-16 -11 -7 0.09 0.32
16 11 -7 -0.05 0.18
-16 -11 7 0.01 0.25
-16 -11 -8 4.54 0.5
16 11 -8 5.64 0.41
-16 -11 8 5.18 0.44
-17 -11 0 2.26 0.4
-17 -11 -1 0.46 0.28
-17 -11 1 0.39 0.28
17 11 -2 1.81 0.29
-17 -11 -2 2.06 0.39
-17 -11 2 2.53 0.44
-17 -11 -3 0.4 0.3
17 11 -3 0.04 0.19
-17 -11 3 0.78 0.31
-17 -11 -4 1.32 0.32
17 11 -4 1.13 0.23
17 11 -5 0.39 0.2
-17 -11 -5 0.69 0.31
-17 -11 -6 0.35 0.32
-18 -11 0 0.25 0.28
-18 -11 -1 0 0.28
-18 -11 1 0.52 0.28
-18 -11 -2 1.47 0.33
-18 -11 2 2.04 0.38
-18 -11 -3 0.43 0.3
-18 -11 3 0.8 0.3
0 12 0 4.03 0.51
0 12 0 4.46 0.52
0 -12 1 31.54 1.89
0 12 -1 32.45 1.95
0 12 -1 32.71 1.93
0 12 1 32.79 1.94
0 12 1 33.86 1.95
0 -12 2 10.74 0.66
0 12 -2 9.28 0.75
0 12 2 8.56 0.69
0 12 -2 8.44 0.69
0 12 2 9.96 0.75
0 12 3 100.09 5.74
0 12 -3 102.43 5.75
0 -12 3 101.57 5.71
0 12 4 0.67 0.26
0 12 -4 0.39 0.25
0 -12 4 0.17 0.18
0 12 5 92.48 5.45
0 -12 5 100.5 5.44
0 12 -5 95.21 5.46
0 12 6 1.51 0.3
0 -12 6 1.55 0.26
0 12 -6 1.6 0.3
0 12 7 74.74 4.37
0 -12 7 77.33 4.35
0 12 -7 76.21 4.37
0 12 8 2.25 0.4
0 12 -8 3.57 0.56
0 -12 8 3.08 0.48
0 -12 9 25.23 1.46
0 12 9 20.16 1.39
0 12 -9 21.87 1.47
0 12 9 23.81 1.5
0 12 -10 2.67 0.55
0 12 10 3.61 0.55
0 -12 10 2.29 0.38
0 -12 10 3.08 0.44
0 12 10 2.38 0.44
0 -12 11 1.58 0.35
0 12 11 0.76 0.39
0 -12 11 1.15 0.33
0 12 11 1.8 0.38
0 -12 -12 2.21 0.38
0 12 -12 1.7 0.35
0 -12 12 1.82 0.35
0 12 12 1.9 0.39
0 12 -13 1.8 0.34
0 -12 -13 2.27 0.42
0 -12 13 1.13 0.32
0 12 13 1.36 0.38
0 -12 14 0.32 0.29
0 -12 -14 0.11 0.3
0 12 -14 -0.01 0.29
0 12 14 0.23 0.34
0 12 -15 7.22 0.51
0 12 15 5.36 0.55
0 -12 15 6.37 0.51
0 -12 -16 0.15 0.24
0 12 -16 0.13 0.24
0 -12 16 0 0.22
0 -12 -17 4.16 0.35
0 -12 17 4.2 0.33
0 12 -17 3.02 0.31
1 12 0 0.47 0.25
-1 12 0 0.28 0.23
1 12 0 0.14 0.22
-1 12 0 0.19 0.23
1 -12 1 144.35 7.88
1 12 -1 139.57 7.91
1 12 -1 120.67 7.88
-1 12 1 147.86 7.9
-1 12 1 139.38 7.9
-1 12 -1 144.87 7.91
-1 12 -1 143.53 7.89
1 12 1 141.34 7.9
1 12 1 143.29 7.91
1 -12 2 1.64 0.24
1 12 2 2.68 0.41
-1 12 -2 2.28 0.4
1 -12 3 35.89 1.95
-1 12 3 33.77 1.98
1 12 -3 32.19 1.99
-1 12 -3 32.76 1.98
1 12 3 33.17 1.99
-1 -12 3 33.76 1.94
-1 12 -3 31.22 1.95
1 -12 4 2.26 0.35
-1 12 4 3.11 0.48
1 12 -4 3.48 0.5
-1 -12 4 2.21 0.37
-1 12 -4 2.44 0.37
-1 12 -4 3.24 0.51
1 12 4 2.84 0.52
1 -12 5 2.59 0.36
-1 12 5 2.59 0.48
1 12 -5 1.75 0.31
-1 12 5 2.27 0.33
1 12 5 2.17 0.34
-1 12 -5 1.74 0.32
-1 -12 5 2.72 0.4
-1 12 6 0.82 0.19
1 -12 6 0.75 0.22
-1 12 6 0.9 0.29
1 12 -6 0.92 0.27
-1 -12 6 0.6 0.23
1 12 6 1.07 0.31
-1 12 -6 0.96 0.28
1 12 -7 0.35 0.26
1 -12 7 0.31 0.21
-1 12 7 0.43 0.2
-1 12 7 0.29 0.28
-1 -12 7 0.16 0.23
1 12 7 -0.03 0.28
-1 12 -7 0.17 0.25
-1 12 8 4.98 0.65
1 -12 8 4.75 0.54
-1 12 8 4.38 0.48
1 12 -8 5.57 0.64
-1 12 -8 5.67 0.65
1 12 8 5.15 0.65
-1 -12 8 4.93 0.56
1 -12 9 11.31 0.87
-1 12 9 12.02 0.97
-1 12 9 9.79 0.83
1 12 -9 12.29 0.9
1 12 9 12.57 0.89
-1 12 -9 13.43 0.94
1 12 9 12.77 0.97
-1 -12 9 12.35 0.9
1 -12 10 2.36 0.39
-1 -12 -10 2.55 0.44
1 -12 10 1.71 0.33
-1 12 10 3.13 0.53
-1 12 10 1.68 0.42
1 12 10 1.73 0.39
1 -12 -10 2.02 0.41
-1 -12 10 1.17 0.34
-1 12 -10 1.25 0.33
-1 -12 10 1.86 0.35
-1 12 11 8.73 0.9
-1 -12 -11 9.84 0.74
1 -12 11 9.88 0.83
-1 12 11 9.58 0.77
1 -12 11 9.52 0.71
1 12 11 9.42 0.93
-1 -12 11 9.72 0.72
1 -12 -11 9.71 0.71
-1 -12 11 9.95 0.84
1 12 11 9.91 0.79
-1 12 12 1.07 0.38
-1 -12 -12 0.7 0.35
1 -12 12 0.43 0.3
1 12 -12 0.71 0.32
1 -12 12 0.25 0.3
1 12 12 0.74 0.35
-1 -12 12 0.6 0.32
1 -12 -12 0.81 0.33
-1 -12 12 0.41 0.31
-1 12 13 10.89 0.81
-1 -12 -13 10.97 0.76
1 12 -13 10.96 0.75
1 -12 13 9.23 0.82
1 -12 13 10.25 0.74
1 12 13 10.97 0.81
-1 12 -13 10.23 0.74
1 -12 -13 11.11 0.76
-1 -12 13 10.68 0.74
-1 -12 -14 -0.07 0.3
1 12 -14 0.2 0.29
1 -12 14 0.3 0.27
-1 12 14 -0.07 0.32
-1 -12 14 0.16 0.28
1 12 14 0.26 0.33
-1 12 -14 -0.1 0.29
1 -12 -14 0.13 0.29
1 12 -15 3.01 0.38
1 -12 15 3.21 0.36
-1 -12 -15 2.92 0.37
-1 -12 15 3.24 0.38
-1 12 -15 3.01 0.38
1 12 15 2.87 0.46
1 -12 -15 3.13 0.38
-1 -12 -16 0.45 0.24
1 -12 16 0.32 0.22
1 12 -16 0.35 0.23
-1 12 -16 0.35 0.24
1 12 16 0.1 0.25
1 -12 -16 0.33 0.24
-1 -12 16 0.1 0.24
1 12 -17 1.37 0.23
-1 -12 -17 1.79 0.27
1 -12 17 1.59 0.26
1 -12 -17 1.45 0.28
-1 -12 17 1.45 0.27
2 12 0 4.9 0.59
-2 12 0 6.18 0.53
2 12 0 5.51 0.56
-2 12 0 5.7 0.59
2 12 -1 0.23 0.23
-2 12 1 0.27 0.23
2 -12 1 0.2 0.15
-2 12 1 0.07 0.21
2 12 1 0.59 0.28
-2 12 -1 0.08 0.23
2 12 1 0.19 0.21
-2 12 -1 0.12 0.21
2 12 -2 0.15 0.22
2 -12 2 0.09 0.15
-2 12 2 0.25 0.21
2 12 2 0.16 0.2
2 12 2 0.36 0.27
-2 12 -2 0.08 0.24
-2 12 -2 0.02 0.2
2 -12 3 0.96 0.19
-2 12 3 1.23 0.25
2 12 -3 0.79 0.24
-2 12 -3 0.94 0.27
2 12 3 1.11 0.29
2 12 3 0.57 0.2
-2 12 -3 1.01 0.22
2 -12 4 0.53 0.17
2 12 -4 0.69 0.26
-2 12 4 0.82 0.24
-2 12 -4 0.68 0.21
-2 12 -4 0.66 0.26
2 12 4 0.65 0.29
2 -12 5 0.4 0.18
2 12 -5 0.32 0.24
-2 12 5 0.2 0.17
-2 12 5 0.33 0.24
-2 -12 5 0.08 0.2
2 12 5 0.28 0.28
-2 12 -5 0.43 0.21
-2 12 -5 0.28 0.24
-2 12 6 0.14 0.18
-2 12 6 0.08 0.24
2 -12 6 -0.03 0.18
2 12 -6 -0.18 0.24
-2 -12 6 -0.29 0.2
-2 12 -6 0.01 0.25
2 12 6 -0.02 0.29
-2 12 -6 0.28 0.14
2 12 -7 0.35 0.27
-2 12 7 0.34 0.21
-2 12 7 0.59 0.29
2 -12 7 0.33 0.2
2 12 7 0.49 0.31
-2 12 -7 0.64 0.25
-2 -12 7 0.3 0.24
-2 12 8 -0.02 0.29
-2 12 8 0.04 0.22
2 -12 8 0.19 0.21
2 12 -8 -0.01 0.26
-2 -12 8 -0.17 0.24
-2 12 -8 0.24 0.28
2 12 8 -0.12 0.3
2 -12 9 0.23 0.29
2 -12 9 0.2 0.23
-2 12 9 -0.28 0.32
-2 -12 -9 -0.04 0.37
2 12 -9 -0.01 0.25
-2 12 9 0.17 0.25
-2 -12 9 0.11 0.27
-2 12 -9 -0.01 0.29
2 12 9 0.1 0.3
2 12 9 0.32 0.35
2 -12 10 0.38 0.3
2 -12 10 0.19 0.26
-2 12 10 0.48 0.37
-2 12 10 -0.38 0.35
-2 -12 10 0.23 0.29
-2 12 -10 -0.19 0.3
2 -12 -10 0.59 0.34
2 12 10 0.92 0.37
2 12 10 -0.06 0.32
2 -12 11 0.08 0.28
-2 12 11 -0.57 0.34
-2 -12 -11 0.32 0.37
2 -12 11 0.18 0.3
2 12 -11 -0.42 0.22
-2 12 11 0.69 0.36
2 12 11 0.19 0.35
-2 -12 11 0.04 0.32
2 12 11 -0.28 0.35
-2 -12 11 0.05 0.3
2 -12 -11 -0.08 0.32
-2 -12 -12 1.32 0.37
2 12 -12 0.7 0.31
2 -12 12 0.7 0.29
-2 12 12 0.75 0.37
2 -12 12 0.58 0.31
2 -12 -12 0.88 0.33
-2 -12 12 0.82 0.33
2 12 12 0.57 0.34
2 12 12 -0.02 0.37
2 -12 13 0.28 0.29
2 12 -13 0.16 0.3
-2 12 13 0.03 0.34
2 -12 13 0 0.28
-2 -12 -13 -0.11 0.33
2 -12 -13 0.05 0.3
2 12 13 -0.01 0.33
-2 -12 13 0.09 0.3
2 12 -14 0.49 0.28
-2 -12 -14 0.59 0.31
2 -12 14 0.26 0.27
-2 12 14 0.02 0.28
-2 12 -14 0.38 0.3
-2 -12 14 0.35 0.29
2 12 14 0.35 0.32
2 -12 -14 0.81 0.29
2 12 -15 0 0.25
-2 -12 -15 -0.33 0.27
2 -12 15 -0.03 0.23
-2 12 -15 -0.09 0.27
-2 -12 15 0.01 0.26
2 12 15 -0.18 0.3
2 -12 -15 0.06 0.24
2 12 -16 0.29 0.23
-2 -12 -16 -0.09 0.24
2 -12 16 0.34 0.22
-2 -12 16 0.32 0.24
2 -12 -16 0.14 0.23
2 12 16 -0.13 0.26
-2 12 -16 0.25 0.24
2 -12 17 0.09 0.21
2 12 -17 0.07 0.2
-2 -12 -17 -0.13 0.23
-2 -12 17 -0.2 0.2
2 -12 -17 -0.29 0.23
-3 12 0 -0.15 0.21
-3 12 0 -0.12 0.18
3 12 0 0.19 0.2
3 -12 1 30.05 1.72
3 12 -1 30.89 1.79
-3 12 1 26.02 1.75
-3 12 1 30.74 1.75
-3 12 -1 30.28 1.78
-3 12 -1 31.08 1.74
3 12 1 29.64 1.77
3 12 1 26.46 1.8
-3 12 2 1.25 0.22
3 12 -2 1.2 0.27
3 -12 2 0.89 0.18
-3 12 -2 1.43 0.29
3 12 2 1.56 0.33
3 12 2 1 0.23
-3 12 -2 1.3 0.23
3 12 -3 17.38 1.17
-3 12 3 17.41 1.12
3 -12 3 18.52 1.09
3 12 3 17.2 1.19
3 12 3 17.1 1.11
-3 12 -3 17.35 1.16
-3 12 -3 18.01 1.11
-3 12 4 1.59 0.26
3 12 -4 1.31 0.27
3 -12 4 1.37 0.21
3 12 4 1.1 0.23
-3 12 -4 2.05 0.4
3 12 4 1.27 0.32
-3 12 -4 1.57 0.29
-3 12 5 3.02 0.37
3 -12 5 3.44 0.38
-3 12 5 2.95 0.47
3 12 -5 2.9 0.53
-3 12 -5 3.45 0.44
-3 12 -5 2.69 0.52
3 12 5 2.55 0.4
-3 12 6 0.44 0.25
3 12 -6 0.36 0.25
3 -12 6 0.3 0.18
-3 12 6 0.47 0.19
3 12 6 0.26 0.29
-3 12 -6 0.33 0.26
3 -12 7 2.32 0.38
-3 12 7 2.34 0.39
-3 12 7 2.13 0.36
3 12 -7 1.52 0.33
-3 12 -7 1.83 0.33
3 12 7 1.83 0.38
-3 12 8 0.5 0.23
3 12 -8 0.52 0.28
3 -12 8 -0.25 0.24
3 -12 8 0.33 0.21
-3 12 8 0.01 0.3
-3 -12 8 -0.11 0.25
-3 12 -8 0.59 0.29
3 12 8 -0.02 0.31
3 12 8 0.17 0.3
-3 12 9 0.78 0.36
3 -12 9 0.77 0.25
-3 12 9 1.1 0.28
3 12 -9 0.28 0.27
3 -12 9 1.21 0.32
-3 -12 9 0.54 0.29
3 12 9 0.7 0.34
-3 12 -9 0.89 0.33
3 12 9 1.43 0.38
3 -12 10 0.43 0.27
3 -12 10 0.53 0.3
-3 12 10 -0.49 0.34
-3 12 10 0.46 0.28
-3 12 10 -0.5 0.33
3 -12 -10 0.11 0.33
3 12 10 0.93 0.38
-3 -12 10 -0.51 0.28
-3 12 -10 0.03 0.31
3 12 10 0.19 0.33
3 -12 11 3.61 0.58
-3 -12 -11 4.22 0.54
3 -12 11 3 0.44
3 12 -11 3.32 0.42
-3 12 11 3.05 0.53
3 12 11 3.31 0.57
3 12 11 2.62 0.47
3 -12 -11 3.32 0.47
-3 12 12 1.43 0.42
3 -12 12 0.36 0.3
3 12 -12 0.72 0.31
3 -12 12 0.67 0.31
-3 -12 -12 0.9 0.36
-3 12 12 0.17 0.35
3 12 12 0.34 0.33
3 12 12 0 0.37
3 -12 -12 0.84 0.32
-3 -12 12 0.38 0.32
-3 -12 -13 5.33 0.54
-3 12 13 5.82 0.58
3 12 -13 4.87 0.49
3 -12 13 5.41 0.5
-3 -12 13 4.16 0.49
3 12 13 4.83 0.58
3 -12 -13 5.56 0.49
3 -12 14 0.37 0.26
3 12 -14 0.44 0.27
-3 12 14 -0.14 0.4
-3 -12 -14 0.06 0.3
3 -12 -14 0.32 0.27
-3 -12 14 0.33 0.29
3 12 14 0.55 0.32
-3 12 -14 0.03 0.29
3 -12 15 1.6 0.3
3 12 -15 1.79 0.33
-3 -12 -15 1.99 0.31
-3 12 -15 1.47 0.3
3 -12 -15 1.54 0.31
3 12 15 1.64 0.33
-3 -12 15 1.99 0.33
-3 -12 -16 -0.35 0.23
3 -12 16 0.28 0.21
3 12 -16 0.03 0.22
3 12 16 -0.05 0.26
-3 12 -16 -0.15 0.22
-3 -12 16 -0.05 0.23
3 -12 -16 -0.2 0.23
3 12 -17 0.58 0.21
3 -12 17 0.78 0.23
-3 -12 -17 0.47 0.23
3 -12 -17 0.54 0.25
-4 12 0 17.7 1.11
4 12 0 17.86 1.14
-4 12 0 17.63 1.15
-4 12 1 7.34 0.58
4 12 -1 7.35 0.62
4 12 1 7.02 0.62
-4 12 -1 7.19 0.57
-4 12 -1 7.31 0.67
-4 12 2 14.44 0.94
4 -12 2 13.18 0.9
4 12 -2 15.25 1.01
4 12 2 14.6 0.96
4 12 2 13 1.03
-4 12 -2 14 0.91
-4 12 -2 15.31 1
4 -12 3 14.91 0.96
4 12 -3 15.68 1.07
-4 12 3 15.09 1
-4 12 -3 15.56 0.98
4 12 3 15.31 1.01
4 12 3 14.25 1.09
-4 12 -3 16.08 1.06
4 -12 4 11.02 0.75
4 12 -4 11.43 0.88
-4 12 4 11.68 0.81
-4 12 -4 11.42 0.87
-4 12 -4 12 0.78
4 12 4 10.77 0.81
4 12 4 10.83 0.91
4 12 -5 30.59 1.85
-4 12 5 29.75 1.75
-4 12 5 30.04 1.8
4 -12 5 29.74 1.76
4 12 5 28.6 1.86
-4 12 -5 29.87 1.82
4 12 -6 -0.15 0.26
-4 12 6 0.14 0.17
4 -12 6 -0.02 0.16
-4 12 6 -0.01 0.25
4 12 6 -0.49 0.3
-4 12 -6 -0.06 0.26
4 -12 7 40.66 2.39
-4 12 7 41.95 2.37
-4 12 7 41.66 2.43
4 12 -7 38.44 2.44
-4 12 -7 40.72 2.42
4 12 7 40.77 2.46
-4 12 8 -0.03 0.3
4 12 -8 -0.1 0.25
-4 12 8 0.24 0.22
4 -12 8 -0.14 0.2
4 -12 8 -0.42 0.25
4 -12 -8 -0.05 0.24
4 12 8 -0.25 0.33
4 12 8 -0.23 0.3
-4 12 -8 0.16 0.29
4 -12 9 26.39 1.51
4 -12 9 26.21 1.57
-4 -12 -9 21.91 1.55
-4 12 9 26.47 1.56
-4 12 9 24.88 1.62
4 12 9 25.64 1.65
-4 12 -9 24.78 1.59
4 12 9 24.07 1.54
4 -12 10 0.4 0.27
4 -12 10 0.82 0.31
-4 12 10 0.58 0.29
4 -12 -10 0.97 0.35
-4 12 -10 0.35 0.33
4 -12 -10 0.83 0.31
4 12 10 0.91 0.38
4 12 10 0.21 0.37
4 12 -11 5 0.55
-4 -12 -11 7.08 0.64
4 -12 11 6.87 0.7
4 -12 11 6.14 0.54
4 -12 -11 7.17 0.59
4 12 11 6.24 0.67
4 12 11 5.21 0.79
4 -12 -11 7.05 0.58
-4 12 12 4.47 0.54
-4 -12 -12 3.86 0.51
4 12 -12 3.83 0.46
4 -12 12 3.22 0.45
4 12 12 3.33 0.57
4 -12 -12 3.47 0.45
4 12 -13 0.98 0.3
4 -12 13 1.57 0.3
-4 -12 13 0.87 0.32
4 12 13 1.23 0.36
-4 12 14 2.66 0.44
4 12 -14 2.06 0.34
4 -12 14 2.09 0.36
-4 -12 -14 2.2 0.36
4 -12 -14 2.12 0.36
-4 12 -14 1.89 0.34
4 12 14 2.58 0.38
-4 -12 14 1.87 0.35
-4 12 15 1.87 0.38
4 12 -15 1.63 0.28
-4 -12 -15 1.2 0.3
4 -12 15 1.59 0.27
-4 12 -15 1.42 0.29
-4 -12 15 1.36 0.29
4 -12 -15 1.38 0.28
4 12 15 1.34 0.32
4 12 -16 0.39 0.23
4 -12 16 0.38 0.21
-4 -12 -16 -0.03 0.24
4 -12 -16 0.18 0.22
4 12 16 0.26 0.26
-5 12 0 0.02 0.17
-5 12 0 -0.32 0.21
5 12 0 0.02 0.18
-5 12 1 48.35 2.83
5 12 -1 50.53 2.89
5 12 1 49.89 2.87
-5 12 -1 47.72 2.82
-5 12 -1 49.64 2.86
5 12 -2 0.42 0.23
-5 12 2 0.73 0.21
5 -12 2 0.55 0.16
5 12 2 0.62 0.22
-5 12 -2 0.47 0.17
-5 12 -2 0.28 0.25
5 -12 3 28.77 1.63
-5 12 3 27.8 1.65
5 12 -3 26.97 1.72
-5 12 -3 28.47 1.64
5 12 3 27.5 1.67
5 12 3 24.29 1.73
-5 12 -3 27.84 1.69
-5 12 4 7.4 0.61
5 -12 4 6.77 0.53
5 12 -4 7.38 0.7
5 12 4 6.99 0.6
5 12 4 6.16 0.79
-5 12 -4 7.13 0.68
5 12 -5 6.98 0.74
5 -12 5 8.07 0.58
-5 12 5 7.8 0.67
-5 12 5 7.95 0.56
-5 12 -5 6.56 0.69
5 12 5 7.13 0.61
5 12 5 6.66 0.78
-5 12 6 5.75 0.48
-5 12 6 5.34 0.59
5 12 -6 5.22 0.67
5 -12 6 5.01 0.48
-5 12 -6 5.1 0.63
5 12 6 5.7 0.73
-5 12 7 0.19 0.28
5 12 -7 0.05 0.28
5 -12 7 -0.36 0.24
-5 12 7 0.53 0.2
5 -12 7 0.34 0.19
-5 12 -7 0.46 0.28
5 -12 -7 0.18 0.22
5 12 7 0.29 0.34
5 -12 8 0.89 0.3
5 -12 8 0.77 0.24
-5 12 8 0.43 0.33
-5 12 8 0.96 0.25
5 12 -8 0.37 0.29
5 12 8 1.02 0.38
-5 12 -8 0.82 0.31
5 -12 -8 0.8 0.28
5 12 8 0.84 0.37
5 -12 9 3 0.45
5 -12 9 3.13 0.5
-5 12 9 3.76 0.51
5 -12 -9 3.34 0.47
5 12 9 3.88 0.49
-5 12 -9 3.87 0.63
-5 12 10 4.81 0.6
5 12 -10 4.36 0.5
5 -12 10 4.64 0.48
5 -12 10 4.8 0.61
-5 -12 -10 6.15 0.64
5 -12 -10 4.5 0.54
-5 12 -10 3.69 0.69
5 12 10 4.29 0.77
5 -12 -10 4.9 0.54
5 12 10 5.62 0.65
5 12 -11 11.28 0.73
-5 -12 -11 10.16 0.8
-5 12 11 8.47 0.81
5 -12 11 10.46 0.72
5 -12 11 9.05 0.83
5 12 11 8.81 0.96
5 12 11 10.44 0.79
5 -12 -11 9.91 0.74
5 -12 -11 10.29 0.75
5 -12 12 0.49 0.28
-5 -12 -12 1.07 0.38
-5 12 12 1.64 0.41
5 -12 12 0.82 0.3
5 12 -12 0.26 0.3
5 12 12 -0.21 0.38
5 12 12 0.8 0.36
5 -12 -12 0.49 0.32
5 -12 -12 0.67 0.31
-5 12 13 11.67 0.81
-5 -12 -13 10.75 0.79
5 -12 13 11.79 0.76
5 12 -13 10.97 0.75
5 12 13 10.54 0.8
5 -12 -13 11.38 0.76
5 -12 -13 10.78 0.77
-5 12 14 0.49 0.37
5 12 -14 0.25 0.26
5 -12 14 0.26 0.25
-5 -12 -14 -0.02 0.3
5 -12 -14 0.02 0.26
5 12 14 0.25 0.3
5 -12 15 5.48 0.42
-5 -12 -15 4.95 0.43
-5 12 15 4.37 0.49
5 12 -15 4.79 0.42
5 -12 -15 5.77 0.43
5 12 15 4.27 0.47
5 12 -16 0.13 0.21
-5 -12 -16 -0.16 0.23
5 -12 16 0.08 0.21
5 -12 -16 -0.13 0.24
5 12 16 -0.12 0.25
-6 12 0 2.75 0.38
6 12 0 2.7 0.43
-6 12 1 0.21 0.18
6 12 -1 0.14 0.24
-6 12 -1 0.29 0.17
6 12 1 -0.02 0.2
-6 12 -1 -0.14 0.23
-6 12 2 0.93 0.22
6 12 -2 0.93 0.28
-6 12 -2 0.68 0.18
-6 12 -2 0.41 0.26
6 12 2 0.45 0.21
-6 12 3 5.45 0.52
6 -12 3 4.79 0.44
6 12 -3 5.03 0.63
-6 12 -3 4.71 0.59
6 12 3 4.23 0.53
-6 12 -3 5.64 0.49
6 -12 4 0.48 0.17
-6 12 4 0.54 0.24
6 12 -4 0.31 0.29
6 12 4 -0.12 0.36
-6 12 -4 0.35 0.27
6 12 4 0.37 0.22
-6 12 5 4.52 0.41
-6 12 5 4.56 0.54
6 12 -5 4.16 0.68
6 -12 5 4.89 0.46
-6 12 -5 5.01 0.61
6 12 5 3.97 0.53
6 12 -6 1.09 0.34
6 -12 6 2.04 0.35
-6 12 6 1.73 0.32
-6 12 6 2.04 0.37
6 12 6 1.66 0.42
6 12 6 1.08 0.25
-6 12 -6 1.88 0.34
6 -12 -6 1.35 0.27
6 12 -7 6.97 0.73
6 -12 7 7.03 0.57
-6 12 7 7.72 0.73
6 -12 7 7.58 0.61
-6 12 7 7.73 0.59
-6 -12 -7 6.51 0.75
-6 -12 7 5.81 0.63
6 12 7 7.64 0.86
6 -12 -7 7.05 0.6
-6 12 -7 8.89 0.75
6 -12 8 -0.12 0.28
-6 12 8 -0.27 0.31
-6 12 8 0.28 0.23
6 -12 8 0.16 0.22
-6 -12 8 0.4 0.33
-6 12 -8 0.26 0.3
6 12 8 0.13 0.41
6 -12 -8 0.02 0.28
6 12 8 -0.18 0.35
6 -12 9 0.89 0.33
6 -12 9 0.87 0.28
-6 12 9 0.69 0.27
6 12 9 0.83 0.41
-6 12 -9 0.98 0.35
6 -12 -9 1.12 0.32
6 12 9 0.11 0.38
-6 -12 9 1.49 0.36
-6 -12 -10 1.51 0.47
6 -12 10 0.29 0.27
6 12 -10 -0.01 0.32
6 -12 10 0.2 0.3
-6 12 10 0.46 0.28
6 -12 -10 0.41 0.34
6 12 10 -0.13 0.37
6 -12 -10 0.44 0.29
-6 12 -10 -0.06 0.33
6 12 10 0.6 0.37
6 -12 11 0.89 0.29
-6 12 11 0.44 0.3
6 -12 11 1.35 0.32
6 12 -11 1.08 0.34
6 -12 -11 1.49 0.34
6 12 11 1.15 0.39
6 -12 -11 1.12 0.34
6 12 11 0.34 0.41
6 -12 12 1.17 0.31
6 12 -12 1.25 0.33
-6 -12 12 1.26 0.33
6 -12 -12 1.2 0.32
6 12 12 0.77 0.35
6 -12 -12 1 0.32
6 12 -13 0.02 0.27
-6 -12 -13 0.16 0.32
-6 12 13 0.72 0.36
6 -12 13 0.03 0.26
6 -12 -13 0.28 0.29
6 12 13 0.27 0.31
6 -12 -13 0.11 0.27
-6 -12 -14 0.75 0.31
-6 12 14 1.04 0.36
6 12 -14 0.58 0.26
6 -12 14 0.57 0.25
6 -12 -14 0.56 0.25
6 12 14 0.38 0.3
6 12 -15 0.6 0.23
-6 -12 -15 0.08 0.26
-6 12 15 0.5 0.33
6 -12 15 0.46 0.22
6 12 15 -0.02 0.26
6 -12 -15 0.17 0.24
-6 -12 -16 -0.07 0.23
-6 12 16 -0.26 0.29
6 -12 16 0.16 0.22
6 12 -16 0.37 0.21
6 12 16 -0.04 0.24
6 -12 -16 0.04 0.25
7 12 0 0.02 0.19
-7 12 0 0.09 0.18
-7 12 1 6.57 0.55
7 12 -1 6.05 0.65
-7 12 -1 6.5 0.53
7 12 1 6.22 0.6
7 12 -2 0.94 0.3
-7 12 2 0.9 0.24
7 12 2 0.8 0.24
-7 12 -2 0.96 0.21
-7 12 3 5.39 0.53
7 12 -3 4.77 0.66
7 12 3 4.51 0.53
-7 12 -3 5.21 0.48
-7 12 -3 4.15 0.59
-7 12 4 0.73 0.26
7 -12 4 0.84 0.2
7 12 -4 0.45 0.31
7 12 4 0.66 0.24
-7 12 -4 0.5 0.3
7 -12 5 0.92 0.22
-7 12 5 0.78 0.27
-7 12 5 0.91 0.19
7 12 -5 0.91 0.36
7 12 5 0.28 0.39
-7 12 -5 1.18 0.32
7 12 5 0.79 0.24
7 -12 -5 0.86 0.2
7 -12 6 -0.11 0.24
-7 12 6 0.19 0.27
7 -12 6 0.03 0.19
-7 12 6 0.24 0.18
7 -12 6 0.17 0.24
-7 -12 -6 -0.17 0.48
7 12 -6 -0.32 0.31
7 12 6 -0.21 0.36
-7 -12 6 0.37 0.3
7 12 6 0.18 0.23
-7 12 -6 0.17 0.29
7 -12 -6 0.25 0.27
7 12 -7 1.4 0.36
-7 12 7 2.06 0.36
7 -12 7 2.01 0.39
-7 12 7 3 0.43
7 -12 7 2 0.35
7 -12 7 2.14 0.44
7 -12 -7 2.46 0.43
7 12 7 1.12 0.43
7 -12 8 0.38 0.35
-7 12 8 0.62 0.25
7 12 -8 -0.06 0.34
7 -12 8 0.57 0.25
7 -12 8 0.36 0.29
7 12 8 0.88 0.42
-7 12 -8 0.6 0.33
7 12 8 -0.23 0.39
7 -12 -8 0.56 0.3
7 -12 9 4.24 0.57
-7 12 9 4.42 0.57
7 -12 9 3.61 0.48
7 -12 9 3.98 0.56
7 12 -9 4.63 0.52
7 12 9 5.25 0.66
7 -12 -9 4.48 0.49
-7 12 -9 5.42 0.73
7 -12 10 0.46 0.28
7 -12 10 0.69 0.33
7 -12 10 0.77 0.31
-7 12 10 0.51 0.28
7 12 -10 0.78 0.33
7 12 10 0.05 0.4
-7 12 -10 0.2 0.34
7 -12 -10 0.81 0.35
7 12 10 1.11 0.39
7 -12 -10 0.83 0.28
7 12 -11 5.54 0.53
7 -12 11 4.75 0.5
-7 -12 -11 6.13 0.63
7 -12 11 3.98 0.52
7 -12 -11 5.44 0.54
7 12 11 5.64 0.64
7 -12 -11 4.92 0.52
7 12 -12 -0.05 0.28
7 -12 12 0.1 0.26
-7 -12 -12 0.84 0.37
-7 12 12 0.99 0.36
7 -12 12 -0.11 0.17
7 -12 -12 0.4 0.29
7 12 12 0.35 0.34
7 -12 -12 0.36 0.3
7 12 -13 3.26 0.4
-7 -12 -13 3.46 0.43
7 -12 13 3.11 0.39
-7 12 13 4.29 0.45
7 -12 -13 3.48 0.41
7 -12 -13 3.63 0.41
7 12 13 3.13 0.52
-7 12 14 0.77 0.33
-7 -12 -14 0.41 0.3
7 -12 14 0.44 0.24
7 12 -14 0.62 0.25
7 -12 -14 0.59 0.25
7 12 14 0.49 0.27
-7 12 15 0.83 0.33
7 12 -15 0.58 0.22
7 -12 15 0.59 0.24
-7 -12 -15 0.62 0.27
7 12 15 0.43 0.27
7 -12 -15 0.59 0.24
-8 12 0 10.13 0.74
8 12 0 10.36 0.82
-8 12 1 11.06 0.78
8 12 -1 10.9 0.88
-8 12 -1 10.13 0.75
8 12 1 10.72 0.83
-8 12 2 8.48 0.67
8 12 -2 8.74 0.8
-8 12 -2 6.91 0.72
-8 12 -2 7.83 0.63
8 12 2 8.94 0.72
8 12 -3 30.75 1.93
-8 12 3 29.83 1.81
-8 12 -3 29.95 1.84
8 12 3 29.33 1.83
-8 12 -3 29.63 1.78
8 -12 4 0.29 0.3
8 12 -4 0.02 0.33
-8 12 4 0.26 0.26
8 -12 4 -0.07 0.15
8 12 4 0.37 0.23
-8 12 -4 -0.12 0.27
8 -12 -4 0.33 0.21
8 -12 5 52.51 2.82
8 -12 5 45.28 2.79
8 12 -5 52.04 2.99
-8 12 5 50.43 2.84
-8 12 5 50.05 2.87
8 12 5 49.96 2.89
8 -12 -5 44.98 2.83
-8 12 -5 51.14 2.9
-8 -12 5 42.51 2.82
8 -12 -5 52.07 2.8
8 -12 6 6.17 0.54
-8 12 6 7.4 0.6
8 -12 6 6.69 0.62
8 12 -6 6.95 0.79
8 -12 6 7.79 0.64
-8 12 6 6.12 0.66
8 12 6 6.55 0.65
-8 -12 6 7.53 0.65
-8 12 -6 7.26 0.75
8 -12 -6 7.28 0.6
8 -12 7 37.72 2.13
8 -12 7 36.66 2.06
8 -12 7 37.38 2.09
-8 12 7 36.64 2.1
-8 -12 -7 32.66 2.11
8 12 7 33.46 2.28
-8 12 -7 35.89 2.17
8 -12 -7 35.36 2.09
-8 -12 7 32.83 2.08
8 -12 8 -0.13 0.33
-8 12 8 0.15 0.24
8 -12 8 0.07 0.24
8 12 -8 -0.17 0.31
8 -12 8 -0.38 0.26
-8 12 -8 0.11 0.33
8 12 8 -0.6 0.41
8 -12 -8 0.02 0.26
8 12 8 0.26 0.43
8 -12 9 17.73 1.06
8 12 -9 16.4 1.07
-8 -12 -9 15.37 1.13
8 -12 9 16.79 1.08
-8 12 9 17.22 1.11
8 -12 9 17.05 1.15
-8 12 -9 16.98 1.2
8 -12 -9 14.47 1.05
8 12 9 15.48 1.32
-8 -12 9 17.16 1.09
8 12 9 16.95 1.14
8 -12 10 0.15 0.28
8 12 -10 0.29 0.3
-8 12 10 -0.01 0.26
8 -12 10 0.11 0.25
8 -12 10 -0.21 0.31
-8 12 -10 -0.17 0.33
8 -12 -10 0.13 0.26
8 12 10 0.18 0.39
-8 -12 10 0.86 0.33
8 -12 -10 0.23 0.35
8 -12 11 1.46 0.33
8 12 -11 1.27 0.33
8 -12 11 1.43 0.32
8 -12 -11 2.11 0.4
8 -12 -11 2.22 0.43
8 12 11 1.48 0.4
8 -12 12 0.49 0.27
8 12 -12 0.88 0.28
-8 -12 -12 1.36 0.38
8 -12 12 0.61 0.27
-8 12 12 1.54 0.34
8 12 12 1.01 0.35
8 -12 -12 0.84 0.28
8 -12 -12 1.06 0.31
-8 12 13 1.64 0.35
8 12 -13 1.52 0.29
-8 -12 -13 1.74 0.35
8 12 13 0.87 0.32
8 -12 -13 1.92 0.36
-8 -12 13 2.1 0.35
8 -12 -13 1.3 0.29
8 12 -14 0.91 0.23
8 -12 14 0.66 0.24
-8 12 14 0.86 0.32
-8 -12 -14 0.5 0.29
8 12 14 0.32 0.28
8 -12 -14 0.55 0.25
8 -12 15 1.38 0.24
-8 -12 -15 1.38 0.27
-8 12 15 2.21 0.35
8 12 -15 2.18 0.27
8 -12 -15 1.78 0.29
8 12 15 1.58 0.3
9 12 0 -0.01 0.24
-9 12 0 0.06 0.22
9 -12 0 0.02 0.15
-9 12 1 60.62 3.47
9 12 -1 60.79 3.55
-9 12 -1 59.05 3.45
9 12 1 59.57 3.52
9 -12 2 1.15 0.27
9 -12 2 0.16 0.15
9 12 -2 0.5 0.29
-9 12 2 0.54 0.26
9 -12 -2 0.39 0.2
9 12 2 0.48 0.23
-9 12 -2 0.08 0.28
-9 12 -2 0.66 0.22
9 -12 3 38.82 2.11
9 12 -3 36.37 2.29
-9 12 3 36.44 2.17
9 12 3 34.3 2.18
-9 12 -3 34.22 2.18
9 -12 -3 36.46 2.08
-9 12 -3 36.28 2.14
-9 12 4 8.77 0.65
9 12 -4 8.45 0.94
9 -12 4 9.19 0.68
-9 -12 -4 9.53 0.76
-9 12 4 7.99 0.73
9 -12 4 7.1 0.58
9 -12 -4 8.82 0.59
-9 -12 4 8.45 0.68
-9 12 -4 8.01 0.83
9 12 4 8.77 0.76
9 -12 5 13.28 0.84
-9 12 5 12.53 0.97
9 -12 5 14.11 0.91
9 12 -5 12.74 1.14
-9 -12 -5 14.56 0.98
-9 12 5 13.4 0.91
-9 -12 5 12.83 0.92
9 -12 -5 12.56 0.9
9 12 5 13.82 0.97
-9 12 -5 11.86 1.05
9 -12 6 9.27 0.68
9 -12 6 8.12 0.62
9 -12 6 7.67 0.71
-9 12 6 8.97 0.7
9 -12 -6 8.66 0.69
-9 -12 6 9.54 0.72
-9 12 -6 8.41 0.84
9 12 6 9.14 0.77
9 -12 7 0.66 0.31
-9 12 7 0.65 0.25
9 12 -7 1.22 0.34
9 -12 7 0.63 0.27
-9 12 -7 0.38 0.34
9 -12 -7 0.57 0.29
-9 -12 7 1.31 0.33
9 -12 8 0.9 0.29
9 12 -8 1.5 0.35
9 -12 8 1.17 0.32
9 -12 8 1.05 0.29
-9 12 8 0.96 0.27
-9 12 -8 0.25 0.36
9 12 8 1.51 0.47
9 -12 -8 1.11 0.3
9 12 -9 2.83 0.45
9 -12 9 2.08 0.39
9 -12 9 2.11 0.36
9 -12 -9 2.31 0.35
9 12 9 3.22 0.51
9 -12 10 3.73 0.42
9 12 -10 3.68 0.46
9 -12 10 3.01 0.47
9 -12 -10 2.67 0.48
9 12 10 3.9 0.62
9 -12 -10 3.65 0.45
-9 -12 -11 8.64 0.76
9 12 -11 9.36 0.67
9 -12 11 9.31 0.67
9 -12 11 8.94 0.66
9 -12 -11 8.75 0.69
-9 -12 11 9.94 0.69
9 12 11 8.98 0.77
9 -12 -11 8.67 0.67
-9 12 12 2.28 0.35
9 -12 12 1.99 0.31
-9 -12 -12 2.19 0.41
9 12 -12 1.64 0.31
9 -12 12 2.03 0.35
9 -12 -12 1.76 0.37
9 -12 -12 2 0.37
9 12 12 2.12 0.38
-9 -12 12 2.9 0.4
9 -12 13 8.48 0.57
-9 12 13 7.55 0.6
-9 -12 -13 7.87 0.61
9 12 -13 8.14 0.59
9 -12 -13 8.84 0.6
9 12 13 8.61 0.66
-9 -12 13 8.41 0.58
9 -12 14 0.29 0.2
-9 12 14 0.58 0.3
-9 -12 -14 -0.12 0.28
9 12 -14 0.4 0.21
9 12 14 -0.06 0.26
9 -12 -14 0.19 0.24
-10 12 0 7.32 0.65
10 12 0 7.49 0.76
10 -12 0 6.3 0.51
-10 12 1 0.94 0.3
10 -12 1 0.82 0.23
10 12 -1 0.84 0.34
-10 12 -1 0.68 0.25
10 12 1 0.78 0.3
10 -12 -1 0.91 0.23
10 -12 2 3.47 0.37
10 12 -2 3.85 0.74
-10 -12 -2 4.46 0.58
-10 12 2 3.83 0.59
-10 12 -2 4.21 0.5
10 12 2 4.72 0.6
10 -12 -2 3.84 0.38
-10 12 3 2.22 0.38
10 -12 3 3.26 0.35
10 -12 3 3.92 0.44
10 -12 -3 3.1 0.36
10 12 3 3.67 0.55
-10 12 -3 3.88 0.49
-10 -12 3 2.82 0.47
10 12 -4 1.84 0.44
10 -12 4 2.83 0.45
10 -12 4 2.07 0.32
-10 12 4 2.51 0.42
10 -12 -4 2.44 0.34
10 12 4 2.65 0.54
10 -12 -4 2.16 0.37
-10 -12 4 2.3 0.47
-10 12 -4 1.41 0.39
10 12 -5 4.36 0.72
10 -12 5 4.72 0.51
-10 12 5 4.94 0.53
10 -12 5 4.17 0.4
10 12 5 4.09 0.6
10 -12 -5 4.36 0.52
-10 -12 5 4.58 0.53
-10 12 -5 3.27 0.49
10 -12 6 0.27 0.28
-10 -12 6 0.7 0.31
10 -12 7 7.27 0.57
10 12 -7 8.76 0.62
10 -12 7 5.93 0.6
-10 12 7 7.52 0.68
-10 -12 7 7.87 0.65
-10 12 -7 6.33 0.81
10 -12 -7 7.39 0.62
10 -12 8 -0.05 0.26
10 -12 8 0.23 0.27
10 12 -8 0.06 0.3
-10 12 8 0.22 0.25
10 12 8 0.18 0.4
-10 -12 8 0.45 0.29
10 -12 -8 -0.04 0.25
-10 12 9 2.23 0.47
10 12 -9 3.15 0.46
10 -12 9 3.58 0.42
10 -12 9 2.84 0.45
-10 -12 -9 4.46 0.65
10 12 9 4.15 0.54
10 -12 -9 3.51 0.44
10 -12 10 0.68 0.28
10 -12 10 0.94 0.29
10 12 -10 0.83 0.29
10 -12 -10 0.15 0.28
10 12 10 1.24 0.41
10 -12 -10 0.59 0.25
10 12 -11 1.18 0.3
10 -12 11 2.08 0.36
-10 -12 -11 2.63 0.45
10 -12 11 1.53 0.3
10 -12 -11 1.71 0.34
10 -12 -11 1.79 0.35
10 12 11 1.88 0.4
-10 -12 11 2.38 0.37
10 12 -12 2.36 0.34
-10 12 12 2.36 0.36
10 -12 12 2.51 0.34
-10 -12 -12 2.69 0.44
10 -12 12 1.92 0.3
10 12 12 2.33 0.38
-10 -12 12 2.96 0.38
10 -12 -12 2.02 0.36
10 -12 13 0.02 0.23
-10 12 13 0.56 0.29
-10 -12 -13 0.14 0.3
10 12 -13 0.38 0.21
10 -12 13 0.2 0.2
10 -12 -13 0.21 0.24
-10 -12 13 0.49 0.23
10 12 13 0.16 0.28
-10 -12 -14 0.75 0.28
10 12 -14 1.31 0.25
-10 12 14 1.37 0.31
10 12 14 0.99 0.3
-11 -12 0 0.76 0.39
11 12 0 0.32 0.31
11 -12 0 -0.03 0.2
-11 12 0 -0.08 0.27
11 12 -1 0.82 0.38
-11 -12 -1 1.95 0.42
11 -12 1 1.19 0.25
-11 12 1 0.92 0.32
-11 12 -1 0.9 0.29
11 12 1 0.84 0.33
11 -12 -1 1.35 0.24
-11 -12 -2 0.9 0.43
11 -12 2 0.15 0.21
-11 12 2 -0.06 0.28
11 12 -2 0.01 0.36
-11 12 -2 -0.14 0.24
11 12 2 -0.08 0.26
11 -12 -2 0.17 0.21
11 -12 3 0.59 0.23
11 12 -3 0.58 0.39
-11 12 3 0.64 0.23
11 -12 3 0.9 0.28
-11 12 -3 0.12 0.24
11 -12 -3 0.83 0.24
-11 -12 3 0.26 0.29
11 12 3 0.41 0.28
11 12 -4 0.19 0.24
11 -12 4 0.03 0.28
11 12 -4 -0.08 0.35
11 -12 4 -0.12 0.22
-11 12 4 0.17 0.22
11 12 4 -0.01 0.25
-11 -12 4 -0.25 0.29
-11 12 -4 -0.02 0.22
11 -12 -4 -0.09 0.32
11 -12 5 -0.02 0.23
11 -12 5 -0.1 0.27
11 12 -5 -0.21 0.27
-11 12 5 0.08 0.22
11 -12 -5 -0.16 0.29
11 12 5 0.28 0.25
-11 -12 5 -0.12 0.29
-11 12 6 0.42 0.25
11 -12 6 0.33 0.25
11 12 -6 0.29 0.29
11 -12 6 0.43 0.28
11 -12 -6 0.6 0.29
-11 -12 6 0.65 0.3
11 12 6 0.41 0.25
11 -12 7 0.2 0.27
11 12 -7 -0.01 0.28
-11 12 7 0.15 0.25
-11 -12 7 0.52 0.29
11 -12 -7 0.04 0.27
11 12 -8 0.16 0.28
11 -12 8 0.44 0.27
11 -12 8 0.42 0.27
11 -12 -8 0.29 0.25
-11 -12 8 0.91 0.29
-11 -12 -9 0.87 0.46
11 -12 9 0.15 0.26
11 -12 9 0.09 0.26
11 12 -9 -0.11 0.26
11 12 9 0.4 0.41
-11 -12 9 0.49 0.27
11 -12 -9 0 0.23
11 12 -10 0.21 0.25
11 -12 10 0.31 0.27
-11 -12 -10 0.81 0.43
11 -12 10 0.16 0.24
11 -12 -10 0.17 0.23
11 12 10 0.39 0.38
-11 -12 10 0.49 0.26
11 -12 11 0.11 0.2
-11 -12 -11 0.63 0.38
-11 12 11 0.72 0.3
11 -12 11 0.21 0.23
11 12 -11 0.32 0.23
11 -12 -11 0.22 0.3
11 12 11 0.64 0.34
11 -12 -11 0.3 0.23
11 12 -12 0.25 0.21
-11 12 12 0.18 0.27
-11 -12 -12 0.01 0.32
11 -12 12 0.13 0.21
11 -12 -12 0.28 0.29
-11 -12 12 0.54 0.23
11 12 12 -0.13 0.3
-11 -12 -13 0.1 0.29
11 -12 13 0.15 0.18
11 12 -13 0.26 0.19
-11 12 13 0.64 0.28
-11 -12 13 0.62 0.22
11 12 13 0.54 0.3
12 12 0 6.17 0.82
-12 12 0 4.8 0.65
12 -12 0 5.75 0.46
-12 -12 0 6.82 0.68
-12 -12 -1 4.98 0.63
12 12 -1 4.42 0.78
12 -12 1 4.26 0.39
-12 12 -1 3.71 0.6
-12 -12 1 5.4 0.64
12 12 1 4.57 0.72
12 -12 -1 4.14 0.4
12 12 -2 2.62 0.49
-12 12 2 3.88 0.49
12 -12 2 3.05 0.35
12 12 2 3.82 0.68
12 -12 -2 3.25 0.36
-12 12 -2 2.89 0.51
12 -12 3 10.49 0.71
12 12 -3 11.31 0.76
-12 12 3 11.22 0.81
12 12 -3 9.21 1.04
-12 -12 -3 11.91 0.89
-12 -12 3 9.74 0.77
-12 12 -3 10.95 0.85
12 12 3 11.8 0.95
12 -12 4 0.62 0.27
-12 12 4 0.52 0.24
12 -12 4 0.26 0.24
12 12 -4 0.52 0.27
-12 12 -4 0.29 0.25
12 -12 -4 0.42 0.33
12 12 4 0.34 0.27
-12 -12 4 0.27 0.3
-12 -12 -5 13.32 0.94
12 12 -5 12.51 0.83
12 -12 5 12.59 0.81
12 -12 5 10.79 0.78
-12 12 -5 12.91 0.89
12 -12 -5 11.57 0.85
12 12 5 11.49 0.92
-12 -12 5 10.57 0.83
-12 -12 -6 1.24 0.46
12 12 -6 0.05 0.27
12 -12 6 0.2 0.25
-12 12 6 0.17 0.19
12 -12 6 -0.13 0.25
12 -12 -6 0.14 0.28
-12 -12 6 0.34 0.29
-12 -12 -7 11.3 0.92
12 -12 7 11.37 0.77
12 12 -7 11.85 0.81
12 -12 7 11.98 0.8
12 -12 -7 12.31 0.81
-12 -12 7 11.24 0.81
12 -12 8 0.04 0.23
12 -12 8 0.1 0.22
-12 -12 -8 0.97 0.45
12 12 -8 -0.17 0.25
12 -12 -8 0.17 0.24
-12 -12 8 0.48 0.27
12 -12 9 6.01 0.51
-12 -12 -9 5.27 0.66
12 12 -9 5.57 0.51
-12 -12 9 5.91 0.53
12 -12 -9 6.47 0.5
-12 -12 -10 2.65 0.5
12 -12 10 2.12 0.33
12 12 -10 1.95 0.35
-12 -12 10 2.51 0.35
12 -12 -10 1.92 0.34
-12 12 11 0.67 0.29
12 -12 11 0.75 0.22
-12 -12 -11 1.32 0.37
12 12 -11 0.66 0.22
12 12 11 0.76 0.32
12 -12 12 1.03 0.21
12 12 -12 1.23 0.23
-12 -12 -12 1.17 0.32
-12 12 12 1.28 0.29
-12 -12 12 1.71 0.28
12 12 12 0.66 0.26
-13 -12 0 1.05 0.39
13 12 0 -0.15 0.2
13 12 0 0.2 0.34
13 12 -1 56.28 3.13
13 -12 1 52.99 3.1
13 12 -1 57.62 3.34
-13 -12 -1 51.21 3.15
13 12 1 58.65 3.31
-13 -12 1 53.92 3.15
13 -12 -1 52.56 3.1
13 12 -2 2.31 0.38
13 -12 2 1.62 0.26
13 12 2 1.71 0.38
13 12 -3 24.63 1.41
-13 -12 -3 22.33 1.46
13 12 3 24.37 1.57
-13 -12 3 21.4 1.4
13 -12 -4 1.71 0.35
13 12 4 1.21 0.3
13 -12 5 3.98 0.43
13 12 -5 3.27 0.44
13 -12 -5 4.64 0.52
-13 -12 5 3.43 0.48
-13 -12 -6 6.52 0.7
13 12 -6 6.51 0.54
13 -12 6 6.32 0.53
13 -12 -6 6.21 0.58
-13 -12 6 6 0.57
13 12 -7 1.84 0.37
-13 -12 -7 2.59 0.53
13 -12 7 1.97 0.29
-13 -12 7 2.32 0.42
13 -12 -7 1.85 0.38
13 12 -8 2.93 0.39
-13 -12 -8 3.96 0.57
13 -12 8 3.11 0.39
-13 -12 8 3.09 0.41
13 -12 -8 3.12 0.4
13 12 -9 2.91 0.36
-13 -12 -9 3.03 0.53
13 -12 9 2.55 0.36
-13 -12 9 3.24 0.39
13 -12 10 1 0.23
13 12 -10 0.76 0.23
-13 12 10 0.97 0.29
-13 -12 -10 1.1 0.39
-13 -12 10 1.55 0.3
-13 12 11 6.29 0.52
13 12 -11 7.54 0.51
13 -12 11 7.45 0.5
-13 -12 -11 7.21 0.56
-13 -12 11 7.55 0.51
14 12 0 0.48 0.24
-14 -12 0 1.01 0.36
-14 -12 -1 4.87 0.58
14 12 -1 4.31 0.45
-14 -12 1 5.29 0.6
14 12 1 3.89 0.42
-14 -12 -2 1.18 0.39
14 12 -3 16.83 1
-14 -12 -3 14.36 1.05
14 12 -4 0.07 0.24
-14 -12 -4 0.58 0.38
-14 -12 4 -0.32 0.27
-14 -12 -5 12.25 0.94
14 12 -5 14.99 0.89
14 -12 -5 14.71 0.94
-14 -12 5 12.44 0.89
-14 -12 -6 0.81 0.37
14 12 -6 0 0.22
-14 -12 6 0.34 0.28
14 -12 7 11.52 0.73
-14 -12 -7 10.97 0.83
14 12 -7 11.09 0.73
-14 -12 7 10.5 0.75
14 12 -8 0.12 0.21
-14 -12 -8 0.25 0.36
14 -12 8 0.18 0.21
-14 -12 8 0.27 0.24
-14 12 9 3.56 0.4
-14 -12 -9 4.09 0.49
14 12 -9 4.32 0.39
14 -12 9 4.64 0.38
-14 -12 9 4.35 0.4
14 12 -10 3.1 0.31
14 -12 10 2.81 0.32
-14 -12 -10 2.8 0.42
-14 -12 10 3.31 0.34
15 12 0 0.16 0.22
-15 -12 0 0.65 0.32
-15 -12 -1 2.4 0.49
15 12 -1 1.33 0.27
-15 -12 1 2.26 0.46
-15 -12 -2 0.69 0.34
15 12 -2 0.34 0.23
-15 -12 2 1.02 0.35
-15 -12 -3 1.02 0.36
15 12 -3 0.52 0.23
-15 -12 -4 0.5 0.34
15 12 -4 0.11 0.22
15 12 -5 -0.14 0.21
-15 -12 -5 0.42 0.35
-15 -12 5 -0.12 0.25
15 12 -6 0.25 0.21
-15 -12 -6 0.75 0.35
-15 -12 6 -0.01 0.26
15 12 -7 0.26 0.2
-15 -12 -7 0.48 0.34
-15 -12 7 0.28 0.25
-15 -12 -8 0.55 0.34
15 12 -8 0.21 0.19
-15 -12 8 0.45 0.24
-15 -12 -9 0.64 0.34
15 12 -9 0.29 0.19
-15 -12 9 0.44 0.22
-16 -12 0 3.19 0.45
-16 -12 -1 2.07 0.42
16 12 -1 1.49 0.27
-16 -12 1 2.05 0.42
-16 -12 -2 1.16 0.32
16 12 -2 0.91 0.23
-16 -12 -3 3.1 0.47
16 12 -3 3.37 0.35
-16 -12 3 4.3 0.49
-16 -12 -4 1.32 0.35
16 12 -5 3.08 0.35
-16 -12 -5 3.37 0.47
-16 -12 -6 0.21 0.31
16 12 -6 -0.14 0.18
-16 -12 6 -0.39 0.25
-16 -12 -7 4.96 0.5
16 12 -7 4.83 0.39
-17 -12 0 0.58 0.3
-17 -12 -1 13.73 0.91
-17 -12 1 14.55 0.92
-17 -12 -2 1.34 0.33
-17 -12 2 2.01 0.4
-17 -12 -3 5.92 0.53
17 12 -3 5.48 0.43
-17 -12 3 6.41 0.53
-17 -12 -4 2.2 0.39
17 12 -4 1.96 0.27
-17 -12 -5 1.76 0.35
17 12 -5 1.29 0.22
-18 -12 0 2.79 0.42
0 13 0 -0.13 0.21
0 13 0 0.15 0.24
0 13 -1 0.1 0.24
0 13 -1 0.14 0.21
0 13 1 0.36 0.25
0 13 1 0.06 0.21
0 13 -2 -0.02 0.22
0 13 2 -0.18 0.2
0 -13 2 -0.03 0.16
0 13 -2 -0.03 0.23
0 13 2 0.04 0.24
0 -13 3 -0.02 0.17
0 13 3 0 0.24
0 13 -3 0.01 0.22
0 13 -4 -0.14 0.23
0 13 4 0.01 0.25
0 -13 4 -0.05 0.18
0 13 -5 0.02 0.23
0 -13 5 -0.04 0.19
0 13 5 -0.01 0.26
0 -13 6 0.04 0.21
0 13 6 0.07 0.28
0 13 -6 0.11 0.25
0 13 -7 0.12 0.26
0 13 7 -0.29 0.29
0 -13 7 -0.08 0.22
0 13 -8 0.12 0.27
0 -13 8 -0.02 0.24
0 13 8 -0.18 0.33
0 13 8 0.32 0.33
0 13 -9 -0.26 0.27
0 13 9 -0.46 0.33
0 -13 9 0.06 0.27
0 13 9 0.73 0.36
0 13 10 0.66 0.36
0 -13 -10 -0.59 0.33
0 -13 10 -0.25 0.3
0 -13 10 -0.06 0.28
0 13 -10 -0.4 0.26
0 13 10 -0.08 0.35
0 -13 -11 0.1 0.33
0 -13 11 0.19 0.3
0 -13 11 0.16 0.29
0 13 11 -0.4 0.37
0 13 11 0.41 0.34
0 13 12 0.16 0.34
0 -13 12 -0.03 0.27
0 -13 12 -0.08 0.29
0 -13 -12 0.03 0.32
0 -13 -13 0.71 0.32
0 13 -13 0.44 0.29
0 13 13 0.88 0.35
0 -13 13 0.36 0.28
0 -13 14 0.17 0.27
0 13 14 -0.08 0.32
0 -13 -14 -0.02 0.28
0 13 -14 0.05 0.26
0 13 15 -0.01 0.28
0 -13 -15 0.49 0.25
0 -13 15 0.11 0.24
0 13 -15 0.21 0.24
0 -13 16 0.13 0.22
0 -13 -16 0.22 0.23
0 13 -16 -0.11 0.16
-1 13 0 91.79 5.12
1 13 0 90.8 5.14
1 13 0 89.06 5.13
-1 13 0 89.9 5.13
1 13 -1 0.27 0.25
-1 13 1 0.15 0.21
-1 13 1 0.28 0.24
1 13 -1 0.02 0.23
-1 13 -1 0.17 0.23
1 13 1 0.3 0.26
1 13 1 -0.06 0.22
-1 13 -1 0.01 0.23
1 13 -2 38.91 2.36
-1 13 2 41.5 2.36
1 -13 2 43.1 2.33
-1 13 -2 38.7 2.34
-1 13 -2 38.51 2.36
1 13 2 39.59 2.35
1 13 2 40.39 2.37
1 13 -3 2.49 0.47
1 -13 3 1.65 0.25
-1 13 3 2.35 0.46
-1 13 -3 2.45 0.49
-1 -13 3 1.56 0.3
-1 13 -3 2.34 0.43
1 13 3 2.19 0.34
-1 13 4 12.78 0.93
1 -13 4 14.36 0.86
1 13 -4 11.5 0.9
-1 -13 4 14.3 0.87
1 13 4 12.85 0.97
-1 13 -4 11.22 0.92
-1 13 5 5.82 0.61
1 13 -5 6.07 0.62
1 -13 5 5.89 0.52
-1 13 5 5.74 0.48
-1 13 -5 5.26 0.63
1 13 5 5.75 0.67
-1 -13 5 5.65 0.53
-1 13 6 3.11 0.36
1 -13 6 3.72 0.45
1 13 -6 2.73 0.53
-1 13 6 2.79 0.56
-1 13 -6 2.67 0.39
1 13 6 3.26 0.61
-1 -13 6 3.86 0.47
1 13 -7 4.68 0.59
1 -13 7 3.91 0.48
-1 13 7 3.86 0.64
1 13 7 3.46 0.65
-1 13 -7 4.41 0.63
-1 -13 7 3.97 0.53
-1 13 8 0.25 0.34
-1 13 8 -0.18 0.22
1 13 -8 0.33 0.29
-1 13 8 0.05 0.32
1 -13 8 0.17 0.24
-1 13 -8 0.31 0.28
1 13 8 0.6 0.34
-1 -13 8 0.32 0.26
1 13 8 0.19 0.34
1 13 -9 4.52 0.65
1 -13 9 5.3 0.51
-1 13 9 4.5 0.72
1 -13 9 5.39 0.61
-1 13 9 6.41 0.63
1 13 9 5.52 0.73
1 13 9 5.9 0.6
-1 13 -9 4.99 0.65
-1 -13 9 5.35 0.63
1 -13 10 6.95 0.59
-1 -13 -10 7.01 0.64
1 -13 10 7.18 0.71
-1 13 10 6.4 0.8
-1 13 10 8.03 0.69
1 -13 -10 6.83 0.62
-1 -13 10 7.01 0.59
1 13 10 8.1 0.69
1 13 10 7.67 0.85
-1 13 -10 6.68 0.7
-1 -13 10 7.22 0.71
1 -13 11 1.53 0.33
-1 13 11 1.99 0.38
1 -13 11 1.56 0.34
-1 -13 -11 2.51 0.41
-1 -13 11 1.11 0.32
1 13 11 1.84 0.38
-1 -13 11 1.81 0.36
1 13 11 0.7 0.4
1 -13 -11 1.66 0.37
1 -13 12 7.65 0.71
-1 -13 -12 7.71 0.63
-1 13 12 8.44 0.69
1 -13 12 7.3 0.59
1 -13 -12 8.15 0.62
-1 -13 12 7.67 0.6
1 13 12 5.93 0.79
1 13 12 6.74 0.67
1 13 -13 0.74 0.3
1 -13 13 0.48 0.29
-1 -13 -13 0.55 0.32
-1 13 13 0.47 0.35
1 13 13 0.6 0.34
1 -13 -13 0.7 0.31
-1 -13 13 0.49 0.29
1 -13 14 1.64 0.3
-1 -13 -14 1.74 0.33
1 13 -14 1.3 0.29
-1 13 14 1.27 0.34
-1 13 -14 0.95 0.29
1 13 14 1.56 0.35
-1 -13 14 1.32 0.31
1 -13 -14 1.78 0.31
1 -13 15 0.38 0.23
-1 13 15 -0.02 0.25
-1 -13 -15 0.47 0.25
1 13 -15 0.6 0.24
-1 -13 15 0.3 0.25
-1 13 -15 0.4 0.24
1 13 15 0.37 0.3
1 -13 -15 0.49 0.25
1 -13 16 0.69 0.22
-1 -13 -16 0.7 0.24
1 13 -16 0.55 0.21
1 13 16 0.27 0.21
-1 -13 16 0.74 0.24
1 -13 -16 0.89 0.25
-2 13 0 0.32 0.22
2 13 0 0.11 0.27
-2 13 0 0 0.23
2 13 0 0.05 0.22
-2 13 1 58.01 3.31
2 13 -1 59.11 3.34
-2 13 1 55.49 3.31
2 13 1 59.04 3.33
2 13 1 55.22 3.34
-2 13 -1 56.99 3.31
-2 13 -1 59.76 3.34
-2 13 2 22.93 1.41
2 -13 2 22.1 1.37
2 13 -2 22.93 1.44
-2 13 -2 22.99 1.4
2 13 2 22.52 1.41
-2 13 -2 23.59 1.44
2 13 2 22.24 1.45
2 -13 3 44.55 2.54
2 13 -3 43.91 2.59
-2 13 3 43.5 2.57
2 13 3 42.91 2.6
2 13 3 41.99 2.56
-2 13 -3 44.78 2.55
-2 13 -3 45.87 2.59
2 -13 4 20.31 1.23
2 13 -4 20.04 1.3
-2 13 4 19.19 1.27
-2 13 -4 19.8 1.23
2 13 4 19.43 1.31
-2 13 -4 20.16 1.29
-2 13 5 12.97 0.92
-2 13 5 12.81 0.83
2 -13 5 13.78 0.85
2 13 -5 12.1 0.93
-2 13 -5 11.72 0.93
-2 13 -5 11.89 0.84
2 13 5 13.09 0.97
-2 13 6 31.18 1.94
2 13 -6 31.87 1.95
2 -13 6 33.32 1.9
-2 13 6 31.88 1.87
-2 13 -6 31.58 1.94
-2 -13 6 30.92 1.89
2 13 6 31.3 1.97
2 13 -7 0.89 0.31
-2 13 7 1.06 0.24
-2 13 7 0.77 0.32
2 -13 7 0.88 0.24
-2 -13 7 0.53 0.26
2 13 7 0.6 0.33
-2 13 -7 1.31 0.32
-2 13 8 26.44 1.63
2 -13 8 25.75 1.57
2 -13 8 24.42 1.51
-2 13 8 23.25 1.54
2 13 -8 25.15 1.6
-2 13 8 25.36 1.55
-2 -13 8 27.09 1.59
2 13 8 22.99 1.54
2 13 8 26.84 1.65
-2 13 -8 25.89 1.61
-2 13 9 2.7 0.46
2 -13 9 3.47 0.43
2 13 -9 3.02 0.55
2 -13 9 3.18 0.52
2 13 9 1.82 0.4
-2 -13 9 2.89 0.57
2 13 9 4.29 0.54
-2 13 -9 2.34 0.39
-2 13 10 8.06 0.71
2 -13 10 8.33 0.61
-2 -13 -10 8.24 0.68
-2 13 10 7.09 0.83
2 -13 10 9.23 0.75
2 -13 -10 7.84 0.64
2 13 10 7.25 0.69
2 13 10 7.36 0.86
-2 -13 10 5.96 0.69
-2 13 11 10.19 0.76
-2 -13 -11 10.4 0.71
2 -13 11 9.06 0.81
2 -13 11 7.61 0.65
2 -13 -11 10.08 0.71
-2 -13 11 9.19 0.7
2 13 11 8.95 0.9
2 13 11 8.49 0.75
-2 -13 -12 1.48 0.36
2 13 -12 0.99 0.32
-2 13 12 1.02 0.38
2 -13 12 0.52 0.3
2 -13 12 0.72 0.3
-2 -13 12 1.08 0.33
2 13 12 0.77 0.34
2 -13 -12 1.24 0.33
2 13 -13 9.37 0.65
-2 -13 -13 8.41 0.67
-2 13 13 8.23 0.71
2 -13 13 9.17 0.65
2 -13 -13 9.05 0.65
2 13 13 8.76 0.72
-2 -13 13 8.78 0.65
2 -13 14 0.22 0.25
2 13 -14 -0.03 0.25
-2 -13 -14 0.08 0.28
-2 13 14 -0.03 0.31
2 -13 -14 0.07 0.25
-2 -13 14 0.2 0.27
2 13 14 -0.28 0.29
2 13 -15 1.68 0.31
2 -13 15 2.02 0.31
-2 -13 -15 1.87 0.3
2 13 15 1.98 0.33
-2 -13 15 1.68 0.31
2 -13 -15 1.66 0.3
2 -13 16 0.82 0.22
-2 -13 -16 0.53 0.25
2 13 -16 0.56 0.22
2 -13 -16 0.44 0.24
2 13 16 0.58 0.26
-2 -13 16 0.81 0.23
-3 13 0 43.28 2.49
-3 13 0 42.15 2.51
3 13 0 43.19 2.53
-3 13 1 1.2 0.24
-3 13 1 0.52 0.24
3 13 -1 1.06 0.27
3 13 1 0.94 0.31
3 13 1 0.77 0.24
-3 13 -1 1.01 0.28
-3 13 -1 1 0.24
3 13 -2 17.01 1.18
3 -13 2 19.4 1.11
-3 13 2 17.82 1.15
3 13 2 16.77 1.22
3 13 2 17.32 1.16
-3 13 -2 18.54 1.14
-3 13 -2 18.21 1.18
3 -13 3 13.69 0.92
3 13 -3 14.3 0.99
-3 13 3 13.87 0.96
-3 13 -3 15.47 1.03
3 13 3 14.56 1.05
-3 13 -3 14.79 0.96
3 13 3 14.16 0.97
3 13 -4 5.63 0.63
-3 13 4 5.8 0.59
3 -13 4 6.94 0.51
-3 13 -4 5.4 0.64
3 13 4 5.32 0.68
3 13 4 5.02 0.54
-3 13 -4 6.86 0.55
-3 13 5 18.1 1.21
3 13 -5 19.48 1.25
3 -13 5 18.01 1.16
-3 13 5 18.8 1.15
-3 13 -5 19.19 1.17
-3 13 -5 18.11 1.23
3 13 5 17.84 1.28
-3 13 6 0.69 0.29
-3 13 6 0.75 0.21
3 -13 6 0.75 0.21
3 13 -6 0.29 0.26
3 13 6 0.29 0.33
-3 13 -6 0.91 0.24
-3 13 -6 0.28 0.28
3 -13 7 15.09 1.03
-3 13 7 15.92 1.03
3 13 -7 16.6 1.12
-3 13 7 15.4 1.11
3 13 7 15.58 1.15
-3 13 -7 15.48 1.1
-3 13 8 0.57 0.34
-3 13 8 0.75 0.36
3 -13 8 1.06 0.3
3 -13 8 0.65 0.24
3 13 -8 0.57 0.31
-3 13 8 0.65 0.25
-3 13 -8 0.75 0.31
3 13 8 0.96 0.37
3 13 8 0.48 0.35
-3 13 9 11.31 0.98
-3 13 9 11.99 0.89
3 -13 9 12.54 0.81
-3 13 9 11.97 0.88
-3 -13 -9 10.84 0.87
3 -13 9 12.12 0.9
3 13 9 12.65 1.01
3 13 9 11.8 0.88
-3 13 -9 11.59 0.95
-3 13 10 5.36 0.56
3 -13 10 4.83 0.62
3 -13 10 4.66 0.48
-3 -13 -10 5.21 0.54
3 -13 -10 4.27 0.52
3 -13 -10 3.99 0.49
-3 13 -10 4 0.64
3 13 10 3.94 0.75
3 13 10 5.48 0.63
-3 -13 -11 3.19 0.47
-3 13 11 3.13 0.44
3 -13 11 2.66 0.41
3 -13 11 3.4 0.58
3 13 11 3.44 0.44
3 -13 -11 2.88 0.46
3 13 11 2.47 0.47
3 13 -12 7.7 0.62
-3 13 12 7.91 0.67
-3 13 12 8.29 0.68
3 -13 12 8.54 0.62
3 -13 12 7.44 0.71
-3 -13 -12 8.43 0.63
-3 -13 12 7.2 0.61
3 -13 -12 8.06 0.62
3 13 12 8.41 0.71
3 13 12 5.75 0.82
-3 13 13 -0.14 0.38
3 13 -13 0.13 0.27
-3 -13 -13 0.23 0.32
-3 13 13 -0.28 0.33
3 -13 13 0.01 0.27
3 -13 -13 0.37 0.28
-3 -13 13 0.05 0.29
3 13 13 0.1 0.32
-3 -13 -14 3.06 0.39
3 13 -14 3.2 0.38
3 -13 14 3.25 0.38
3 13 14 3.2 0.45
-3 -13 14 3.16 0.37
3 -13 -14 3.01 0.36
-3 -13 -15 -0.22 0.26
3 -13 15 0.21 0.23
3 13 -15 0.08 0.24
3 -13 -15 0.08 0.24
-3 -13 15 -0.13 0.24
3 13 15 -0.16 0.28
3 13 -16 1.11 0.24
-3 -13 -16 1.37 0.28
3 -13 16 1.5 0.25
3 13 16 0.95 0.28
3 -13 -16 1.5 0.28
-4 13 0 -0.32 0.22
-4 13 0 0.02 0.19
4 13 0 -0.15 0.18
-4 13 1 0.86 0.21
4 13 -1 1.03 0.26
-4 13 -1 0.39 0.26
-4 13 -1 0.9 0.21
4 13 1 0.97 0.25
-4 13 2 0.11 0.19
4 -13 2 -0.01 0.14
4 13 -2 0.02 0.21
-4 13 -2 0.09 0.19
4 13 2 -0.42 0.29
-4 13 -2 -0.24 0.23
4 13 2 -0.13 0.2
4 13 -3 0.63 0.26
-4 13 3 1.04 0.25
4 -13 3 1.04 0.2
4 13 3 0.58 0.23
-4 13 -3 0.72 0.29
4 13 3 0.6 0.33
-4 13 -3 0.84 0.22
-4 13 4 0.53 0.24
4 13 -4 0.23 0.24
4 -13 4 0.39 0.18
-4 13 -4 0.4 0.22
-4 13 -4 0.17 0.28
4 13 4 -0.27 0.32
4 13 4 0.2 0.21
4 -13 5 0.26 0.18
-4 13 5 0.23 0.25
4 13 -5 0.07 0.27
-4 13 5 0.28 0.17
-4 13 -5 -0.12 0.26
-4 13 -5 0.32 0.22
4 13 5 -0.19 0.33
-4 13 6 0.41 0.2
4 13 -6 0.07 0.27
4 -13 6 0.25 0.19
-4 13 6 0.5 0.29
-4 13 -6 0.7 0.25
4 13 6 0.57 0.35
-4 13 -6 0.23 0.29
4 -13 7 0.23 0.2
4 13 -7 0.22 0.29
-4 13 7 0.54 0.23
-4 13 7 -0.02 0.31
4 -13 7 0.09 0.27
-4 13 -7 0.78 0.25
-4 13 -7 0.37 0.28
4 13 7 -0.09 0.32
4 -13 -7 0.17 0.26
-4 -13 -8 2.05 0.48
-4 13 8 0.71 0.34
-4 13 8 1.01 0.36
4 13 -8 0.67 0.3
4 -13 8 1.53 0.32
4 -13 8 0.93 0.26
-4 13 8 1.17 0.27
4 -13 -8 1.53 0.33
4 13 8 1.71 0.4
-4 13 -8 1.19 0.32
4 13 8 0.96 0.38
4 -13 9 0.5 0.29
-4 13 9 0.53 0.27
-4 13 9 0.8 0.36
4 -13 9 0.38 0.25
-4 -13 -9 1.55 0.44
4 13 9 -0.02 0.35
4 13 9 1.18 0.39
-4 13 -9 0.17 0.31
4 -13 -9 0.7 0.31
-4 -13 -10 1.12 0.41
4 -13 10 0.6 0.29
4 -13 10 0.09 0.29
-4 13 10 0.06 0.28
-4 13 10 0.74 0.37
4 13 10 0.77 0.38
4 -13 -10 0.32 0.34
4 13 10 -0.12 0.37
4 -13 -10 0.51 0.31
-4 13 11 1.18 0.36
4 -13 11 0.99 0.31
4 -13 11 1.13 0.32
-4 -13 -11 1.94 0.41
4 13 -11 1.29 0.33
4 -13 -11 1.15 0.33
4 13 11 1.63 0.38
4 -13 -11 1.39 0.34
4 13 11 0.21 0.39
-4 -13 -12 -0.01 0.34
4 -13 12 0.06 0.27
-4 13 12 -0.54 0.33
-4 13 12 0.83 0.39
4 13 -12 -0.23 0.28
4 -13 12 -0.03 0.27
4 -13 -12 -0.03 0.31
4 13 12 0 0.34
4 -13 -12 -0.17 0.29
-4 13 13 1.03 0.4
-4 -13 -13 0.65 0.32
4 -13 13 0.79 0.28
4 13 -13 0.63 0.29
4 -13 -13 0.88 0.28
4 13 13 0.7 0.33
4 13 -14 -0.08 0.25
-4 -13 -14 -0.2 0.27
4 -13 14 -0.08 0.22
-4 13 14 -0.04 0.36
4 -13 -14 -0.15 0.24
4 13 14 -0.19 0.29
4 13 -15 -0.07 0.23
-4 -13 -15 -0.09 0.24
4 -13 15 -0.13 0.21
4 -13 -15 -0.14 0.23
4 13 15 -0.12 0.27
4 -13 16 0.14 0.21
-4 -13 -16 -0.2 0.23
4 13 -16 0.09 0.2
4 -13 -16 -0.17 0.24
4 13 16 -0.24 0.24
-5 13 0 10.96 0.73
5 13 0 10.79 0.8
-5 13 0 8.34 0.78
5 13 -1 1.59 0.29
-5 13 1 1.47 0.24
-5 13 -1 1.72 0.25
5 13 1 1.18 0.26
-5 13 -1 0.91 0.28
-5 13 2 10.3 0.74
5 13 -2 10.08 0.81
5 13 2 9.9 0.77
-5 13 -2 10.18 0.72
-5 13 -2 9.42 0.83
5 -13 3 4.83 0.46
5 13 -3 5.52 0.63
-5 13 3 5.35 0.54
-5 13 -3 5.15 0.49
5 13 3 5.14 0.57
-5 13 -3 4.89 0.63
5 13 -4 1.53 0.33
5 -13 4 2.14 0.35
-5 13 4 2.5 0.46
-5 13 -4 1.72 0.34
5 13 4 1.39 0.27
-5 13 -4 2.4 0.41
5 13 4 1.57 0.4
-5 13 5 6.17 0.62
5 -13 5 5.75 0.53
5 13 -5 6 0.7
-5 13 5 6.09 0.5
5 13 5 5.1 0.55
-5 13 -5 6.25 0.69
5 13 5 5.6 0.8
-5 13 -5 6.49 0.57
-5 13 6 0.14 0.27
-5 13 6 0.23 0.19
5 13 -6 0.22 0.3
5 -13 6 -0.18 0.24
5 -13 6 0.18 0.19
5 13 6 0.04 0.37
-5 13 -6 0.09 0.29
5 -13 -6 0.19 0.25
-5 13 7 6.77 0.57
5 -13 7 5.67 0.52
-5 13 7 6.74 0.73
5 13 -7 5.4 0.72
5 -13 7 5.88 0.56
-5 13 -7 6.56 0.71
5 13 7 5.26 0.78
5 -13 -7 5.95 0.54
-5 13 8 -0.07 0.33
5 -13 8 -0.12 0.28
-5 13 8 0.59 0.25
5 13 -8 -0.09 0.27
5 -13 8 0.22 0.23
5 -13 -8 0.1 0.29
5 13 8 0.28 0.38
-5 -13 8 0.67 0.34
5 13 8 0 0.37
-5 13 -8 0.35 0.32
-5 13 9 3.45 0.53
5 -13 9 2.7 0.42
5 -13 9 3.35 0.54
-5 13 9 1.99 0.43
-5 13 9 2.27 0.41
5 13 9 2.25 0.47
-5 13 -9 3.63 0.61
5 -13 -9 3.16 0.48
-5 -13 9 3.79 0.54
5 13 9 4 0.49
-5 13 10 0.3 0.35
5 13 -10 0.3 0.27
5 -13 10 0.71 0.31
5 -13 10 0.64 0.3
-5 13 10 0.79 0.29
5 -13 -10 0.83 0.31
-5 13 -10 -0.02 0.32
5 -13 -10 0.75 0.33
5 13 10 1 0.38
5 13 10 0.22 0.38
-5 -13 -11 2.66 0.51
5 -13 11 1.65 0.34
5 -13 11 2.52 0.36
5 13 -11 1.71 0.36
5 -13 -11 2.12 0.38
5 13 11 2.57 0.42
5 -13 -11 2.42 0.38
5 13 -12 3.08 0.44
-5 13 12 4.63 0.51
5 -13 12 2.95 0.42
-5 -13 -12 3.16 0.5
5 -13 -12 3.3 0.47
5 13 12 3.49 0.45
5 -13 -12 3.31 0.43
-5 -13 -13 0.09 0.31
5 -13 13 -0.16 0.25
5 13 -13 -0.14 0.27
-5 13 13 0.47 0.37
5 -13 -13 0.21 0.28
5 -13 -13 0.22 0.27
5 13 13 -0.18 0.3
5 -13 14 0.71 0.24
-5 -13 -14 0.57 0.29
-5 13 14 1.04 0.36
5 13 -14 0.47 0.26
5 -13 -14 0.86 0.26
5 13 14 0.74 0.3
-5 -13 -15 -0.18 0.25
5 -13 15 0.17 0.21
5 13 -15 0.18 0.23
-5 13 15 0.21 0.33
5 13 15 -0.14 0.26
5 -13 -15 0.03 0.23
-5 -13 -16 -0.06 0.24
5 13 -16 0.08 0.17
5 -13 16 0.29 0.23
5 -13 -16 0.03 0.24
5 13 16 -0.13 0.25
6 13 0 -0.17 0.22
-6 13 0 0.01 0.19
-6 13 1 22.32 1.39
6 13 -1 23.36 1.47
-6 13 -1 21.11 1.42
-6 13 -1 22.03 1.38
6 13 1 24.23 1.46
-6 13 2 17.16 1.1
6 13 -2 16.19 1.15
-6 13 -2 16.67 1.06
-6 13 -2 16.28 1.14
6 13 2 17.02 1.13
-6 13 3 6.81 0.6
6 -13 3 5.71 0.5
6 13 -3 6.24 0.7
6 13 3 5.88 0.6
-6 13 -3 5.81 0.67
-6 13 -3 6.49 0.56
-6 13 4 38.91 2.33
6 13 -4 40.01 2.42
6 -13 4 37.99 2.3
-6 13 -4 40.14 2.31
6 13 4 38.27 2.34
-6 13 -4 41.18 2.38
6 13 -5 0.05 0.29
6 -13 5 0.32 0.19
6 -13 5 0.06 0.23
-6 13 5 0.33 0.18
-6 13 5 0.32 0.28
6 -13 -5 0.27 0.19
6 13 5 -0.04 0.39
6 -13 -5 0.54 0.26
-6 13 -5 0.3 0.31
-6 -13 5 0.4 0.3
-6 13 -5 0.66 0.23
6 13 5 0.25 0.23
-6 13 6 29.89 1.72
-6 13 6 29.98 1.79
6 -13 6 29.56 1.69
6 -13 6 30.49 1.74
6 13 -6 28.25 1.84
-6 13 -6 29.98 1.81
6 13 6 28.54 1.88
6 -13 -6 27.55 1.71
-6 -13 6 24.08 1.69
6 -13 7 0.5 0.23
6 -13 7 -0.24 0.24
6 13 -7 0.08 0.3
-6 13 7 0.47 0.22
6 -13 7 0.16 0.26
-6 13 7 -0.06 0.31
6 -13 -7 0.29 0.28
-6 13 -7 0.52 0.33
-6 13 8 5.88 0.78
6 -13 8 7.64 0.68
-6 -13 -8 7.96 0.74
-6 13 8 8.24 0.66
6 -13 8 7.43 0.58
6 13 8 6.51 0.73
-6 -13 8 7.79 0.67
6 -13 -8 7.05 0.64
-6 13 -8 7.24 0.77
6 13 8 6.22 0.89
6 -13 9 2.93 0.53
-6 13 9 3.7 0.53
6 -13 9 2.89 0.41
-6 13 -9 3.42 0.64
6 -13 -9 2.64 0.46
6 13 9 3.48 0.58
6 13 -10 4.66 0.54
6 -13 10 6.52 0.65
-6 -13 -10 6.57 0.67
-6 13 10 5.68 0.63
6 -13 10 6.69 0.54
-6 -13 10 7.02 0.59
6 13 10 4.98 0.66
6 13 10 4.62 0.84
6 -13 -10 5.5 0.56
6 -13 -10 5.73 0.57
-6 13 -10 4.11 0.69
6 -13 11 6.49 0.57
6 13 -11 7.59 0.6
-6 -13 -11 7.17 0.67
-6 -13 11 7.72 0.6
6 13 11 6.95 0.7
6 -13 -11 6.61 0.61
6 -13 -11 6.95 0.6
6 13 -12 0.63 0.3
6 -13 12 1 0.28
-6 -13 -12 1.55 0.37
-6 13 12 1.67 0.37
6 -13 -12 0.94 0.32
6 13 12 0.82 0.34
6 -13 -12 1.23 0.31
-6 -13 12 0.58 0.28
-6 -13 -13 6.01 0.53
6 -13 13 6.56 0.51
6 13 -13 6.71 0.51
-6 13 13 6.49 0.57
6 -13 -13 6.28 0.52
6 13 13 6.32 0.61
6 -13 -13 6.3 0.54
6 -13 14 0.47 0.23
-6 -13 -14 0.48 0.28
-6 13 14 0.99 0.35
6 13 -14 0.77 0.26
6 -13 -14 0.39 0.25
6 13 14 0.64 0.29
-6 13 15 2.44 0.37
-6 -13 -15 2.14 0.31
6 -13 15 2.38 0.3
6 13 -15 2.14 0.28
6 13 15 2.3 0.37
6 -13 -15 2.18 0.31
7 13 0 47.76 2.83
-7 13 0 47.34 2.76
7 13 -1 0.2 0.24
-7 13 1 0.19 0.21
-7 13 -1 0.27 0.2
7 13 1 0.11 0.22
7 13 -2 24.09 1.57
-7 13 2 24.67 1.48
-7 13 -2 22.23 1.51
-7 13 -2 23.63 1.45
7 13 2 24.51 1.52
7 -13 3 2.13 0.3
-7 13 3 3.35 0.5
7 13 -3 3.5 0.64
-7 13 -3 3.65 0.43
7 -13 -3 2.56 0.29
7 13 3 3.29 0.5
-7 13 -3 3.04 0.59
-7 13 4 1.16 0.3
7 -13 4 0.7 0.3
7 13 -4 0.54 0.34
7 -13 4 0.88 0.21
-7 -13 4 0.59 0.3
7 13 4 0.6 0.25
-7 13 -4 0.54 0.32
-7 13 -4 1.15 0.23
-7 13 5 1.55 0.24
-7 13 5 1.05 0.31
7 -13 5 1.55 0.34
7 13 -5 1.13 0.37
7 -13 5 1.42 0.27
7 -13 5 0.97 0.23
7 -13 -5 0.93 0.29
-7 13 -5 1.65 0.27
7 13 5 1 0.27
-7 13 -5 0.83 0.35
7 -13 6 29.05 1.68
7 -13 6 28.42 1.75
-7 13 6 30.22 1.73
7 13 -6 31.3 1.88
7 -13 6 29.77 1.73
-7 -13 -6 28.23 1.75
-7 13 6 28.35 1.79
-7 -13 6 26.45 1.71
-7 13 -6 31.13 1.82
7 13 6 23.88 1.89
-7 13 7 1.03 0.35
7 -13 7 1.28 0.29
-7 13 7 1.81 0.29
7 -13 7 2.26 0.34
7 -13 7 2.47 0.4
7 13 7 1.1 0.45
7 -13 -7 2.15 0.43
-7 13 -7 1.2 0.36
7 -13 8 18.51 1.18
-7 13 8 19.33 1.22
7 -13 8 17.93 1.15
7 -13 8 17.68 1.23
-7 -13 -8 19.45 1.25
7 13 8 16.9 1.38
-7 13 -8 20.38 1.33
7 13 8 19.33 1.27
7 -13 -8 16.71 1.17
-7 -13 8 19.62 1.19
7 13 -9 2.49 0.44
-7 13 9 2.91 0.52
7 -13 9 2.59 0.53
7 -13 9 2.39 0.39
7 -13 9 2.82 0.42
7 13 9 3.03 0.47
7 13 9 1.77 0.47
-7 13 -9 2.1 0.4
7 -13 -9 2.58 0.42
-7 13 10 12.35 0.96
-7 -13 -10 15.09 0.99
7 -13 10 14.11 0.92
7 -13 10 14.31 0.89
7 -13 10 12.51 0.98
7 -13 -10 12.45 0.9
7 13 10 14.72 1
-7 13 -10 11.95 1.03
-7 -13 -11 3.28 0.52
7 13 -11 1.81 0.35
7 -13 11 2.3 0.34
7 -13 -11 2.08 0.37
7 -13 -11 2.01 0.35
7 13 11 1.89 0.41
7 -13 12 12.08 0.8
-7 -13 -12 11.37 0.85
-7 13 12 12.33 0.82
7 13 -12 12.41 0.82
7 -13 -12 12.31 0.83
7 13 12 11.86 0.87
7 -13 -12 12.6 0.82
-7 -13 12 12.5 0.81
7 -13 13 0.41 0.24
-7 -13 -13 0.75 0.32
-7 13 13 0.7 0.34
7 13 -13 0.6 0.26
7 -13 -13 0.62 0.25
7 13 13 0.29 0.3
7 -13 -13 0.41 0.27
-7 13 14 5.02 0.51
7 13 -14 5.57 0.44
-7 -13 -14 5.32 0.46
7 -13 14 5.68 0.43
7 13 14 5.39 0.51
7 -13 -14 5.82 0.45
7 -13 15 0.28 0.22
-7 -13 -15 0.17 0.25
7 13 -15 0.66 0.21
-7 13 15 0.04 0.31
7 -13 -15 0.23 0.24
7 13 15 0.26 0.27
8 13 0 -0.17 0.21
-8 13 0 -0.03 0.22
8 -13 0 -0.16 0.2
8 13 -1 5.27 0.65
8 -13 1 4.63 0.4
-8 13 1 5.09 0.55
8 13 1 5.03 0.61
8 -13 -1 4.65 0.42
-8 13 -1 5.43 0.52
-8 13 2 3.97 0.55
8 -13 2 3.87 0.36
8 13 -2 4.31 0.64
-8 13 -2 3.25 0.58
8 13 2 3.77 0.56
-8 13 -2 4.65 0.5
8 -13 -2 4.12 0.37
8 13 -3 1.03 0.36
8 -13 3 1.64 0.26
8 -13 3 1.96 0.32
-8 13 3 1.65 0.33
-8 13 -3 1.76 0.28
8 13 3 1.42 0.29
8 -13 -3 2.21 0.27
-8 13 -3 0.92 0.34
-8 -13 3 1.84 0.33
8 -13 4 15.48 0.97
-8 13 4 16.11 1.1
8 -13 4 16.76 1.03
8 13 -4 15.91 1.25
8 -13 -4 16.44 0.97
-8 13 -4 17.58 1.06
-8 13 -4 15.49 1.15
8 13 4 15.63 1.1
8 -13 -4 14.09 1.03
-8 -13 4 14.43 1.02
8 -13 5 -0.03 0.3
-8 13 5 0.01 0.2
-8 13 5 -0.04 0.29
-8 13 -5 0.45 0.24
8 13 5 0.23 0.25
-8 -13 5 0.57 0.3
8 -13 -5 0.54 0.29
8 -13 6 5.54 0.58
8 -13 6 5.1 0.57
8 -13 6 5.15 0.48
8 13 -6 4.88 0.76
-8 13 6 5.84 0.56
-8 13 6 4.68 0.66
-8 13 -6 4.78 0.72
-8 -13 6 6.16 0.58
8 -13 -6 5.64 0.55
8 -13 7 0.1 0.32
-8 13 -7 0.12 0.34
8 -13 -7 0.25 0.28
-8 13 8 2.81 0.51
8 -13 8 2.48 0.39
8 -13 8 2.53 0.52
8 -13 8 2.98 0.39
8 13 -8 2.39 0.39
8 13 8 3.35 0.51
8 -13 -8 2.43 0.45
8 -13 9 0.26 0.31
8 -13 9 0.37 0.27
-8 13 9 0.46 0.27
8 13 -9 0.91 0.32
8 -13 9 0.38 0.27
8 -13 -9 0.69 0.28
-8 13 -9 0.33 0.34
8 13 9 1.14 0.42
8 -13 10 1.08 0.32
8 13 -10 0.95 0.32
8 -13 10 1.07 0.3
-8 -13 -10 2.13 0.48
8 13 10 1 0.4
8 -13 -10 1.19 0.31
8 -13 11 1.31 0.31
-8 -13 -11 2.82 0.51
8 13 -11 2.14 0.4
8 -13 11 1.7 0.31
8 13 11 2.15 0.41
8 -13 -11 1.98 0.4
8 -13 -11 2.25 0.4
-8 13 12 0.6 0.32
8 13 -12 0.14 0.25
-8 -13 -12 0.36 0.34
8 -13 12 0.06 0.24
8 -13 12 -0.16 0.21
8 -13 -12 0.23 0.26
8 13 12 0.14 0.32
8 -13 -12 0.13 0.26
-8 -13 12 0.69 0.26
8 13 -13 2.54 0.34
8 -13 13 2.28 0.32
-8 -13 -13 2.5 0.37
-8 13 13 2.35 0.37
8 13 13 1.88 0.34
-8 -13 13 2.36 0.33
8 -13 -13 1.99 0.34
8 -13 -13 2.33 0.36
8 -13 14 0.48 0.23
-8 13 14 0.75 0.31
8 13 -14 0.78 0.22
-8 -13 -14 0.51 0.27
8 13 14 0.4 0.28
8 -13 -14 0.42 0.24
9 -13 0 1.74 0.29
-9 13 0 1.71 0.3
9 13 0 1.57 0.34
-9 13 1 0.27 0.26
9 -13 1 0.37 0.22
9 13 -1 0.18 0.28
-9 13 -1 0.44 0.25
9 -13 -1 0.38 0.23
9 13 1 0.25 0.27
-9 13 2 1.26 0.31
9 -13 2 1.68 0.3
9 13 -2 0.84 0.33
9 13 2 0.85 0.27
9 13 -3 0.36 0.33
-9 13 3 0.94 0.32
-9 -13 -3 1.16 0.48
9 -13 3 0.87 0.25
9 13 3 0.7 0.28
-9 -13 3 1.07 0.31
-9 13 -3 1.02 0.25
9 -13 -3 1.08 0.25
9 -13 4 0.42 0.23
9 13 -4 0.24 0.36
-9 13 4 0.46 0.21
9 -13 4 0.53 0.29
-9 13 4 0.14 0.32
-9 13 -4 0.71 0.25
-9 -13 4 0.87 0.32
9 -13 -4 0.67 0.32
9 13 4 0.44 0.26
9 -13 -4 0.47 0.23
9 -13 5 2.06 0.29
-9 13 5 1.8 0.29
9 -13 5 1.74 0.33
9 13 -5 0.83 0.37
-9 13 5 0.87 0.33
-9 -13 5 2.67 0.48
-9 13 -5 0.81 0.39
9 -13 -5 1.46 0.34
-9 13 -5 2.55 0.47
9 13 5 1.01 0.29
9 13 -6 -0.26 0.27
9 -13 6 -0.19 0.23
-9 13 6 0.09 0.22
9 -13 6 -0.13 0.28
9 -13 -6 -0.13 0.27
-9 -13 6 0.57 0.3
-9 13 -6 -0.4 0.34
9 13 6 -0.06 0.21
9 -13 7 1.56 0.29
9 -13 7 1.42 0.32
-9 13 7 1.4 0.29
9 13 -7 1.27 0.31
9 -13 -7 1.62 0.33
-9 -13 7 2.52 0.48
-9 13 -7 0.61 0.37
9 -13 8 0.41 0.29
9 13 -8 0.02 0.3
9 -13 8 -0.01 0.27
9 -13 8 0.4 0.26
-9 13 8 0.29 0.25
-9 13 -8 -0.26 0.35
9 13 8 0.41 0.44
-9 -13 8 1.08 0.32
9 -13 -8 0.46 0.27
9 13 -9 0.21 0.29
9 -13 9 0.37 0.26
9 -13 9 0.15 0.29
-9 13 9 -0.04 0.26
9 -13 -9 0.25 0.26
9 13 9 0.66 0.42
9 -13 10 -0.06 0.26
9 -13 10 -0.08 0.27
9 13 -10 0.12 0.28
9 13 10 0.08 0.38
9 -13 -10 -0.03 0.25
9 -13 11 0.22 0.26
9 13 -11 0.11 0.26
9 -13 11 -0.02 0.25
-9 -13 -11 0.27 0.39
-9 -13 11 0.67 0.27
9 -13 -11 0.01 0.24
9 -13 -11 -0.11 0.25
9 13 11 0.08 0.35
-9 -13 -12 1.14 0.35
9 -13 12 0.65 0.25
-9 13 12 1.16 0.32
9 -13 12 0.97 0.26
9 13 -12 0.74 0.26
9 -13 -12 0.66 0.28
9 -13 -12 0.73 0.25
9 13 12 1.07 0.34
9 13 -13 0.29 0.23
-9 -13 -13 0.29 0.28
-9 13 13 0.85 0.3
9 -13 13 0.38 0.23
9 13 13 0.4 0.29
-9 -13 13 0.48 0.23
9 -13 -13 0.35 0.24
9 -13 14 0.12 0.16
9 13 -14 0.55 0.2
-9 -13 -14 0.43 0.27
-9 13 14 0.75 0.3
9 13 14 0.43 0.29
9 -13 -14 0.13 0.19
10 -13 0 -0.19 0.22
10 13 0 0.03 0.3
-10 13 0 -0.21 0.26
10 13 -1 26.85 1.76
-10 13 1 26.96 1.65
10 -13 1 25.29 1.53
10 -13 -1 25.55 1.53
-10 13 -1 25.68 1.64
10 13 1 26.71 1.71
10 -13 2 2.39 0.33
10 13 -2 1.7 0.4
-10 13 2 1.99 0.37
-10 13 -2 2.04 0.32
10 -13 -2 2.09 0.32
10 13 2 2.38 0.39
-10 -13 2 2.43 0.35
-10 13 3 8.31 0.8
10 -13 3 8.41 0.6
10 13 -3 8.31 0.94
-10 -13 -3 9.61 0.84
10 -13 -3 8.43 0.6
10 13 3 8.6 0.79
-10 13 -3 8.5 0.71
-10 -13 3 7.7 0.67
-10 13 4 3.73 0.5
10 -13 4 4.18 0.47
10 -13 4 3.26 0.38
10 13 -4 2.67 0.49
10 -13 -4 3.09 0.51
-10 13 -4 4.2 0.52
10 13 4 3.29 0.59
-10 -13 4 3.18 0.5
10 -13 -4 3.37 0.37
10 -13 5 -0.21 0.22
10 -13 5 0.26 0.27
-10 13 5 0.07 0.22
10 13 -5 -0.41 0.31
-10 -13 5 0.19 0.29
10 13 5 0.07 0.25
-10 13 -5 0.27 0.25
10 -13 -5 -0.03 0.3
-10 13 6 7.17 0.63
10 -13 6 7.43 0.52
10 13 -6 5.76 0.55
10 -13 6 6.71 0.57
-10 -13 6 6.03 0.6
10 -13 -6 7.12 0.6
-10 13 -6 5.19 0.78
-10 13 7 0.48 0.25
10 13 -7 -0.21 0.28
10 -13 7 0.35 0.26
10 -13 7 0.1 0.24
-10 -13 7 0.77 0.3
10 -13 -7 0.32 0.27
10 -13 8 7.77 0.56
-10 -13 -8 7.65 0.76
10 -13 8 6.62 0.57
10 13 -8 7.38 0.6
-10 13 8 5.86 0.63
-10 -13 8 7.33 0.6
10 -13 -8 7.27 0.59
10 -13 9 3.36 0.42
-10 -13 -9 3.61 0.58
10 -13 9 3.52 0.41
10 13 -9 3.96 0.45
-10 -13 9 4.63 0.48
10 -13 -9 2.97 0.43
10 13 9 3.59 0.51
10 13 -10 6.04 0.53
10 -13 10 6.83 0.52
10 -13 10 5.86 0.53
-10 -13 -10 6.29 0.67
-10 -13 10 6.7 0.55
10 13 10 6.38 0.67
10 -13 -10 6.57 0.52
10 -13 11 4.46 0.43
-10 -13 -11 4.8 0.55
10 -13 11 4.77 0.43
10 13 -11 5.16 0.45
10 -13 -11 4.62 0.44
10 13 11 4.68 0.57
-10 -13 11 5.23 0.46
-10 13 12 1.17 0.31
-10 -13 -12 1.69 0.35
10 13 -12 0.79 0.24
10 -13 12 1.02 0.25
10 -13 12 1.07 0.24
10 13 12 0.97 0.33
-10 -13 12 1.67 0.3
10 13 -13 2.75 0.29
-10 -13 -13 2.58 0.35
-10 13 13 2.7 0.36
-10 -13 13 2.56 0.3
10 13 13 2.36 0.42
-11 -13 0 18.53 1.31
-11 13 0 20.44 1.36
11 13 0 20.6 1.46
11 -13 0 21.25 1.21
-11 13 1 0.01 0.3
11 13 -1 0.3 0.37
11 -13 1 0.16 0.22
-11 13 -1 0.03 0.28
11 13 1 0.08 0.3
11 -13 -1 0.19 0.21
-11 -13 1 1.11 0.43
-11 13 2 15.41 1.2
11 13 -2 17.84 1.35
-11 -13 -2 17.23 1.21
11 -13 2 18.12 1.06
-11 13 -2 18.12 1.18
-11 -13 2 16.39 1.1
11 13 2 17.39 1.26
11 -13 -2 18.45 1.06
-11 13 3 9.17 0.72
11 13 -3 8.94 0.95
11 -13 3 7.86 0.6
-11 -13 -3 10.52 0.84
11 13 3 8.73 0.82
-11 -13 3 7.56 0.68
11 -13 -3 8.45 0.6
-11 13 -3 8.42 0.74
-11 13 4 10.71 0.8
11 -13 4 10.13 0.7
-11 -13 -4 11.11 0.92
-11 -13 4 9.15 0.76
-11 13 -4 11.12 0.81
11 -13 -4 10.59 0.81
11 13 4 10.13 0.89
11 13 -5 11.24 0.77
11 -13 5 11.36 0.77
-11 -13 -5 13.07 0.94
11 -13 5 10.45 0.73
-11 13 5 10.83 0.83
11 13 5 10.29 0.86
-11 13 -5 12.41 0.87
-11 -13 5 9.18 0.78
11 -13 -5 10.8 0.81
11 13 -6 -0.02 0.27
-11 13 6 0.35 0.24
11 -13 6 0.26 0.26
11 -13 6 0.07 0.25
-11 13 -6 0.55 0.26
-11 -13 6 0.72 0.29
11 -13 -6 0.58 0.28
11 -13 7 12.26 0.8
11 13 -7 13.62 0.84
11 -13 7 11.6 0.82
-11 -13 -7 11.85 0.95
-11 -13 7 12.05 0.85
11 -13 -7 11.69 0.84
11 -13 8 0.82 0.27
11 -13 8 0.65 0.26
11 13 -8 0.26 0.27
-11 -13 -8 1.54 0.46
-11 -13 8 0.8 0.28
11 -13 -8 0.63 0.26
11 -13 9 4.58 0.43
11 13 -9 4.44 0.44
-11 -13 -9 3.43 0.57
11 -13 9 4.54 0.45
11 -13 -9 4.1 0.44
-11 -13 9 4.35 0.47
-11 -13 -10 3.96 0.51
11 -13 10 3.34 0.39
11 -13 10 3.62 0.39
11 13 -10 3.93 0.41
-11 -13 10 4.37 0.42
11 13 10 3.87 0.55
11 -13 -10 3.1 0.39
11 -13 11 1.77 0.27
-11 13 11 2.17 0.33
-11 -13 -11 2.53 0.39
11 -13 11 1.82 0.28
11 13 -11 1.82 0.3
-11 -13 11 2.34 0.33
11 13 11 1.85 0.38
11 -13 -11 1.91 0.33
11 13 -12 4.84 0.39
-11 -13 -12 4.67 0.45
-11 13 12 4.91 0.43
-11 -13 12 5.41 0.41
11 13 12 4.91 0.5
-11 -13 -13 0.05 0.24
11 13 -13 0.2 0.17
-11 13 13 0.53 0.28
-11 -13 13 -0.12 0.2
11 13 13 0.19 0.23
-12 -13 0 0.51 0.39
12 13 0 0.07 0.33
12 -13 0 -0.09 0.21
-12 13 0 -0.49 0.25
-12 -13 -1 9.05 0.75
12 13 -1 9.05 0.93
12 -13 1 7.77 0.58
12 13 1 8.4 0.88
12 -13 -1 7.73 0.57
-12 -13 1 9.76 0.79
-12 13 -1 7.11 0.75
12 13 -2 1.59 0.42
12 -13 2 1.67 0.3
12 -13 -2 2.03 0.3
12 13 2 1.23 0.34
-12 -13 2 1.03 0.31
-12 13 -2 0.94 0.3
12 -13 3 6.86 0.53
-12 -13 -3 8.44 0.76
-12 13 -3 6.48 0.65
12 13 3 7.44 0.77
-12 -13 3 6.15 0.59
12 -13 4 3.33 0.37
12 13 -4 3.73 0.43
12 -13 -4 3.64 0.52
-12 13 -4 3.61 0.53
12 13 4 3.14 0.59
-12 -13 4 3.47 0.48
12 13 -5 0.69 0.27
12 -13 5 0.96 0.26
-12 13 -5 0.67 0.25
-12 -13 5 0.84 0.31
12 13 5 0.07 0.33
12 -13 -5 1 0.33
12 13 -6 3.06 0.41
12 -13 6 3.1 0.42
12 -13 6 2.9 0.37
12 -13 -6 2.91 0.45
-12 -13 6 3.45 0.47
12 -13 7 0.24 0.24
12 -13 7 0.43 0.26
-12 -13 -7 0.78 0.43
12 13 -7 0.12 0.25
-12 -13 7 0.54 0.28
12 -13 -7 0.34 0.26
12 -13 8 3.59 0.39
-12 -13 -8 3.23 0.54
12 -13 8 3.26 0.4
12 13 -8 4.08 0.41
12 -13 -8 3.49 0.41
-12 -13 8 3.53 0.45
-12 -13 -9 2.17 0.45
12 -13 9 1.55 0.26
12 13 -9 1.79 0.34
12 -13 -9 1.46 0.28
-12 -13 9 1.93 0.34
12 13 -10 1.83 0.31
-12 -13 -10 2.52 0.42
12 -13 10 1.89 0.27
-12 -13 10 2.13 0.33
12 -13 -10 1.97 0.33
-12 -13 -11 2.32 0.39
12 13 -11 2.21 0.28
-12 13 11 1.94 0.32
-12 -13 11 2.75 0.31
12 13 -12 0.38 0.17
-12 -13 -12 0.41 0.3
-12 13 12 0.42 0.27
-12 -13 12 0.62 0.21
13 13 0 0.2 0.33
13 -13 0 0.39 0.21
-13 -13 0 0.92 0.4
13 13 -1 -0.04 0.33
13 13 -1 -0.04 0.17
-13 -13 -1 0.72 0.41
13 -13 1 0.14 0.21
13 -13 -1 0.37 0.21
13 13 1 0.22 0.34
-13 -13 -2 1.62 0.44
-13 -13 -3 1.01 0.42
-13 -13 -4 1.39 0.44
13 -13 5 0.12 0.23
-13 -13 -5 1.01 0.42
13 13 -5 0.05 0.24
13 -13 -5 0.09 0.32
-13 -13 5 -0.04 0.27
13 13 -6 0.24 0.24
-13 -13 -6 0.89 0.42
13 -13 6 0.18 0.21
-13 -13 6 0.41 0.28
13 -13 -6 0.17 0.29
13 -13 7 0.05 0.25
13 13 -7 0.24 0.23
-13 -13 -7 0.66 0.4
13 -13 -7 0.11 0.26
-13 -13 7 0.3 0.26
-13 -13 -8 0.08 0.38
13 13 -8 0 0.22
-13 -13 8 0.26 0.24
13 -13 -8 0.23 0.24
-13 -13 -9 0.4 0.36
13 13 -9 0.17 0.2
-13 -13 9 0.33 0.22
13 13 -10 0.22 0.19
-13 -13 -10 0.36 0.32
-13 13 10 0.12 0.26
-13 -13 10 0.45 0.21
-13 13 11 -0.1 0.25
13 13 -11 0.04 0.17
-13 -13 -11 0.3 0.31
-13 -13 11 0.4 0.21
-14 -13 0 0.51 0.36
14 -13 0 0.15 0.2
14 -13 1 2.03 0.27
14 13 -1 1.67 0.31
-14 -13 -2 4.57 0.59
14 13 -2 3.52 0.41
-14 -13 2 4.77 0.6
-14 -13 -3 3.22 0.56
14 13 -3 1.87 0.34
14 13 -4 3.56 0.37
-14 -13 4 2.64 0.41
14 13 -5 0.02 0.22
-14 -13 -5 0.46 0.37
-14 -13 5 1.22 0.38
14 -13 -5 0.09 0.29
-14 -13 5 0.2 0.26
-14 -13 -6 3.96 0.52
14 13 -6 3.91 0.38
-14 -13 6 3.88 0.43
-14 -13 -7 0.61 0.36
14 13 -7 0.27 0.21
-14 -13 7 0.04 0.24
14 13 -8 4.18 0.38
-14 -13 -8 4.13 0.53
-14 -13 8 4.35 0.41
-14 13 9 0.33 0.27
-14 -13 -9 1.27 0.35
14 13 -9 0.9 0.2
-14 -13 9 1.16 0.24
-14 -13 -10 1.12 0.33
14 13 -10 0.57 0.18
-14 -13 10 1 0.22
-15 -13 0 18.42 1.17
-15 -13 -1 1.01 0.36
-15 -13 1 1.09 0.35
-15 -13 -2 11.66 0.85
15 13 -2 11.52 0.76
-15 -13 2 11.87 0.83
15 13 -3 2.9 0.35
-15 -13 -3 3.72 0.53
-15 -13 -4 4.54 0.51
15 13 -4 3.83 0.39
15 13 -5 6.16 0.44
-15 -13 -5 5.38 0.53
-15 -13 5 4.21 0.45
-15 -13 5 4.77 0.51
15 13 -6 0.22 0.19
-15 -13 -6 0.6 0.33
-15 -13 6 -0.03 0.24
15 13 -7 4.93 0.39
-15 -13 -7 4.89 0.5
-15 -13 7 4.82 0.44
-15 -13 -8 1.67 0.36
15 13 -8 1.3 0.23
-15 -13 8 1.47 0.26
-16 -13 0 0.58 0.32
-16 -13 -1 7.51 0.63
-16 -13 1 8.29 0.66
-16 -13 -2 4.03 0.48
16 13 -2 3.16 0.34
-16 -13 2 4.66 0.48
16 13 -3 6.47 0.48
-16 -13 -3 6.3 0.57
-16 -13 3 7.04 0.59
-16 -13 -4 5.11 0.53
16 13 -4 5.61 0.43
-16 -13 4 6.46 0.54
16 13 -5 0.48 0.19
-16 -13 -5 0.96 0.35
-16 -13 -6 6.3 0.53
16 13 -6 5.37 0.41
-17 -13 0 1.68 0.36
-17 -13 -1 0.43 0.32
-17 -13 1 0.44 0.32
-17 -13 -2 1.61 0.35
-17 -13 2 1.31 0.35
-17 -13 -3 0.73 0.33
-17 -13 3 0.63 0.32
-17 -13 -4 0.08 0.32
0 14 0 58.81 3.36
0 14 0 57.21 3.35
0 14 -1 0.63 0.27
0 14 1 0.35 0.24
0 14 1 0.92 0.29
0 14 -1 0.33 0.25
0 14 -2 50.01 2.78
0 14 2 46.36 2.75
0 14 2 48.98 2.77
0 14 -2 44.25 2.74
0 -14 2 46.59 2.72
0 14 3 1.63 0.33
0 -14 3 1.36 0.24
0 14 -3 1.42 0.3
0 -14 4 16.76 1.04
0 14 4 15.61 1.11
0 14 -4 15.4 1.1
0 14 -5 5.27 0.61
0 -14 5 5.57 0.54
0 14 5 4.81 0.65
0 14 -6 0.68 0.28
0 14 6 0.84 0.33
0 -14 6 0.85 0.25
0 -14 7 10 0.74
0 14 7 8.13 0.72
0 14 -7 8.93 0.81
0 14 7 8.37 0.83
0 14 8 1.75 0.41
0 14 -8 1.7 0.34
0 -14 8 2.53 0.51
0 14 9 4.61 0.74
0 14 -9 3.99 0.64
0 -14 9 4.87 0.5
0 -14 9 6.08 0.63
0 14 9 6.04 0.64
0 -14 10 5.45 0.64
0 -14 -10 5.7 0.56
0 14 10 4.84 0.8
0 14 10 5.77 0.61
0 -14 10 5.58 0.52
0 -14 11 0.69 0.31
0 14 11 0.89 0.34
0 -14 -11 0.66 0.34
0 -14 11 -0.15 0.24
0 14 11 -0.28 0.36
0 -14 -12 13.91 0.92
0 -14 12 14.24 0.9
0 14 12 13.51 0.96
0 14 13 0.73 0.33
0 -14 13 0.8 0.29
0 -14 -13 0.97 0.31
0 -14 -14 11.78 0.76
0 14 14 11.52 0.8
0 -14 14 11.19 0.74
0 14 15 0.53 0.28
0 -14 -15 0.89 0.25
0 -14 15 0.88 0.25
0 -14 16 3.68 0.33
0 -14 -16 3.8 0.36
1 14 0 -0.06 0.21
-1 14 0 0.01 0.23
1 14 0 0.34 0.28
-1 14 0 0.25 0.25
1 14 -1 24.64 1.57
-1 14 1 24.67 1.55
1 14 -1 22.44 1.55
-1 14 1 26.87 1.56
1 14 1 25.77 1.59
1 14 1 24.96 1.56
-1 14 -1 26.08 1.55
-1 14 -1 25.69 1.57
1 14 -2 6.56 0.65
1 -14 2 6.01 0.53
-1 14 2 6.92 0.66
-1 14 -2 6.44 0.63
-1 14 -2 6.32 0.59
1 14 2 6.35 0.68
1 14 2 5.81 0.61
1 14 -3 14.07 1.06
1 -14 3 17.5 1
-1 14 3 15.8 1.08
1 14 3 15.32 1.1
-1 14 -3 14.69 1.07
-1 14 -3 14.67 1.02
1 -14 4 14.65 0.94
1 14 -4 14.16 1.01
-1 14 4 14.22 1.02
-1 -14 4 11.78 0.91
1 14 4 14.77 1.04
-1 14 -4 14.84 1.01
-1 14 5 2.2 0.36
1 -14 5 2.27 0.42
1 14 -5 1.52 0.3
1 14 5 1.64 0.36
-1 -14 5 2.51 0.43
-1 14 -5 1.47 0.32
-1 14 6 14.85 1.13
1 -14 6 15.91 1.07
1 14 -6 16.45 1.13
1 14 6 15.42 1.17
-1 -14 6 16.63 1.08
-1 14 -6 16.97 1.13
-1 14 7 0.62 0.36
1 -14 7 -0.04 0.23
-1 14 7 -0.12 0.3
1 14 -7 0.08 0.28
1 14 7 0.29 0.36
-1 -14 7 -0.08 0.25
-1 14 -7 -0.13 0.26
1 14 7 -0.21 0.34
-1 14 8 12.23 1.01
1 -14 8 13.01 0.91
1 14 -8 12.04 0.97
1 -14 8 11.09 0.81
-1 14 8 12.72 0.9
-1 -14 8 12.15 0.91
1 14 8 12.15 0.88
-1 14 -8 11.58 0.96
1 14 8 12.47 1.04
-1 14 9 3.64 0.56
-1 -14 -9 2.46 0.42
1 -14 9 3.04 0.55
-1 14 9 1.93 0.44
1 14 -9 2.29 0.37
1 -14 9 2.48 0.41
1 14 9 2.37 0.46
1 14 9 3.47 0.58
-1 14 -9 2.26 0.38
-1 -14 9 1.75 0.35
-1 14 10 4.33 0.8
1 -14 10 6.17 0.65
-1 -14 -10 5.49 0.57
1 -14 10 5.34 0.52
-1 14 10 5.52 0.58
1 -14 -10 5.32 0.55
1 14 10 6.05 0.62
-1 -14 10 5.92 0.53
1 14 10 5.69 0.78
-1 14 11 3.24 0.48
1 -14 11 2.96 0.56
1 -14 11 2.39 0.4
-1 -14 -11 2.72 0.46
1 -14 -11 3.07 0.44
-1 -14 11 2.73 0.42
1 14 11 1.64 0.43
1 14 11 2.54 0.39
-1 -14 -12 2.13 0.43
-1 14 12 1.97 0.39
1 -14 12 2.31 0.35
1 -14 -12 2.29 0.41
-1 -14 12 2.08 0.35
1 14 12 1.81 0.38
-1 -14 -13 4.39 0.46
1 -14 13 4.55 0.45
-1 14 13 3.94 0.54
1 -14 -13 4.61 0.46
1 14 13 4.32 0.51
-1 -14 13 4.09 0.45
-1 -14 -14 1.17 0.3
1 -14 14 1.24 0.27
-1 14 14 1.33 0.33
-1 -14 14 1.27 0.28
1 14 14 1.1 0.32
1 -14 -14 1.05 0.28
1 -14 15 0.1 0.22
-1 14 15 0.14 0.22
-1 -14 -15 0.49 0.26
-1 -14 15 0.03 0.24
1 -14 -15 0.47 0.24
1 14 15 0.23 0.27
1 -14 16 1.87 0.26
-1 -14 -16 1.73 0.29
1 -14 -16 1.74 0.29
-1 -14 16 1.56 0.25
-2 14 0 0.98 0.25
2 14 0 0.68 0.29
2 14 0 1.46 0.29
-2 14 1 0.07 0.22
-2 14 1 -0.39 0.22
2 14 -1 -0.04 0.23
-2 14 -1 -0.17 0.24
-2 14 -1 0.08 0.23
2 14 1 -0.13 0.21
2 14 1 0.07 0.29
-2 14 2 1.1 0.27
2 14 -2 0.8 0.25
2 -14 2 0.97 0.2
-2 14 -2 0.86 0.25
-2 14 -2 1.12 0.3
2 14 2 1.01 0.33
2 14 2 0.9 0.25
2 14 -3 0.68 0.26
-2 14 3 0.7 0.26
2 -14 3 0.83 0.21
-2 14 -3 0.85 0.26
-2 14 -3 0.59 0.28
2 14 3 0.28 0.22
2 14 3 0.67 0.32
-2 14 4 0.55 0.27
2 14 -4 0.49 0.25
2 -14 4 0.53 0.21
-2 14 -4 0.6 0.25
-2 14 -4 0.5 0.29
2 14 4 0.56 0.32
2 -14 5 0.21 0.2
-2 14 5 0.08 0.28
2 14 -5 0.12 0.27
-2 14 5 0.25 0.19
-2 14 -5 -0.03 0.26
-2 14 -5 -0.14 0.18
2 14 5 0.1 0.32
-2 14 6 -0.01 0.28
2 14 -6 -0.02 0.27
-2 14 6 -0.06 0.32
-2 14 6 0.05 0.19
2 -14 6 0.1 0.21
-2 14 -6 -0.1 0.27
-2 -14 6 0.01 0.19
2 14 6 -0.32 0.33
2 -14 7 -0.35 0.26
2 14 -7 -0.03 0.28
-2 14 7 0.27 0.21
-2 14 7 0.02 0.31
-2 14 7 0.99 0.35
2 -14 7 0.15 0.22
2 14 7 0.09 0.35
2 -14 -7 -0.19 0.2
2 14 7 0.88 0.35
-2 14 -7 0.26 0.3
-2 -14 7 -0.08 0.19
2 -14 8 0.07 0.24
-2 14 8 -0.46 0.33
-2 14 8 0.46 0.35
-2 14 8 -0.16 0.17
2 14 -8 -0.24 0.29
2 -14 -8 -0.1 0.26
-2 14 -8 -0.19 0.3
2 14 8 0.41 0.37
-2 -14 8 -0.19 0.2
2 14 8 -0.52 0.35
2 -14 9 0.12 0.26
-2 14 9 -0.62 0.35
2 14 -9 -0.18 0.27
-2 14 9 0.73 0.36
2 -14 9 -0.07 0.3
-2 -14 -9 0.6 0.39
2 -14 -9 0.14 0.27
2 14 9 0.49 0.37
2 14 9 -0.2 0.37
-2 14 -9 -0.34 0.29
-2 -14 -10 0.13 0.36
2 -14 10 0.28 0.28
-2 14 10 0.42 0.34
2 -14 10 -0.2 0.28
2 -14 -10 -0.05 0.32
-2 14 -10 -0.42 0.28
2 14 10 -0.55 0.37
2 -14 -10 -0.01 0.25
2 14 10 0.46 0.36
2 -14 11 0.31 0.29
-2 14 11 0.32 0.35
2 -14 11 0.08 0.28
-2 -14 -11 0.23 0.34
2 14 11 0.17 0.35
2 -14 -11 0.05 0.31
-2 -14 11 0.03 0.31
2 14 11 -0.49 0.36
2 -14 12 1.08 0.3
-2 -14 -12 1.27 0.35
-2 14 12 1.17 0.37
-2 -14 12 0.97 0.32
2 -14 -12 1.18 0.32
2 14 12 0.73 0.35
-2 14 13 0.26 0.34
-2 -14 -13 -0.11 0.3
2 -14 13 0.12 0.26
2 14 -13 0.04 0.21
2 -14 -13 0.18 0.27
2 14 13 0.01 0.3
-2 -14 13 0.02 0.28
-2 -14 -14 0.18 0.26
-2 14 14 -0.02 0.3
2 14 -14 0 0.21
2 -14 14 0.27 0.25
2 -14 -14 0.33 0.25
2 14 14 0.23 0.29
-2 -14 14 0.35 0.26
-2 -14 -15 0.12 0.25
2 -14 15 0.06 0.2
2 -14 -15 -0.07 0.23
2 14 15 -0.35 0.27
-2 -14 15 -0.27 0.22
-2 -14 -16 -0.12 0.24
2 -14 16 0.18 0.2
2 14 16 -0.04 0.21
2 -14 -16 -0.07 0.24
-3 14 0 -0.05 0.22
-3 14 0 -0.13 0.24
3 14 0 -0.06 0.22
-3 14 1 1.35 0.26
3 14 -1 0.91 0.25
-3 14 -1 0.79 0.28
3 14 1 0.94 0.26
3 14 -2 7.3 0.69
-3 14 2 7.29 0.66
3 14 2 6.78 0.73
3 14 2 7.6 0.65
-3 14 -2 7.56 0.65
-3 14 -2 7.16 0.69
3 14 -3 0.13 0.23
3 -14 3 0.34 0.19
-3 14 3 0.27 0.24
3 14 3 0.13 0.32
-3 14 -3 0.17 0.28
-3 14 -3 0.34 0.23
3 14 3 0.09 0.22
3 14 -4 14.47 1.06
3 -14 4 14.63 0.98
-3 14 4 14.24 1.02
-3 14 -4 15.59 1.01
-3 14 -4 15.46 1.07
3 14 4 13.93 1.1
3 -14 5 0.88 0.23
3 14 -5 0.92 0.29
-3 14 5 0.94 0.22
-3 14 5 0.81 0.3
-3 14 -5 1.17 0.27
3 14 5 1.13 0.39
-3 14 -5 0.88 0.3
3 -14 6 11.41 0.82
3 14 -6 12.55 0.95
-3 14 6 11.74 0.91
-3 14 6 12.48 0.81
-3 14 6 10.86 0.8
-3 14 -6 11.8 0.91
3 14 6 10.43 0.99
3 -14 -6 9.82 0.78
-3 14 7 0.08 0.22
3 14 -7 -0.04 0.29
-3 14 7 0.15 0.32
-3 14 7 -0.16 0.32
3 -14 7 0.09 0.21
3 -14 7 -0.32 0.27
3 14 7 -0.3 0.35
-3 14 -7 -0.2 0.29
3 -14 -7 0.11 0.27
3 14 7 0.62 0.37
-3 14 8 15.51 1.16
3 14 -8 15.32 1.13
3 -14 8 15.63 1.08
3 -14 8 16.34 1.01
-3 14 8 15.95 1.07
-3 14 8 14.76 1.05
-3 14 -8 15.83 1.14
3 -14 -8 16.78 1.04
3 14 8 15.72 1.07
3 14 8 16.03 1.22
3 -14 9 0.39 0.3
3 -14 9 0.74 0.28
-3 14 9 0.85 0.38
-3 -14 -9 0.62 0.4
-3 14 9 -0.26 0.37
-3 14 -9 0.1 0.32
3 14 9 1.34 0.4
3 14 9 0.18 0.38
3 -14 -9 0.54 0.31
3 -14 10 2.41 0.38
-3 14 10 1.79 0.45
-3 -14 -10 2.98 0.52
3 14 10 4.22 0.59
3 -14 -10 3.59 0.48
3 -14 -10 2.48 0.44
3 14 10 3.25 0.51
3 -14 11 2.36 0.41
-3 14 11 3.24 0.52
3 -14 11 2.75 0.55
-3 -14 -11 2.78 0.45
3 -14 -11 2.48 0.43
3 14 11 3.18 0.45
3 -14 -11 2.71 0.46
3 -14 12 0.02 0.24
-3 14 12 0 0.36
3 14 -12 0.25 0.22
-3 14 12 1.6 0.36
-3 -14 12 0.55 0.29
3 14 12 1.26 0.34
3 -14 -12 0.09 0.24
3 -14 13 2.13 0.36
3 14 -13 1.86 0.35
-3 14 13 1.82 0.36
-3 -14 -13 2.15 0.38
-3 -14 13 1.65 0.32
3 -14 -13 2.63 0.36
3 14 13 2.16 0.37
-3 -14 -14 0.21 0.27
3 -14 14 0.5 0.24
-3 14 14 -0.39 0.24
3 14 -14 0.4 0.25
-3 -14 14 -0.13 0.25
3 -14 -14 0.27 0.25
3 14 14 0.27 0.29
3 14 -15 -0.13 0.2
-3 -14 -15 0.04 0.25
3 -14 15 0.21 0.21
3 14 15 0.32 0.27
3 -14 -15 0.23 0.24
3 -14 16 0.44 0.2
-3 -14 -16 0.24 0.24
3 14 16 0.14 0.25
3 -14 -16 0.28 0.25
-4 14 0 105.6 6.12
-4 14 0 105.22 6.13
4 14 0 113.74 6.17
4 14 -1 0.43 0.25
-4 14 1 0.6 0.23
-4 14 -1 0.05 0.27
-4 14 -1 0.67 0.23
4 14 1 0.42 0.24
-4 14 2 67.31 3.93
4 14 -2 68.59 3.98
-4 14 -2 70.15 3.96
4 14 2 69.34 3.96
-4 14 -2 67.67 3.92
4 14 -3 1.42 0.31
-4 14 3 1.91 0.29
4 -14 3 2.22 0.36
4 14 3 1.52 0.29
-4 14 -3 2.73 0.46
-4 14 -3 1.66 0.35
4 14 3 0.9 0.38
4 14 -4 13.18 1
4 -14 4 14.21 0.9
-4 14 4 12.54 0.94
-4 14 -4 13.71 0.91
4 14 4 12.28 0.93
4 14 4 11.54 1.04
-4 14 -4 13.51 1
4 -14 5 1.19 0.24
4 14 -5 0.62 0.27
-4 14 5 1.06 0.23
-4 14 5 0.96 0.3
-4 14 5 0.49 0.3
-4 14 -5 1.43 0.28
-4 14 -5 0.73 0.29
4 14 5 0.45 0.39
4 -14 -5 1.03 0.27
4 -14 6 2.57 0.39
-4 14 6 3.57 0.45
4 -14 6 3.61 0.44
-4 14 6 3.06 0.48
-4 14 6 3.2 0.58
4 -14 -6 2.23 0.44
-4 14 -6 3.21 0.63
-4 14 -6 3.48 0.48
4 14 6 2.15 0.46
-4 14 7 4.17 0.5
-4 14 7 2.55 0.43
4 -14 7 3.69 0.43
4 -14 7 3.87 0.48
-4 14 7 3.51 0.5
4 14 7 3.09 0.5
4 14 7 3.17 0.46
4 -14 -7 3.93 0.48
-4 14 -7 3.34 0.63
-4 -14 7 2.63 0.47
-4 14 8 4.95 0.56
4 14 -8 3.83 0.65
4 -14 8 3.88 0.56
-4 14 8 5.09 0.57
4 -14 8 4.3 0.46
-4 -14 -8 5.48 0.59
4 14 8 4.55 0.64
-4 -14 8 4.71 0.53
-4 14 -8 4.5 0.67
4 -14 -8 4.9 0.52
-4 -14 -9 5.72 0.62
-4 14 9 5.37 0.6
4 -14 9 5.59 0.62
4 -14 9 5.05 0.49
-4 14 9 5.18 0.58
-4 -14 9 4.87 0.55
4 14 9 4.31 0.79
4 14 9 4.87 0.65
-4 14 -9 4.68 0.7
4 -14 -9 5.67 0.55
-4 14 10 13.06 0.91
-4 -14 -10 13.89 0.91
4 -14 10 12.21 0.85
4 -14 10 13.15 0.96
4 -14 -10 13.96 0.9
-4 14 -10 10.71 0.99
4 14 10 11.26 1.1
4 14 10 13.28 0.93
4 -14 -10 12.82 0.87
4 -14 11 1 0.3
-4 14 11 0.79 0.35
-4 -14 -11 1.27 0.39
4 -14 11 0.7 0.29
4 -14 -11 0.96 0.32
4 14 11 0.72 0.36
4 -14 -11 0.68 0.32
-4 14 12 10.89 0.77
-4 14 12 9.27 0.75
4 14 -12 10.49 0.72
4 -14 12 10.28 0.71
-4 -14 -12 10.01 0.74
4 -14 -12 10.02 0.71
4 14 12 10.3 0.76
4 -14 -12 10.09 0.75
-4 14 13 0.65 0.37
4 -14 13 0.11 0.24
4 14 -13 -0.05 0.26
-4 -14 -13 0.14 0.29
4 14 13 0.11 0.3
4 -14 -13 0.11 0.26
4 -14 14 5.73 0.43
4 14 -14 5.39 0.44
-4 -14 -14 5.19 0.47
4 14 14 5.08 0.51
4 -14 -14 5.27 0.45
4 -14 15 -0.06 0.2
4 14 -15 -0.04 0.17
-4 -14 -15 -0.33 0.24
4 -14 -15 -0.26 0.24
4 14 15 -0.25 0.26
-5 14 0 0.28 0.22
5 14 0 0 0.22
-5 14 1 30.14 1.81
5 14 -1 29.8 1.86
-5 14 -1 28.85 1.83
5 14 1 30.93 1.86
-5 14 -1 30.11 1.8
5 14 -2 16.93 1.16
-5 14 2 15.74 1.09
-5 14 -2 16.45 1.14
-5 14 -2 16.44 1.07
5 14 2 16.42 1.12
5 14 -3 9.31 0.85
-5 14 3 9.92 0.78
-5 14 -3 11.08 0.75
5 14 3 9.8 0.79
-5 14 -3 8.95 0.83
5 -14 4 21.2 1.34
5 14 -4 22.74 1.46
-5 14 4 20.75 1.37
-5 14 -4 23.2 1.36
5 14 4 21.08 1.37
5 14 4 18.24 1.49
-5 14 -4 22.49 1.42
-5 14 5 1.64 0.34
-5 14 5 1.8 0.34
5 -14 5 1.63 0.27
5 -14 5 1.52 0.29
-5 14 5 1.56 0.26
5 14 5 1 0.41
-5 14 -5 1.58 0.3
-5 14 -5 1.41 0.35
-5 -14 5 1.79 0.32
5 -14 -5 1.32 0.3
5 14 -6 32.57 2.02
-5 14 6 33.43 1.92
5 -14 6 32.09 1.93
5 -14 6 32.9 1.87
-5 14 6 29.35 1.89
-5 14 6 31.29 1.97
-5 14 -6 33.06 1.99
5 -14 -6 32.29 1.9
-5 -14 6 28.53 1.88
-5 14 -6 36.09 1.95
5 14 6 30.72 2.06
5 14 -7 -0.27 0.3
-5 -14 -7 1.06 0.5
5 -14 7 0.37 0.24
-5 14 7 -0.05 0.34
-5 14 7 0.58 0.24
-5 14 7 0.62 0.34
5 -14 7 0.37 0.29
5 14 7 0.23 0.39
-5 14 -7 0.85 0.27
-5 -14 7 0.98 0.32
5 14 7 -0.28 0.38
-5 14 -7 0.03 0.31
5 -14 -7 0.03 0.29
5 -14 8 23.66 1.48
-5 14 8 22.6 1.44
5 -14 8 24.17 1.41
-5 -14 -8 20.95 1.48
-5 14 8 22.49 1.54
-5 14 8 24.47 1.47
-5 -14 8 22.51 1.43
5 14 8 23.37 1.48
5 -14 -8 24.64 1.44
-5 14 -8 24.23 1.53
5 14 8 22.97 1.62
-5 14 9 0.41 0.27
-5 14 9 0.42 0.35
5 -14 9 0.35 0.27
5 -14 9 -0.13 0.28
-5 -14 -9 0.8 0.45
-5 14 -9 -0.1 0.31
5 14 9 -0.57 0.37
-5 -14 9 0.95 0.32
5 14 9 0.48 0.4
5 -14 -9 -0.13 0.29
5 -14 10 6.92 0.57
-5 14 10 6.52 0.64
5 -14 10 6.91 0.68
-5 -14 -10 6.21 0.66
5 14 10 5.9 0.83
5 14 10 6.9 0.7
-5 -14 10 7.96 0.59
5 -14 -10 6.44 0.6
5 -14 11 0.8 0.29
-5 14 11 1.28 0.36
5 14 -11 1.04 0.31
5 -14 11 1.7 0.32
-5 -14 -11 2.19 0.4
5 -14 -11 1.7 0.34
5 -14 -11 1.41 0.35
5 14 11 1.62 0.38
-5 -14 11 1.55 0.32
-5 14 12 1.2 0.37
5 -14 12 0.43 0.26
-5 -14 -12 1.11 0.35
5 14 -12 0.43 0.29
5 14 12 0.6 0.32
5 -14 -12 0.84 0.29
5 -14 -12 0.72 0.31
5 14 -13 3.07 0.39
-5 14 13 3.52 0.43
5 -14 13 3.2 0.36
-5 -14 -13 3.27 0.4
5 -14 -13 2.85 0.39
5 -14 -13 3.95 0.39
5 14 13 2.91 0.39
5 -14 14 0.74 0.23
5 14 -14 0.98 0.25
-5 -14 -14 0.51 0.27
-5 14 14 0.86 0.34
5 14 14 0.51 0.28
5 -14 -14 0.54 0.24
-5 -14 -15 0.9 0.27
5 -14 15 1 0.23
5 14 15 0.45 0.27
5 -14 -15 0.89 0.26
-6 14 0 3.77 0.5
6 14 0 3.85 0.57
-6 14 1 0.1 0.21
6 14 -1 -0.22 0.22
6 -14 1 0.01 0.16
6 14 1 -0.24 0.23
-6 14 -1 0.15 0.21
6 -14 -1 0 0.17
6 -14 2 0.87 0.21
6 14 -2 0.6 0.28
-6 14 2 0.87 0.25
6 14 2 0.73 0.27
-6 14 -2 0.19 0.29
-6 14 -2 1.04 0.24
6 14 -3 6.13 0.7
6 -14 3 5.41 0.43
-6 14 3 5.75 0.61
6 14 3 5.4 0.6
-6 -14 3 4.02 0.51
6 -14 -3 4.1 0.4
-6 14 -3 6.2 0.56
-6 14 -3 5.26 0.68
6 -14 4 0.66 0.21
6 -14 4 1.09 0.26
6 14 -4 0.71 0.33
-6 14 4 0.99 0.3
-6 14 -4 0.96 0.25
6 14 4 0.56 0.26
6 -14 -4 1.05 0.25
-6 -14 4 0.93 0.3
-6 14 -4 0.14 0.32
6 -14 -4 0.74 0.29
-6 14 5 0.61 0.31
-6 14 5 0.33 0.2
6 -14 5 0.27 0.25
-6 14 5 0.98 0.31
6 -14 5 0.35 0.21
6 14 -5 0.08 0.31
-6 14 -5 0.14 0.33
6 14 5 0.21 0.24
6 -14 -5 0.45 0.28
-6 -14 5 1.02 0.3
-6 14 -5 0.57 0.26
6 14 5 -0.11 0.41
-6 -14 -6 1 0.52
-6 14 6 0.53 0.23
6 -14 6 0.3 0.26
-6 14 6 0.86 0.34
-6 14 6 0.28 0.32
6 -14 6 0.62 0.24
6 -14 6 0.09 0.33
6 14 -6 -0.16 0.3
6 14 6 -0.25 0.4
6 -14 -6 0.32 0.29
-6 14 -6 0.87 0.28
-6 14 -6 -0.07 0.33
-6 14 7 1.92 0.36
6 -14 7 1.36 0.29
-6 14 7 1.57 0.28
6 14 -7 0.88 0.34
-6 14 7 1.23 0.38
6 -14 7 1.85 0.32
6 -14 7 0.98 0.35
6 -14 -7 1.51 0.32
6 14 7 0.76 0.44
6 14 7 1.37 0.44
-6 14 -7 1.37 0.38
6 -14 8 -0.17 0.27
6 -14 8 0.09 0.25
-6 14 8 0.56 0.33
6 -14 8 -0.16 0.3
-6 14 8 0.47 0.26
6 14 8 0.21 0.43
6 14 8 -0.68 0.39
6 -14 -8 0.06 0.28
-6 -14 8 0.78 0.32
-6 14 -8 -0.14 0.33
-6 14 -8 0.43 0.2
-6 14 9 1.96 0.38
-6 14 9 1.38 0.3
6 -14 9 1.88 0.32
6 -14 9 1.21 0.31
6 -14 -9 1.47 0.31
6 14 9 1.44 0.41
-6 14 -9 0.97 0.34
6 14 9 0.42 0.41
-6 14 10 2.42 0.4
6 -14 10 1.78 0.34
6 -14 10 2.86 0.4
6 -14 -10 2.48 0.43
6 14 10 3.01 0.45
-6 -14 -11 0.98 0.38
6 -14 11 0.57 0.27
6 14 -11 0.24 0.29
6 -14 11 0.04 0.33
6 14 11 0.31 0.35
6 -14 -11 0.45 0.3
6 -14 -11 0.12 0.29
-6 14 12 4.2 0.47
-6 -14 -12 3.24 0.43
6 -14 12 2.9 0.39
6 14 -12 3.11 0.41
6 14 12 3.22 0.43
6 -14 -12 3.02 0.41
6 -14 -12 3.53 0.41
6 -14 13 0.08 0.22
6 14 -13 -0.04 0.24
-6 -14 -13 -0.05 0.28
-6 14 13 0.55 0.34
6 14 13 -0.1 0.29
6 -14 -13 0.09 0.24
6 -14 -13 0.08 0.25
-6 -14 -14 1.74 0.3
6 14 -14 1.47 0.28
-6 14 14 1.72 0.37
6 -14 14 1.53 0.27
6 14 14 1.23 0.3
6 -14 -14 1.45 0.31
-6 -14 -15 -0.07 0.24
6 -14 15 0.07 0.21
6 14 15 -0.16 0.26
6 -14 -15 0.11 0.25
7 14 0 -0.07 0.24
7 -14 0 -0.03 0.19
-7 14 0 -0.04 0.22
7 14 -1 0.44 0.29
7 -14 1 0.9 0.23
-7 14 1 0.67 0.24
7 14 1 0.29 0.25
-7 14 -1 0.81 0.24
7 -14 -1 0.82 0.22
-7 14 2 0.05 0.24
7 14 -2 -0.01 0.27
7 -14 2 0.02 0.21
-7 14 -2 0.09 0.21
-7 -14 2 -0.27 0.25
7 -14 -2 0.18 0.2
-7 14 -2 -0.38 0.29
7 14 2 -0.22 0.23
7 -14 3 -0.1 0.21
-7 14 3 -0.22 0.26
7 14 -3 -0.01 0.31
7 -14 -3 -0.19 0.26
-7 -14 3 -0.04 0.27
-7 14 -3 0.14 0.22
-7 14 -3 -0.43 0.31
7 -14 -3 0.12 0.21
7 14 3 -0.27 0.24
-7 14 4 1.24 0.33
7 -14 4 1.78 0.28
7 14 -4 1.36 0.39
-7 14 -4 2.46 0.44
7 14 4 1.21 0.3
-7 -14 4 2.2 0.44
7 -14 -4 1.52 0.32
-7 14 -4 0.93 0.37
7 -14 5 2.8 0.36
-7 14 5 3.57 0.47
7 14 -5 2.33 0.43
-7 14 5 3.14 0.62
7 -14 5 3.01 0.47
-7 -14 -5 2.81 0.55
-7 14 -5 2.13 0.42
7 14 5 3.19 0.52
-7 -14 5 3.93 0.49
7 -14 -5 2.78 0.46
7 14 -6 0.62 0.35
7 -14 6 0.83 0.26
-7 14 6 1.69 0.35
7 -14 6 1.5 0.36
7 -14 6 1.3 0.28
-7 14 6 0.56 0.33
-7 14 6 1.22 0.26
-7 14 -6 0.7 0.36
7 -14 -6 1.28 0.31
7 -14 7 0.11 0.25
7 -14 7 0.04 0.26
7 -14 7 0.2 0.33
-7 14 7 -0.53 0.33
-7 14 7 0.23 0.24
-7 14 7 0.8 0.32
7 14 -7 -0.37 0.26
-7 14 -7 0.05 0.34
-7 14 -7 0.56 0.27
7 -14 -7 0.25 0.27
7 14 7 0.42 0.42
7 -14 8 5.74 0.62
-7 14 8 6.17 0.63
7 -14 8 5.76 0.51
7 -14 8 5.49 0.58
-7 14 8 5.8 0.58
7 -14 -8 5.28 0.54
-7 14 -8 4.51 0.76
7 14 8 6.94 0.7
7 -14 9 0.02 0.27
7 14 -9 0.18 0.21
7 -14 9 0.16 0.3
-7 14 9 0.37 0.26
7 -14 9 0.54 0.27
-7 14 -9 -0.1 0.32
7 14 9 0.78 0.41
7 -14 -9 0.69 0.28
7 -14 10 1.72 0.31
7 -14 10 0.92 0.31
7 14 -10 0.92 0.31
7 14 10 1.43 0.39
7 -14 -10 1.26 0.32
7 -14 11 1.45 0.29
-7 -14 -11 2.36 0.48
7 14 -11 1.51 0.31
7 -14 -11 1.32 0.31
7 14 11 1.27 0.38
7 -14 -11 1.18 0.31
-7 -14 -12 0.32 0.32
7 -14 12 0.35 0.24
-7 14 12 0.85 0.32
7 14 -12 0.07 0.25
-7 -14 12 0.66 0.25
7 -14 -12 0.39 0.26
7 14 12 0.42 0.33
7 -14 -12 0.23 0.27
-7 14 13 0.96 0.33
-7 -14 -13 0.96 0.29
7 -14 13 0.73 0.23
7 14 -13 0.93 0.25
7 -14 -13 0.66 0.26
7 14 13 0.39 0.3
7 -14 -13 0.72 0.25
7 -14 14 0.13 0.21
7 14 -14 0.3 0.2
-7 -14 -14 -0.06 0.26
-7 14 14 0.29 0.32
7 -14 -14 0.34 0.24
7 14 14 -0.06 0.27
8 14 0 24.76 1.58
-8 14 0 23.96 1.5
8 -14 0 22.8 1.4
8 -14 1 2.89 0.36
-8 14 1 3.4 0.52
8 14 -1 3.5 0.62
8 14 1 3.43 0.58
8 -14 -1 2.96 0.35
-8 14 -1 3.56 0.5
-8 14 2 7.34 0.7
8 14 -2 7.54 0.83
8 -14 2 7.28 0.54
-8 14 -2 7.44 0.64
8 -14 -2 7.29 0.54
8 14 2 8.09 0.74
-8 -14 2 6.98 0.61
8 14 -3 9.02 0.92
8 -14 3 9.36 0.64
-8 14 3 9.46 0.83
8 -14 -3 10.3 0.63
-8 -14 3 9.23 0.69
8 14 3 9.01 0.8
-8 14 -3 9.61 0.73
-8 14 -3 8.15 0.85
8 -14 -3 8.26 0.72
-8 14 4 0.44 0.21
-8 14 4 0.35 0.33
8 14 -4 0.2 0.35
8 -14 4 0.46 0.24
-8 -14 -4 0.87 0.54
8 -14 -4 0.8 0.31
8 14 4 0.51 0.27
-8 14 -4 0.54 0.24
8 -14 -4 0.94 0.24
-8 14 5 5.73 0.56
-8 14 5 4.46 0.68
8 14 -5 5.09 0.77
8 -14 5 4.86 0.46
-8 14 -5 6.67 0.6
8 14 5 5.32 0.64
-8 -14 5 6.21 0.57
8 -14 -5 5.19 0.55
-8 14 -5 3.92 0.73
8 -14 6 5.78 0.53
-8 14 6 5.41 0.57
-8 14 6 5.71 0.56
-8 14 6 3.77 0.68
8 14 -6 3.86 0.71
8 -14 6 4.8 0.45
-8 -14 6 5.82 0.56
-8 14 -6 4.23 0.76
8 -14 -6 4.97 0.54
-8 -14 -7 6.86 0.76
-8 14 7 4.31 0.55
8 -14 7 5.47 0.48
8 -14 7 4.93 0.55
-8 14 7 5.27 0.58
8 -14 7 5.28 0.61
-8 14 -7 4.13 0.74
8 -14 -7 5.1 0.52
-8 -14 7 6.31 0.58
8 -14 8 3.43 0.48
8 -14 8 2.88 0.39
-8 14 8 3.3 0.52
8 14 8 3.72 0.52
8 -14 -8 2.96 0.46
8 -14 9 5.08 0.46
8 -14 9 4.83 0.53
8 14 -9 4.22 0.49
-8 -14 -9 5.65 0.68
8 -14 -9 4.58 0.51
8 14 9 4.59 0.66
-8 -14 9 5.88 0.54
8 14 -10 15.25 0.91
8 -14 10 13.04 0.88
8 -14 10 13.18 0.89
-8 -14 -10 12.99 0.98
8 14 10 13.82 0.99
-8 -14 10 14.12 0.9
8 -14 -10 13.49 0.91
8 14 -11 0.87 0.29
-8 -14 -11 1.54 0.39
8 -14 11 1.08 0.27
8 14 11 1.03 0.36
8 -14 -11 1.61 0.3
8 14 -12 12.32 0.77
-8 14 12 11.28 0.78
-8 -14 -12 10.88 0.78
8 -14 12 11.49 0.75
8 14 12 12.32 0.84
-8 -14 12 12.04 0.76
8 -14 -12 11.72 0.78
-8 -14 -13 0.4 0.28
8 -14 13 0.25 0.22
8 14 -13 0.23 0.22
-8 14 13 0.47 0.3
8 -14 -13 0.54 0.24
8 -14 -13 0.24 0.21
8 14 13 0.1 0.29
8 -14 14 6.05 0.42
-8 14 14 4.79 0.48
-8 -14 -14 5.82 0.45
8 14 14 5.75 0.51
9 -14 0 -0.06 0.22
-9 14 0 0.24 0.26
9 14 0 0.21 0.29
-9 14 1 47.54 2.83
9 -14 1 48.9 2.74
9 14 1 46.65 2.89
-9 14 -1 46.9 2.82
9 -14 -1 49.98 2.74
-9 14 2 15.94 1.16
9 14 -2 16.78 1.26
9 -14 2 16.06 1
9 14 2 16.4 1.17
-9 14 -2 16.89 1.12
-9 -14 2 15.89 1.05
9 -14 -2 16.19 1
9 -14 3 22.82 1.34
-9 -14 -3 19.44 1.46
9 14 -3 24.42 1.6
-9 14 3 22.82 1.49
-9 -14 3 22.62 1.38
-9 14 -3 18.98 1.49
9 14 3 23.71 1.5
9 -14 -3 24 1.34
-9 14 -3 24.07 1.43
9 -14 -3 22.19 1.42
-9 -14 -4 20.81 1.36
9 -14 4 19.42 1.21
-9 14 4 19.37 1.36
9 14 -4 20.19 1.47
-9 14 4 20.46 1.28
-9 14 -4 21.8 1.3
9 -14 -4 19.41 1.27
-9 14 -4 18.73 1.4
9 14 4 20.15 1.35
-9 -14 4 18.67 1.25
9 -14 -4 20.75 1.2
-9 14 5 1.29 0.28
9 -14 5 1.78 0.28
9 -14 -5 1.71 0.35
-9 -14 5 2.25 0.45
-9 14 -5 1.81 0.32
9 14 5 0.94 0.29
9 -14 6 28.48 1.9
-9 14 6 33.1 1.95
-9 -14 -6 31.93 1.99
-9 14 6 29.98 1.9
9 -14 6 33.96 1.89
-9 14 -6 33.3 2.05
9 -14 -6 33.28 1.93
-9 -14 6 29.55 1.91
-9 14 -6 37.85 1.98
9 -14 7 0.76 0.29
9 -14 7 0.8 0.27
-9 14 7 0.37 0.26
-9 14 -7 0.94 0.28
-9 -14 7 1.27 0.32
9 -14 -7 1.09 0.3
-9 14 8 20.31 1.39
9 -14 8 24.06 1.34
9 -14 8 23 1.35
-9 -14 -8 21.01 1.44
9 14 -8 20.56 1.34
9 14 8 22.68 1.44
-9 -14 8 22.62 1.36
9 -14 -8 23.27 1.37
9 14 -9 0.87 0.3
9 -14 9 1.15 0.29
9 -14 9 0.79 0.29
9 14 9 0.95 0.41
9 -14 -9 0.78 0.27
9 -14 10 4.99 0.49
-9 -14 -10 4.62 0.58
9 -14 10 5.46 0.47
9 14 -10 4.85 0.49
9 -14 -10 5.23 0.49
-9 -14 10 6.19 0.5
9 14 10 5.19 0.62
-9 -14 -11 2.53 0.44
9 14 -11 2.82 0.37
9 -14 11 2.99 0.35
9 14 11 3.17 0.43
-9 -14 11 3.28 0.39
9 -14 -11 2.74 0.37
9 14 -12 0.68 0.23
-9 -14 -12 0.91 0.31
9 -14 12 0.71 0.24
-9 14 12 0.93 0.31
-9 -14 12 0.78 0.24
9 14 12 0.12 0.31
9 -14 -12 0.68 0.24
-9 14 13 3.53 0.38
9 14 -13 2.79 0.3
9 -14 13 3.43 0.33
-9 -14 -13 3.36 0.38
9 14 13 2.56 0.44
10 14 0 43.89 2.69
10 -14 0 44.22 2.52
-10 14 0 43.56 2.61
10 14 -1 0.01 0.31
-10 14 1 -0.2 0.29
10 -14 1 0.01 0.23
-10 -14 -1 0.72 0.49
-10 14 -1 0.31 0.28
-10 -14 1 -0.32 0.25
10 -14 -1 0.05 0.22
10 14 1 -0.01 0.28
10 14 -2 23.1 1.58
-10 -14 -2 21.02 1.43
10 -14 2 21.83 1.32
-10 14 2 22.35 1.46
10 -14 -2 22.12 1.31
10 14 2 22.99 1.5
-10 -14 2 21.44 1.35
-10 14 -2 22.21 1.43
-10 14 3 3.52 0.49
10 -14 3 3.01 0.37
10 14 -3 2.68 0.49
10 -14 -3 3.46 0.55
-10 14 -3 3.61 0.56
10 -14 -3 3.62 0.37
-10 -14 3 2.83 0.47
10 14 3 3.17 0.6
-10 -14 -4 8.53 0.83
10 14 -4 6.16 0.85
-10 14 4 6.94 0.65
10 -14 4 7.07 0.53
-10 14 -4 7.9 0.69
10 -14 -4 6.87 0.65
10 14 4 7.34 0.73
-10 -14 4 5.69 0.6
-10 14 5 0.39 0.3
10 -14 5 0.68 0.25
-10 -14 -5 1.83 0.54
10 14 -5 -0.24 0.38
-10 14 5 0.66 0.25
-10 -14 5 0.87 0.29
-10 14 -5 0.6 0.27
10 -14 -5 0.85 0.32
-10 14 6 2.37 0.47
10 -14 6 1.77 0.34
10 -14 -6 2.07 0.36
-10 -14 6 2.51 0.46
-10 14 -6 3.17 0.53
-10 -14 -7 3.4 0.59
10 -14 7 1.92 0.32
10 -14 7 2.52 0.33
10 14 -7 1.61 0.31
10 -14 -7 2.27 0.35
-10 -14 7 2.55 0.43
10 -14 8 1.09 0.28
10 14 -8 1.68 0.3
10 -14 8 1.2 0.28
10 -14 -8 0.81 0.27
10 14 8 0.08 0.38
-10 -14 8 1.52 0.3
10 14 -9 1.1 0.28
10 -14 9 1.87 0.29
-10 -14 -9 2.11 0.48
10 -14 9 1.08 0.28
-10 -14 9 1.57 0.29
10 14 9 1.31 0.4
10 -14 -9 1.48 0.28
10 14 -10 3.42 0.39
-10 -14 -10 3.26 0.49
10 -14 10 3.15 0.36
10 -14 -10 2.82 0.37
10 14 10 3.21 0.53
-10 -14 10 3.84 0.39
10 14 -11 0.66 0.23
-10 -14 -11 1.05 0.35
10 -14 11 0.81 0.25
-10 -14 11 1.47 0.31
10 -14 -11 0.88 0.25
10 14 11 1.09 0.35
-10 -14 -12 2.17 0.36
-10 14 12 1.94 0.35
10 -14 12 2.36 0.3
10 14 -12 2.48 0.29
-10 -14 12 2.76 0.32
10 14 12 2.39 0.43
-10 14 13 0.42 0.29
10 14 -13 0.27 0.17
-10 -14 -13 -0.05 0.28
10 14 13 0.02 0.3
11 -14 0 -0.07 0.21
-11 14 0 -0.33 0.28
11 14 0 -0.17 0.34
-11 -14 0 1.07 0.46
11 14 -1 0.16 0.35
-11 14 1 -0.02 0.3
11 -14 1 0.45 0.22
11 -14 -1 0.31 0.21
-11 14 -1 -0.08 0.28
11 14 1 0.15 0.32
-11 -14 1 0.43 0.42
11 14 -2 -0.19 0.36
11 -14 2 0.13 0.22
-11 -14 -2 1.13 0.49
11 -14 -2 -0.04 0.21
-11 -14 2 -0.38 0.26
-11 14 -2 -0.1 0.28
11 14 2 -0.1 0.28
11 14 -3 -0.04 0.35
-11 -14 -3 1.5 0.52
-11 14 3 0.34 0.24
11 -14 3 0.35 0.23
11 -14 -3 0.34 0.38
-11 -14 3 0.07 0.28
-11 14 -3 0.11 0.27
11 14 3 0.01 0.27
11 -14 -3 0.44 0.22
11 -14 4 -0.1 0.22
-11 -14 -4 1.19 0.53
-11 14 4 0.24 0.23
11 14 4 -0.12 0.26
-11 14 -4 0.22 0.26
11 -14 -4 -0.07 0.33
-11 -14 4 0.02 0.28
-11 -14 -5 1.14 0.49
11 14 -5 0.2 0.19
11 -14 5 -0.08 0.23
-11 14 5 0.18 0.22
-11 14 -5 0.34 0.25
11 -14 -5 0.21 0.29
-11 -14 5 0.09 0.27
11 -14 6 0.04 0.23
-11 14 6 0.24 0.18
11 14 -6 0.16 0.23
11 -14 -6 0.02 0.27
-11 -14 6 0.66 0.29
-11 14 -6 0.1 0.2
-11 -14 -7 1.2 0.45
11 14 -7 0.16 0.25
11 -14 7 0.35 0.25
11 -14 -7 0.27 0.26
-11 -14 7 0.61 0.28
11 14 -8 0.01 0.24
11 -14 8 0.31 0.25
-11 -14 -8 0.36 0.43
11 -14 -8 0.17 0.24
-11 -14 8 0.32 0.26
11 14 -9 0.07 0.22
11 -14 9 0.38 0.25
-11 -14 -9 0.74 0.42
11 -14 -9 0.16 0.22
-11 -14 9 0.58 0.24
11 -14 10 0.25 0.23
-11 -14 -10 0.6 0.36
11 14 -10 0.08 0.21
11 -14 -10 0.04 0.21
-11 -14 10 0.57 0.23
11 14 10 0.17 0.31
11 -14 11 0.27 0.2
11 14 -11 0.26 0.19
-11 14 11 0.47 0.27
-11 -14 -11 0.41 0.31
11 -14 -11 0.29 0.22
-11 -14 11 0.58 0.21
11 14 11 0.26 0.23
-11 14 12 0.33 0.27
-11 -14 -12 0.12 0.28
11 14 -12 0.21 0.14
-11 -14 12 0.25 0.21
12 -14 0 20.49 1.23
12 14 0 20.75 1.48
-12 -14 0 20.63 1.35
-12 -14 -2 13.75 0.98
12 -14 2 12.51 0.8
12 14 2 12.99 1.03
-12 -14 2 12.43 0.94
-12 -14 2 11.65 0.84
12 -14 -2 12.68 0.8
12 -14 3 1.52 0.27
-12 -14 -3 2.69 0.52
-12 -14 3 1.37 0.32
12 -14 4 4.52 0.42
-12 -14 4 4.56 0.5
12 -14 -4 4.95 0.56
12 -14 5 1.53 0.28
12 -14 -5 1.44 0.35
-12 -14 5 1.37 0.32
12 -14 6 3.25 0.37
12 14 -6 2.76 0.37
-12 -14 -6 4.03 0.62
-12 -14 6 3.24 0.45
12 -14 -6 3.17 0.44
12 -14 7 3.87 0.39
12 14 -7 3.34 0.39
-12 -14 -7 3.8 0.6
-12 -14 7 3.74 0.45
12 -14 -7 3.66 0.43
-12 -14 -8 0.14 0.41
12 14 -8 0.04 0.22
12 -14 8 0.39 0.24
-12 -14 8 0.38 0.25
12 -14 -8 0.3 0.24
12 14 -9 1.78 0.3
12 -14 9 1.9 0.29
-12 -14 -9 2.14 0.41
12 -14 -9 1.9 0.33
-12 -14 9 2.15 0.33
12 14 -10 1.56 0.27
-12 -14 -10 1.65 0.37
-12 -14 10 1.77 0.31
-12 14 11 0.67 0.27
-12 -14 -11 0.65 0.32
-12 -14 11 0.88 0.22
13 -14 0 0.09 0.2
-13 -14 0 1.06 0.43
-13 -14 -1 10.32 0.85
-13 -14 1 10.84 0.83
13 -14 -1 9.58 0.66
-13 -14 -2 4.41 0.65
-13 -14 2 4.68 0.65
13 -14 3 8.99 0.6
-13 -14 -3 9.4 0.79
-13 -14 3 7.72 0.64
-13 -14 3 8.52 0.73
13 -14 4 7.54 0.54
-13 -14 -4 8.4 0.7
-13 -14 4 7.05 0.6
13 -14 5 1.57 0.28
13 14 -5 1.15 0.26
-13 -14 5 1.6 0.32
13 -14 -5 2.32 0.37
13 -14 6 12.27 0.77
13 14 -6 12.26 0.77
-13 -14 -6 11.24 0.88
-13 -14 6 11.06 0.8
13 -14 -6 12.76 0.83
13 14 -7 0.06 0.2
13 -14 7 0.01 0.19
-13 -14 -7 0.43 0.39
-13 -14 7 0.4 0.25
13 -14 -7 0.26 0.25
-13 -14 -8 5.52 0.58
13 14 -8 6.46 0.46
13 -14 -8 7.02 0.52
-13 -14 8 6.1 0.5
-13 -14 -9 1.05 0.37
13 14 -9 0.67 0.2
-13 -14 9 1 0.23
-13 -14 -10 5.06 0.47
-13 14 10 4.24 0.42
-13 -14 10 4.82 0.39
-14 -14 0 9.82 0.8
-14 -14 -1 0.87 0.39
-14 -14 1 1.03 0.4
-14 -14 -2 6.07 0.59
14 -14 2 4.91 0.42
-14 -14 -3 2.47 0.5
14 14 -4 1.28 0.23
-14 -14 4 1.7 0.36
-14 -14 -5 1.78 0.39
14 14 -5 1.08 0.23
-14 -14 5 0.94 0.29
14 14 -6 0.16 0.2
-14 -14 -6 0.96 0.35
-14 -14 6 0.36 0.25
14 14 -7 1.89 0.26
-14 -14 -7 2.68 0.41
-14 -14 7 1.92 0.34
-14 -14 -8 0.82 0.34
-14 -14 8 0.93 0.24
-14 14 9 -0.06 0.24
-14 -14 -9 0.58 0.34
-14 -14 9 0.56 0.22
-15 -14 0 0.55 0.35
-15 -14 -1 1.12 0.38
-15 -14 1 1.91 0.39
-15 -14 -2 0.3 0.34
-15 -14 2 0.9 0.36
-15 -14 -3 1.78 0.38
-15 -14 3 2.12 0.42
15 14 -4 -0.05 0.2
-15 -14 -4 0.92 0.35
-15 -14 -5 0.6 0.34
15 14 -5 -0.09 0.16
-15 -14 -6 0.71 0.35
15 14 -6 0.01 0.17
-15 -14 6 -0.08 0.24
-15 -14 -7 -0.11 0.34
-15 -14 7 -0.04 0.22
-16 -14 0 5.88 0.54
-16 -14 -1 0.67 0.33
-16 -14 1 0.48 0.33
-16 -14 -2 3.36 0.45
-16 -14 2 3.59 0.46
-16 -14 -3 2.18 0.41
-16 -14 -4 1.73 0.37
-16 -14 -5 1.52 0.36
0 15 0 0.1 0.29
0 15 1 0.06 0.29
0 15 1 0 0.24
0 15 -1 0.04 0.26
0 15 -1 0.13 0.28
0 15 2 0.16 0.3
0 15 -2 -0.19 0.25
0 15 2 -0.3 0.22
0 15 3 0.19 0.31
0 -15 3 0.18 0.2
0 15 -3 -0.12 0.26
0 15 4 -0.2 0.31
0 15 -4 -0.11 0.26
0 -15 4 0.16 0.21
0 15 5 -0.33 0.33
0 15 -5 -0.23 0.26
0 15 5 -0.04 0.31
0 -15 5 -0.11 0.22
0 -15 -6 -0.41 0.27
0 15 6 0.51 0.37
0 15 -6 -0.01 0.28
0 -15 6 -0.09 0.24
0 15 6 -0.2 0.32
0 15 7 0.59 0.38
0 -15 -7 -0.42 0.28
0 15 7 -0.47 0.34
0 -15 7 0.04 0.25
0 15 -7 -0.4 0.26
0 15 8 0.5 0.36
0 -15 8 0.1 0.27
0 15 8 -0.42 0.37
0 15 -8 0.1 0.3
0 15 9 -0.51 0.39
0 15 9 0.1 0.34
0 -15 9 -0.27 0.25
0 -15 9 -0.6 0.3
0 15 -9 -0.51 0.28
0 -15 -10 -0.4 0.32
0 15 10 -0.69 0.36
0 -15 10 -0.06 0.26
0 15 10 -0.11 0.33
0 -15 10 -0.33 0.3
0 -15 -11 0.07 0.32
0 -15 11 0.39 0.31
0 15 11 0.43 0.34
0 15 12 0.05 0.33
0 -15 -12 -0.27 0.29
0 -15 12 -0.14 0.27
0 15 13 0.01 0.3
0 -15 13 -0.09 0.26
0 -15 -13 0.04 0.27
0 15 14 -0.11 0.28
0 -15 -14 0.32 0.25
0 -15 14 -0.19 0.24
0 -15 15 0 0.21
0 15 15 0.19 0.25
0 -15 -15 0.12 0.24
-1 15 0 0.16 0.26
1 15 0 0.45 0.3
-1 15 0 0.5 0.28
1 15 0 0.04 0.25
-1 15 1 6.34 0.66
1 15 -1 7.36 0.7
-1 15 1 7.98 0.73
1 15 1 6.85 0.7
1 15 1 7.85 0.76
-1 15 -1 7.87 0.72
-1 15 -1 6.94 0.69
1 15 -2 0.14 0.25
-1 15 2 0.56 0.3
1 15 2 0.37 0.32
1 15 2 0.12 0.24
-1 15 -2 0.45 0.28
-1 15 -2 0.24 0.27
1 -15 3 15.23 1.02
-1 15 3 16.08 1.12
1 15 -3 14.91 1.1
-1 15 -3 15.83 1.1
1 15 3 15.53 1.14
1 15 -4 0.16 0.27
-1 15 4 0.31 0.29
1 -15 4 0.18 0.22
-1 15 -4 0.11 0.27
1 15 4 0.13 0.32
-1 -15 4 0.09 0.17
-1 15 5 12.25 0.98
1 -15 5 13.12 0.89
1 15 -5 13.31 0.97
-1 15 5 11.43 0.87
1 15 5 11.7 1
-1 15 -5 12.87 0.95
1 -15 6 0.08 0.23
-1 15 6 -0.19 0.31
-1 15 6 0.4 0.36
1 15 -6 -0.12 0.28
1 15 6 -0.08 0.35
-1 15 -6 -0.2 0.26
-1 -15 6 0.06 0.19
1 15 6 0.48 0.37
1 15 -7 12.27 0.98
-1 15 7 12.62 0.91
-1 15 7 12.43 1.03
1 -15 7 13.42 0.94
1 15 7 12.28 1.08
-1 15 -7 13.05 0.98
1 -15 -7 12.07 0.87
1 15 7 13.49 0.93
-1 15 8 -0.08 0.38
1 -15 8 -0.29 0.29
1 -15 8 0.37 0.27
1 15 -8 -0.1 0.29
-1 15 8 0.72 0.37
-1 15 -8 0.03 0.29
1 15 8 0.43 0.38
1 -15 -8 0.02 0.29
1 15 8 -0.39 0.37
-1 -15 8 0 0.23
-1 15 9 5.9 0.84
-1 -15 -9 6.17 0.6
1 -15 9 6.45 0.55
1 -15 9 7.18 0.67
-1 15 9 6.74 0.63
1 15 -9 5.03 0.68
-1 15 -9 5.4 0.68
1 15 9 7.1 0.64
1 15 9 6 0.85
1 -15 10 0.12 0.25
-1 -15 -10 0.37 0.34
-1 15 10 0.41 0.33
-1 15 10 -0.56 0.37
1 -15 10 0.05 0.3
-1 -15 10 0.3 0.31
1 15 10 -0.24 0.38
1 -15 -10 0.07 0.32
1 15 10 0.43 0.36
1 -15 -10 -0.02 0.24
1 -15 11 2.89 0.42
-1 -15 -11 2.78 0.45
-1 15 11 3.21 0.42
1 -15 -11 2.92 0.44
1 15 11 3.35 0.44
-1 -15 11 2.41 0.44
-1 15 12 0.72 0.33
-1 -15 -12 0.66 0.32
1 -15 12 0.13 0.28
-1 -15 12 0.45 0.3
1 15 12 0.5 0.34
1 -15 -12 0.72 0.3
1 -15 13 0.26 0.27
-1 15 13 0.19 0.31
-1 -15 -13 0.22 0.28
1 15 13 0 0.31
-1 -15 13 0.11 0.27
1 -15 -13 0.45 0.27
1 -15 14 0.62 0.24
-1 -15 -14 0.88 0.27
-1 15 14 0.52 0.29
-1 -15 14 0.62 0.26
1 -15 -14 0.79 0.26
1 15 14 0.67 0.29
1 -15 15 0.93 0.22
-1 15 15 -0.19 0.27
-1 -15 -15 0.66 0.25
1 -15 -15 0.66 0.25
1 15 15 0.38 0.25
-1 -15 15 0.5 0.22
2 15 0 -0.05 0.25
-2 15 0 -0.05 0.25
-2 15 0 0.26 0.27
2 15 -1 93.89 5.16
-2 15 1 92.59 5.13
-2 15 1 83.23 5.12
-2 15 -1 91.48 5.14
-2 15 -1 92.64 5.12
2 15 1 84.55 5.15
2 15 1 91.4 5.15
-2 15 2 0.31 0.28
2 15 -2 0.01 0.25
-2 15 -2 0.19 0.25
-2 15 -2 0.22 0.26
2 15 2 0.09 0.24
2 15 2 -0.16 0.31
2 -15 3 22.71 1.29
2 15 -3 20.01 1.35
-2 15 3 20.79 1.35
-2 15 -3 21.14 1.32
-2 15 -3 21.05 1.36
2 15 3 19.11 1.39
2 15 3 17.95 1.3
-2 15 4 1.34 0.33
2 -15 4 1.51 0.28
-2 15 4 1.6 0.34
2 15 -4 1.77 0.34
-2 15 -4 1.18 0.29
2 15 4 1.31 0.38
2 -15 -4 1.17 0.28
-2 15 -4 1.7 0.33
-2 15 5 6.95 0.58
2 15 -5 6.62 0.72
-2 15 5 7.43 0.74
2 -15 5 8.75 0.65
-2 15 5 6.95 0.63
2 15 5 6.56 0.8
2 -15 -5 7.08 0.59
-2 15 -5 6.97 0.75
-2 15 6 0.11 0.34
-2 15 6 0.28 0.14
2 -15 6 0.3 0.24
2 15 -6 0.21 0.29
-2 15 6 0.97 0.35
2 15 6 0.05 0.38
2 15 6 0.71 0.38
-2 15 -6 0.24 0.3
2 -15 -6 0.58 0.28
2 -15 7 0.05 0.29
2 -15 7 0.62 0.26
2 15 -7 0.03 0.28
-2 15 7 0.03 0.33
-2 15 7 0.87 0.37
2 15 7 -0.07 0.39
2 -15 -7 0.55 0.3
-2 15 -7 0.26 0.3
2 15 7 0.69 0.38
2 15 -8 0.29 0.29
-2 15 8 1.22 0.38
-2 15 8 0.08 0.37
2 -15 8 0.62 0.28
2 -15 8 0.88 0.32
-2 15 -8 0.4 0.3
2 15 8 0.23 0.39
2 15 8 1.27 0.39
2 -15 -8 0.97 0.32
-2 -15 -9 3.75 0.52
-2 15 9 3.84 0.55
2 -15 9 2.95 0.44
2 -15 9 3.4 0.56
2 15 9 4.85 0.58
-2 15 -9 3.3 0.64
2 -15 -9 3.83 0.49
2 -15 10 0.43 0.28
2 -15 10 0.05 0.27
-2 15 10 0.2 0.32
-2 -15 -10 0.2 0.35
2 15 10 -0.64 0.36
2 15 10 0.3 0.35
2 -15 -10 0.2 0.32
2 -15 -10 0.15 0.32
-2 15 11 16.53 1.09
-2 -15 -11 17.23 1.07
2 -15 11 16.75 1.05
-2 -15 11 15.58 1.05
2 -15 -11 16.85 1.06
2 15 11 17.37 1.11
2 -15 12 -0.26 0.27
-2 -15 -12 0.41 0.32
-2 15 12 0.06 0.33
2 15 12 -0.24 0.3
2 -15 -12 0 0.27
-2 -15 12 -0.22 0.28
2 -15 13 6.85 0.51
-2 15 13 5.95 0.57
-2 -15 -13 6.49 0.53
2 -15 -13 6.2 0.5
2 15 13 6.09 0.56
-2 -15 13 6.15 0.5
-2 15 14 -0.08 0.27
2 -15 14 -0.06 0.22
-2 -15 -14 -0.1 0.25
2 15 14 -0.25 0.27
-2 -15 14 -0.29 0.23
2 -15 -14 -0.21 0.24
-2 -15 -15 5.8 0.46
2 -15 15 6.35 0.44
2 -15 -15 5.99 0.46
2 15 15 5.91 0.5
-3 15 0 -0.11 0.26
3 15 0 0.11 0.26
-3 15 0 0.47 0.26
3 15 -1 9.28 0.78
-3 15 1 9.7 0.77
-3 15 -1 9.66 0.74
-3 15 -1 7.75 0.79
3 15 1 8.2 0.78
3 15 -2 0.61 0.27
-3 15 2 0.92 0.28
3 15 2 0.59 0.25
-3 15 -2 0.46 0.29
3 15 2 0.15 0.34
-3 15 -2 0.67 0.27
3 -15 3 19.8 1.23
-3 15 3 19.51 1.28
3 15 -3 19.23 1.31
-3 15 -3 20.51 1.33
3 15 3 18.1 1.25
-3 15 -3 20.11 1.26
3 15 3 17.56 1.34
-3 15 4 0.42 0.29
3 15 -4 0.08 0.25
-3 15 4 0.63 0.32
3 -15 4 0.3 0.22
3 15 4 -0.1 0.17
-3 15 -4 -0.08 0.28
-3 15 -4 0.61 0.28
3 15 4 0.01 0.36
3 -15 -4 0.31 0.26
-3 15 5 36.56 2.19
3 -15 5 36.78 2.14
-3 15 5 36.35 2.11
-3 15 5 33.17 2.09
3 15 -5 37.84 2.2
-3 15 -5 30.51 2.12
3 -15 -5 36.71 2.1
-3 15 -5 40.04 2.21
3 15 5 34.52 2.23
-3 15 6 -0.06 0.33
3 -15 6 -0.08 0.22
3 15 -6 -0.2 0.27
-3 15 6 0.51 0.33
-3 15 6 0.13 0.21
-3 15 -6 -0.01 0.31
-3 -15 6 0 0.27
3 15 6 0.15 0.38
3 -15 -6 -0.12 0.27
3 -15 7 28.04 1.7
-3 15 7 25.84 1.65
3 15 -7 27.27 1.75
-3 15 7 26.29 1.76
3 -15 7 28.39 1.63
3 15 7 25.39 1.67
3 15 7 27.67 1.82
3 -15 -7 29.62 1.66
-3 15 -7 27.65 1.76
3 15 -8 -0.4 0.28
-3 15 8 0.53 0.36
-3 -15 -8 0.13 0.4
-3 15 8 -0.22 0.36
3 -15 8 0.12 0.26
3 -15 -8 0.02 0.29
3 15 8 -0.26 0.38
3 15 8 0.41 0.39
-3 -15 8 -0.15 0.28
-3 15 -8 0.11 0.31
3 -15 9 12.88 0.95
-3 15 9 13.81 1.02
-3 -15 -9 14.24 0.99
-3 15 9 13.8 1.15
3 -15 9 16.18 1.08
3 -15 -9 17.52 1.01
3 15 9 15.96 1.06
3 15 9 15.54 1.21
-3 15 -9 15.38 1.11
-3 15 10 0.39 0.34
3 -15 10 0.09 0.27
3 -15 10 0.15 0.27
-3 -15 -10 0.56 0.37
3 -15 -10 0.16 0.32
3 15 10 0.28 0.35
3 -15 -10 -0.05 0.32
3 15 10 -0.47 0.36
-3 15 11 5.31 0.59
-3 -15 -11 5.44 0.55
3 -15 11 5.88 0.51
3 -15 -11 5.6 0.51
3 -15 -11 6.15 0.55
3 15 11 4.53 0.61
-3 -15 -12 0.58 0.31
3 -15 12 0.38 0.26
-3 15 12 0.27 0.33
3 15 12 0.36 0.32
3 -15 -12 0.12 0.23
3 -15 -12 0.49 0.27
3 -15 13 0.3 0.24
-3 15 13 -0.19 0.3
-3 -15 -13 0.57 0.29
3 -15 -13 0.61 0.26
3 15 13 0.08 0.29
-3 -15 -14 0.54 0.26
3 -15 14 0.47 0.22
3 15 14 0.53 0.28
3 -15 -14 0.74 0.25
-3 -15 -15 0.22 0.25
3 -15 15 0.44 0.21
3 -15 -15 0.2 0.25
3 15 15 0.36 0.27
-4 15 0 0.16 0.24
4 15 0 0.08 0.24
4 15 -1 6.11 0.66
-4 15 1 6.15 0.61
4 15 1 5.87 0.66
-4 15 -1 6.21 0.59
-4 15 -1 5.19 0.68
4 15 -2 0.76 0.28
-4 15 2 1.02 0.29
-4 15 -2 0.27 0.29
-4 15 -2 0.85 0.28
4 15 2 0.59 0.27
-4 15 3 4.34 0.56
4 15 -3 3.77 0.59
4 -15 -3 3.02 0.43
-4 15 -3 4.54 0.56
4 15 3 3.72 0.57
-4 15 -3 3.1 0.61
-4 -15 3 2.65 0.44
4 -15 4 0.93 0.26
4 15 -4 0.93 0.32
4 -15 4 0.84 0.24
-4 15 4 0.92 0.3
-4 15 4 1.54 0.35
4 -15 -4 0.79 0.28
-4 15 -4 0.91 0.34
-4 -15 4 1.21 0.28
-4 15 -4 0.81 0.28
4 15 4 0.46 0.39
-4 15 5 0.17 0.21
4 -15 5 0.04 0.22
-4 15 5 -0.1 0.29
-4 15 5 0.42 0.33
4 -15 5 -0.19 0.25
4 15 -5 -0.15 0.27
-4 15 -5 -0.26 0.3
4 -15 -5 -0.35 0.26
4 15 5 -0.58 0.39
-4 15 -5 0.3 0.27
-4 -15 5 0.48 0.28
4 -15 6 0.67 0.29
-4 15 6 0.53 0.34
4 15 -6 0.41 0.31
-4 15 6 1.18 0.35
-4 15 6 0.76 0.24
4 -15 6 0.53 0.24
-4 15 -6 0.08 0.21
4 15 6 0.45 0.38
-4 -15 6 1.04 0.3
-4 15 -6 0.21 0.32
4 -15 -6 0.54 0.3
4 15 6 0.07 0.4
-4 15 7 0.52 0.34
4 -15 7 -0.43 0.26
-4 15 7 0.2 0.25
4 -15 7 -0.19 0.23
4 15 -7 -0.42 0.28
-4 15 7 -0.31 0.34
-4 15 -7 -0.22 0.33
-4 -15 7 0.29 0.3
4 -15 -7 -0.28 0.27
4 15 7 0.1 0.38
-4 -15 -8 0.97 0.44
-4 15 8 0.8 0.35
4 15 -8 -0.21 0.28
-4 15 8 -0.33 0.35
-4 15 8 0.11 0.22
4 -15 8 0.11 0.27
4 -15 8 0.38 0.26
-4 -15 8 1.05 0.31
4 15 8 -0.15 0.39
4 -15 -8 0.39 0.29
4 15 8 0.79 0.39
-4 15 -8 -0.17 0.33
4 -15 9 0.29 0.28
4 -15 9 0.12 0.26
-4 15 9 0.57 0.36
-4 -15 -9 0.88 0.4
4 15 9 0.75 0.39
4 -15 -9 0.37 0.3
-4 15 -9 -0.07 0.32
4 15 9 -0.3 0.38
4 -15 10 0.15 0.28
-4 -15 -10 0.42 0.38
-4 15 10 0.49 0.34
4 -15 10 0.2 0.27
4 15 10 -0.67 0.37
4 15 10 0.59 0.37
4 -15 -10 -0.14 0.3
4 -15 -10 -0.23 0.27
-4 -15 10 0.44 0.29
-4 15 11 2.03 0.37
-4 -15 -11 2.28 0.39
4 -15 11 2.26 0.34
4 15 11 1.91 0.38
4 -15 -11 1.77 0.36
4 -15 -11 1.89 0.33
4 -15 12 0.14 0.25
-4 15 12 0.04 0.31
-4 -15 -12 0.23 0.31
-4 15 12 0.08 0.35
4 -15 -12 0.28 0.27
4 15 12 -0.06 0.31
4 -15 -12 0 0.29
4 -15 13 0.81 0.24
-4 -15 -13 0.51 0.29
4 15 13 0.43 0.3
4 -15 -13 0.92 0.26
-4 -15 -14 -0.1 0.25
4 -15 14 -0.11 0.21
4 15 14 -0.07 0.27
4 -15 -14 -0.03 0.23
-4 -15 -15 0.51 0.27
4 -15 15 0.86 0.22
4 -15 -15 0.52 0.26
4 15 15 0.65 0.27
5 15 0 0.73 0.29
-5 15 0 1.15 0.27
5 15 -1 0.04 0.26
5 -15 1 0.2 0.17
-5 15 1 0.07 0.23
-5 15 -1 -0.27 0.27
5 -15 -1 -0.02 0.17
5 15 1 0.07 0.24
-5 15 -1 0.4 0.25
5 -15 2 0.34 0.22
-5 15 2 0.24 0.25
5 15 -2 0.13 0.27
-5 15 -2 0.4 0.24
-5 -15 2 0.26 0.25
5 15 2 0.35 0.26
5 -15 -2 0.07 0.17
-5 15 -2 -0.1 0.3
-5 15 3 5.18 0.61
5 15 -3 4.93 0.65
5 -15 3 4.43 0.42
-5 -15 3 3.78 0.47
-5 15 -3 4.05 0.64
5 -15 -3 3.79 0.49
-5 15 -3 5.42 0.58
5 15 3 4.37 0.61
5 15 -4 0.95 0.32
5 -15 4 1.3 0.27
5 -15 4 1.46 0.27
-5 15 4 0.92 0.31
-5 15 -4 0.79 0.33
-5 -15 4 1.69 0.31
5 -15 -4 1.42 0.27
-5 15 -4 1.48 0.3
5 15 4 0.84 0.28
5 -15 -4 1.06 0.3
-5 15 5 4.11 0.65
5 15 -5 4.54 0.7
-5 15 5 5.3 0.58
-5 15 5 4.96 0.54
5 -15 5 4.97 0.46
5 -15 5 4.88 0.54
-5 -15 5 5.54 0.53
-5 15 -5 4.15 0.7
5 -15 -5 4.29 0.5
5 -15 -5 5.32 0.46
-5 15 -5 5.31 0.58
5 15 -6 -0.37 0.31
-5 15 6 0.2 0.23
5 -15 6 0.1 0.23
-5 15 6 0.23 0.33
-5 15 6 -0.31 0.32
5 -15 6 -0.11 0.26
5 -15 -6 -0.11 0.27
5 15 6 -0.4 0.39
-5 -15 6 0.82 0.3
-5 15 -6 0.31 0.26
-5 15 -6 -0.03 0.33
5 15 -7 5.8 0.75
-5 15 7 5.45 0.79
-5 15 7 6.7 0.62
-5 15 7 6.82 0.61
5 -15 7 6.26 0.64
-5 -15 -7 7.29 0.72
5 -15 7 6.21 0.54
5 -15 -7 6.03 0.59
5 15 7 6.87 0.72
5 15 7 4.47 0.84
-5 -15 7 7.28 0.61
-5 15 -7 7.09 0.79
-5 15 8 0.62 0.34
5 -15 8 0.28 0.26
-5 15 8 0.29 0.25
5 -15 8 -0.33 0.25
-5 -15 -8 0.45 0.44
-5 15 8 -0.52 0.33
5 15 8 0.13 0.4
5 -15 -8 -0.3 0.26
5 15 8 -0.57 0.39
-5 -15 8 0.9 0.31
-5 15 -8 -0.28 0.32
-5 15 9 3.09 0.53
-5 -15 -9 2.66 0.55
5 -15 9 2.42 0.38
5 -15 9 2.87 0.53
5 -15 -9 2.17 0.43
-5 15 -9 1.73 0.39
5 15 9 3.11 0.47
5 -15 10 0.11 0.25
5 -15 10 0.21 0.27
-5 15 10 0.23 0.34
-5 -15 -10 0.3 0.38
5 -15 -10 -0.25 0.3
5 -15 -10 -0.3 0.36
5 15 10 0.2 0.35
-5 15 11 0.9 0.34
-5 -15 -11 1.4 0.37
5 -15 11 0.71 0.27
5 -15 -11 0.84 0.32
-5 -15 11 0.62 0.27
5 15 11 1.04 0.35
5 -15 -11 0.68 0.29
-5 15 12 0.71 0.35
-5 -15 -12 0.88 0.31
5 -15 12 0.35 0.24
5 15 12 0.58 0.31
5 -15 -12 0.85 0.27
5 -15 -12 0.44 0.29
-5 15 13 0.72 0.34
5 -15 13 0.32 0.23
-5 -15 -13 0.38 0.28
5 -15 -13 0.07 0.24
5 -15 -13 0.02 0.24
5 15 13 0.25 0.28
-5 -15 -14 0.18 0.27
5 -15 14 0.31 0.21
5 15 14 0.11 0.27
5 -15 -14 0.29 0.24
6 -15 0 0.01 0.22
6 15 0 -0.12 0.26
-6 15 0 0 0.23
6 -15 1 24.11 1.39
-6 15 1 24.44 1.49
6 15 -1 25.38 1.57
6 -15 -1 24.12 1.39
-6 15 -1 19.65 1.49
-6 15 -1 23.93 1.47
-6 -15 1 22.01 1.41
6 15 1 24.74 1.55
6 -15 2 0.09 0.22
6 15 -2 0.07 0.29
-6 15 2 0.13 0.27
-6 15 -2 0.13 0.24
6 15 2 -0.13 0.26
6 -15 -2 -0.14 0.22
-6 -15 2 0.16 0.26
6 -15 -2 -0.41 0.26
6 -15 3 7.88 0.53
-6 15 3 7.13 0.7
6 15 -3 6.61 0.77
6 -15 -3 6.67 0.61
-6 15 -3 7.82 0.68
-6 15 -3 5.36 0.77
-6 -15 3 7.21 0.6
6 -15 -3 7.83 0.54
6 15 3 6.47 0.7
6 -15 4 4.09 0.42
-6 15 4 3.37 0.64
6 15 -4 3.91 0.67
6 -15 -4 4.05 0.41
-6 15 -4 4.96 0.57
6 -15 -4 3.89 0.5
-6 -15 4 4.39 0.5
6 15 4 3.47 0.59
-6 15 5 5.65 0.55
6 15 -5 4.35 0.72
-6 15 5 4.68 0.67
6 -15 5 5.38 0.57
6 -15 5 5.35 0.45
-6 15 5 5.58 0.59
-6 15 -5 5.76 0.59
6 -15 -5 4.51 0.53
-6 15 -5 3.41 0.7
-6 -15 5 5.28 0.55
-6 -15 -6 2.19 0.55
-6 15 6 0.21 0.35
6 15 -6 0.32 0.35
6 -15 6 0.82 0.27
-6 15 6 0.93 0.26
6 -15 6 0.45 0.26
-6 15 6 1.05 0.34
6 -15 -6 0.73 0.29
-6 15 -6 0.25 0.34
-6 15 -6 1.11 0.29
6 -15 7 0.71 0.28
-6 15 7 1.36 0.35
-6 15 7 0.8 0.26
6 -15 7 0.37 0.27
-6 15 7 -0.03 0.36
6 15 -7 0.09 0.3
6 15 7 0.68 0.43
6 -15 -7 0.68 0.29
-6 15 -7 0.54 0.35
6 -15 8 1.44 0.32
-6 15 8 1.25 0.3
-6 15 8 1.73 0.38
6 -15 8 1.7 0.31
-6 -15 -8 2.31 0.51
6 15 8 1.24 0.44
-6 -15 8 2.49 0.46
6 -15 -8 1.29 0.3
-6 15 9 10 0.74
6 -15 9 9.44 0.66
6 -15 9 7.85 0.76
-6 -15 -9 10.6 0.79
6 -15 -9 7.98 0.69
6 15 9 9.19 0.8
6 -15 10 0.3 0.25
-6 15 10 0.34 0.33
-6 -15 -10 1 0.39
6 -15 10 0.18 0.22
6 -15 -10 0.3 0.29
6 15 10 0.39 0.36
-6 -15 -11 17.05 1.1
6 -15 11 17.1 1.07
6 -15 -11 17.72 1.1
6 15 11 17.89 1.15
-6 -15 11 17.49 1.08
-6 15 12 0.41 0.33
-6 -15 -12 0.18 0.3
6 -15 12 0.05 0.21
6 15 -12 0.2 0.26
6 -15 -12 0.08 0.25
6 -15 -12 -0.05 0.26
6 15 12 0.45 0.32
-6 -15 -13 10.6 0.66
6 -15 13 9.98 0.63
-6 15 13 8.95 0.66
6 -15 -13 9.48 0.65
6 -15 -13 8.34 0.62
6 15 13 10.28 0.71
-6 -15 -14 -0.07 0.26
6 -15 14 0.13 0.21
6 15 14 -0.13 0.27
6 -15 -14 -0.1 0.2
7 15 0 0.03 0.26
-7 15 0 0.34 0.25
-7 -15 0 -0.42 0.23
7 -15 0 0.65 0.23
7 15 -1 2.2 0.4
7 -15 1 2.62 0.35
-7 15 1 2.8 0.55
7 -15 -1 2.86 0.35
-7 15 -1 2.76 0.49
7 15 1 2.14 0.39
-7 -15 1 2.41 0.42
-7 15 2 1.35 0.32
7 -15 2 2.01 0.34
7 15 -2 1.39 0.36
-7 15 -2 1.87 0.31
-7 -15 2 2.45 0.42
7 -15 -2 2.46 0.31
7 -15 -2 1.66 0.36
7 15 2 1.71 0.34
7 15 -3 10.32 0.94
-7 15 3 9.96 0.86
7 -15 3 9.98 0.68
7 15 3 10.14 0.85
-7 15 -3 8.01 0.88
7 -15 -3 9.61 0.76
-7 15 -3 10.38 0.78
7 -15 -3 10.27 0.67
-7 -15 3 9.94 0.73
7 -15 4 0.02 0.23
-7 15 4 0.1 0.21
-7 15 4 -0.01 0.32
7 15 -4 -0.07 0.32
-7 -15 4 0.54 0.29
-7 15 -4 0.16 0.25
-7 15 -4 -0.57 0.31
7 -15 -4 0.04 0.29
7 15 4 0.05 0.26
7 -15 -4 0.25 0.22
-7 15 5 37.49 2.29
-7 15 5 41.54 2.34
-7 -15 -5 33.13 2.35
7 -15 5 40.76 2.28
-7 15 5 38.53 2.4
7 15 -5 42.69 2.47
-7 15 -5 43.96 2.36
-7 15 -5 40.26 2.42
7 -15 -5 40.12 2.32
-7 -15 5 36.85 2.3
-7 -15 -6 6.12 0.69
-7 15 6 4.82 0.57
7 -15 6 4.71 0.48
7 15 -6 4.16 0.72
-7 15 6 6 0.59
-7 15 -6 3.47 0.72
7 -15 -6 4.89 0.53
-7 15 -6 5.89 0.6
-7 -15 6 6.46 0.57
7 -15 7 46.41 2.51
7 -15 7 44.55 2.59
-7 -15 -7 39.81 2.57
-7 15 7 44.21 2.56
-7 15 7 42.29 2.52
7 -15 -7 45.99 2.54
-7 15 -7 43.51 2.62
-7 -15 7 42.08 2.52
7 15 7 42.93 2.57
-7 -15 -8 3.89 0.64
-7 15 8 2.99 0.5
-7 15 8 2.35 0.48
7 -15 8 2.4 0.37
7 -15 8 1.8 0.34
7 -15 -8 2.49 0.44
7 15 8 2.88 0.49
7 -15 9 28.77 1.63
-7 15 9 25.69 1.65
-7 -15 -9 25.97 1.69
7 15 9 28.39 1.71
7 -15 -9 29.42 1.66
-7 -15 9 27.28 1.64
-7 -15 -10 1.21 0.4
7 -15 10 0.34 0.24
7 15 10 0.6 0.37
7 -15 -10 0.18 0.28
-7 -15 10 0.98 0.29
-7 -15 -11 8.17 0.66
-7 -15 11 8.07 0.6
7 -15 -11 8.36 0.61
7 15 11 7.14 0.69
-7 -15 -12 0.59 0.3
7 -15 12 0.31 0.21
-7 15 12 0.36 0.32
7 15 -12 0.26 0.22
7 -15 -12 0.25 0.26
7 15 12 0.19 0.31
-7 -15 12 0.54 0.23
7 -15 13 0.67 0.22
-7 15 13 1.21 0.33
-7 -15 -13 1.2 0.29
7 15 13 0.69 0.3
7 -15 -13 0.99 0.25
-7 15 14 -0.46 0.3
-7 -15 -14 0.36 0.26
7 -15 14 0.59 0.23
7 15 14 0.14 0.29
-8 15 0 -0.03 0.26
8 15 0 -0.07 0.29
8 -15 0 -0.28 0.21
8 -15 1 5.65 0.46
-8 15 1 5.28 0.66
8 15 -1 5.72 0.73
8 15 1 5.49 0.72
8 -15 -1 5.59 0.46
-8 -15 1 5.31 0.53
-8 15 -1 5.64 0.6
8 -15 2 0.65 0.24
-8 15 2 0.35 0.31
8 15 -2 0.41 0.35
8 -15 -2 0.43 0.33
8 15 2 0.22 0.28
8 -15 -2 0.94 0.25
-8 15 -2 0.66 0.28
-8 -15 2 0.61 0.28
8 15 -3 3.77 0.73
-8 15 3 3.66 0.67
8 -15 3 4 0.41
-8 -15 3 3.97 0.48
-8 15 -3 4.63 0.58
8 -15 -3 4.57 0.4
8 -15 -3 4.08 0.55
8 15 3 4.27 0.62
8 -15 4 1.65 0.28
-8 15 4 1.32 0.27
8 15 -4 1.11 0.4
-8 15 4 1.11 0.38
8 -15 -4 2.14 0.29
-8 15 -4 1.69 0.31
8 15 4 1.17 0.31
8 -15 -4 1.84 0.35
-8 -15 4 2.4 0.44
-8 15 5 0.65 0.26
8 -15 5 0.87 0.26
-8 15 5 1.22 0.35
-8 15 5 0.01 0.33
8 15 -5 0.21 0.36
-8 15 -5 0.97 0.29
8 -15 -5 0.8 0.31
-8 -15 5 1.33 0.31
-8 15 6 1.03 0.34
-8 15 6 0.58 0.26
8 -15 6 0.55 0.26
-8 15 -6 0.77 0.29
-8 -15 6 1.15 0.31
8 -15 -6 0.37 0.29
-8 15 7 0.54 0.33
8 -15 7 0.23 0.24
-8 15 7 0.34 0.25
-8 15 -7 -0.32 0.32
8 15 7 -0.29 0.31
-8 15 -7 0.16 0.2
8 -15 -7 0.14 0.27
8 -15 8 0.98 0.27
-8 15 8 0.73 0.33
-8 15 8 0.29 0.22
8 15 8 0.46 0.4
8 -15 -8 0.63 0.28
8 -15 9 3.72 0.41
8 15 9 4.14 0.61
8 -15 -9 3.82 0.46
8 15 -10 0.27 0.2
8 -15 10 0.38 0.24
-8 -15 -10 0.9 0.4
8 15 10 0.57 0.37
8 -15 -10 0.36 0.26
-8 -15 10 0.81 0.27
8 -15 11 5.19 0.44
-8 -15 -11 5.24 0.51
8 15 11 5.69 0.56
8 -15 -11 5.1 0.47
-8 -15 11 6.17 0.48
-8 -15 -12 0.07 0.3
8 -15 12 0.32 0.22
-8 15 12 0.2 0.3
8 -15 -12 0.11 0.24
8 15 12 0.22 0.31
-8 -15 12 0.39 0.22
-8 15 13 3.5 0.41
8 -15 13 3.31 0.32
-8 -15 -13 3.15 0.37
8 15 13 2.85 0.44
9 15 0 1.35 0.35
-9 -15 0 0.97 0.28
-9 15 1 -0.27 0.28
9 15 -1 -0.14 0.3
9 -15 1 -0.01 0.22
-9 -15 1 -0.22 0.26
9 -15 -1 0.13 0.22
-9 15 -1 -0.16 0.27
9 15 1 0.12 0.29
9 15 -2 1.24 0.39
-9 15 2 0.83 0.36
9 -15 2 2.14 0.29
-9 15 -2 1.43 0.32
9 -15 -2 1.53 0.38
-9 -15 2 1.89 0.33
9 -15 -2 2.39 0.3
9 15 -3 0.39 0.36
-9 15 3 -0.03 0.34
9 -15 3 0.55 0.24
-9 -15 3 0.72 0.3
9 -15 -3 0.36 0.35
-9 15 -3 0.49 0.28
9 -15 -3 0.55 0.24
9 15 3 0.6 0.3
9 15 -4 -0.28 0.33
-9 -15 -4 1.35 0.54
-9 15 4 -0.52 0.32
-9 15 4 0.05 0.23
9 -15 4 -0.34 0.22
9 15 4 0.04 0.24
-9 15 -4 0.29 0.27
9 -15 -4 0.09 0.22
-9 -15 4 0.2 0.27
9 -15 -4 0.23 0.32
-9 15 5 0.86 0.26
9 -15 5 0.83 0.25
-9 15 5 0.77 0.34
-9 -15 5 1.13 0.3
-9 15 -5 0.87 0.29
9 -15 -5 0.84 0.32
-9 15 6 0.58 0.33
-9 -15 -6 1.68 0.53
9 -15 6 0.62 0.24
-9 15 6 0.41 0.24
-9 15 -6 0.66 0.26
9 -15 -6 0.51 0.3
-9 -15 6 0.95 0.3
-9 15 7 0.94 0.34
9 -15 7 1.2 0.27
-9 -15 -7 1.82 0.52
9 -15 -7 1.3 0.32
-9 -15 7 1.73 0.32
-9 -15 -8 1.42 0.49
9 -15 8 0.24 0.24
-9 -15 8 0.66 0.27
9 -15 -8 0.25 0.26
9 15 8 0.32 0.36
9 15 -9 0.24 0.2
9 -15 9 0.4 0.24
-9 -15 -9 0.75 0.44
-9 -15 9 0.9 0.27
9 15 9 0.41 0.38
9 -15 -9 0.26 0.25
9 -15 10 0.49 0.24
-9 -15 -10 0.86 0.38
9 15 -10 0.28 0.18
9 15 10 0.32 0.34
9 -15 -10 0.3 0.24
9 15 -11 0.3 0.2
9 -15 11 0.11 0.22
-9 -15 -11 0.14 0.32
-9 -15 11 0.35 0.23
9 15 11 0.18 0.32
9 -15 -11 -0.02 0.23
-9 15 12 1.01 0.3
-9 -15 -12 0.87 0.3
9 -15 12 0.67 0.23
9 15 12 0.72 0.32
9 -15 -12 0.54 0.23
9 -15 13 0.36 0.2
-9 -15 -13 -0.04 0.28
-9 15 13 0.49 0.29
9 15 13 0.5 0.3
10 -15 0 0.02 0.21
10 15 0 0.11 0.32
-10 15 0 -0.17 0.28
-10 15 1 42.1 2.59
10 15 -1 44 2.68
10 -15 1 44.33 2.48
-10 15 -1 42.7 2.58
-10 -15 1 41.43 2.5
10 -15 -1 43.8 2.48
10 15 1 44.87 2.66
10 15 -2 1.01 0.37
-10 15 2 0.76 0.36
10 -15 2 1.3 0.26
-10 15 -2 1.16 0.32
10 15 2 1.01 0.33
-10 -15 2 1.37 0.32
10 -15 -2 1.62 0.27
10 15 -3 12.48 1.15
10 -15 3 14.44 0.9
-10 -15 -3 15.33 1.12
-10 15 3 13.81 0.99
10 -15 -3 14.85 1.01
10 15 3 14.14 1.08
-10 15 -3 14.25 1.03
-10 -15 3 13.47 0.94
10 -15 -3 14.81 0.89
10 -15 4 0.22 0.23
10 15 -4 -0.2 0.29
-10 15 4 0.28 0.24
10 15 4 -0.01 0.21
10 -15 -4 0.3 0.33
-10 15 -4 0.27 0.27
-10 -15 4 0.37 0.28
-10 15 5 6.61 0.61
10 -15 5 6.87 0.52
-10 -15 -5 7.41 0.79
-10 15 5 5.29 0.61
-10 15 -5 7.5 0.65
-10 -15 5 6.44 0.59
10 -15 -5 6.71 0.61
-10 15 6 0.31 0.31
10 -15 6 0.9 0.26
-10 15 6 0.41 0.21
-10 -15 -6 1.57 0.51
10 -15 -6 0.79 0.31
-10 -15 6 1.12 0.3
-10 -15 -7 1.18 0.46
10 -15 7 0.16 0.24
-10 -15 7 0.68 0.28
10 -15 -7 0.17 0.26
10 -15 8 0.75 0.25
-10 -15 -8 1.43 0.45
-10 -15 8 0.94 0.27
10 -15 -8 0.47 0.25
10 -15 9 3.29 0.36
-10 -15 -9 3.63 0.51
-10 -15 9 3.98 0.4
10 -15 -9 3.25 0.39
-10 -15 -10 0.76 0.37
10 15 -10 0.3 0.18
10 -15 10 0.38 0.23
-10 -15 10 0.66 0.23
10 15 10 0.15 0.33
10 -15 -10 0.3 0.22
10 -15 11 5.96 0.45
-10 -15 -11 5.63 0.51
-10 15 11 5.59 0.47
-10 -15 11 5.91 0.45
10 15 11 5.72 0.53
10 -15 -11 5.78 0.46
10 -15 12 0.44 0.2
-10 15 12 0.56 0.29
-10 -15 -12 0.3 0.28
-10 -15 12 0.39 0.21
10 15 12 0.27 0.22
11 15 0 0.78 0.35
-11 -15 0 2.36 0.51
11 -15 0 1.48 0.25
11 -15 1 2.96 0.32
11 15 -1 2.27 0.45
-11 15 -1 1.9 0.35
-11 -15 1 2.41 0.41
11 15 1 1.93 0.38
11 -15 -1 3.14 0.33
-11 15 2 3.62 0.45
11 15 -2 2.28 0.45
11 -15 2 2.96 0.35
11 15 2 3.52 0.62
11 -15 -2 3.38 0.35
-11 -15 2 3.35 0.44
-11 15 -2 2.66 0.52
11 -15 3 17.56 1.06
-11 -15 -3 18.05 1.21
-11 -15 3 17.59 1.11
11 -15 -3 18.17 1.18
-11 15 -3 15.36 1.16
11 -15 4 1.83 0.29
-11 -15 4 1.83 0.33
11 -15 -4 1.81 0.38
11 -15 5 32.56 1.78
-11 15 5 27.5 1.79
-11 -15 -5 29.24 1.87
11 -15 -5 33.39 1.84
-11 -15 5 30.13 1.81
11 -15 6 0.98 0.26
11 -15 -6 1.04 0.3
-11 -15 6 1.22 0.31
-11 -15 -7 20.75 1.43
11 -15 7 24.27 1.36
11 -15 -7 24.35 1.39
-11 -15 7 22.31 1.38
11 15 -8 0.2 0.18
11 -15 8 0.43 0.25
-11 -15 -8 0.96 0.41
11 -15 -8 0.35 0.24
-11 -15 8 0.85 0.25
11 -15 9 17.55 1.04
-11 -15 -9 15.5 1.1
11 -15 -9 18.76 1.05
-11 -15 9 16.15 1.03
11 -15 10 0.51 0.24
-11 -15 -10 0.63 0.34
11 -15 -10 0.45 0.22
-11 -15 10 0.72 0.22
-11 15 11 4.28 0.41
-11 -15 -11 4.58 0.45
-11 -15 11 4.41 0.39
-12 -15 -1 18.98 1.22
12 -15 1 18.1 1.08
12 -15 -1 18.27 1.08
-12 -15 1 16.01 1.19
-12 -15 -2 1.23 0.48
12 -15 2 0.06 0.22
-12 -15 2 -0.11 0.26
12 -15 -2 0.38 0.21
-12 -15 -3 7.92 0.76
12 -15 3 6.89 0.52
-12 -15 3 6.67 0.59
12 -15 4 1.42 0.26
-12 -15 4 1.29 0.31
12 -15 -4 1.79 0.37
12 -15 5 2.93 0.36
-12 -15 -5 3.83 0.57
12 -15 -5 3.34 0.47
-12 -15 5 3.08 0.44
12 -15 6 0.69 0.24
-12 -15 6 1.27 0.29
12 -15 -6 0.66 0.29
12 -15 7 0.51 0.24
-12 -15 -7 0.62 0.41
12 -15 -7 0.58 0.26
-12 -15 7 0.69 0.26
12 -15 8 0.54 0.24
-12 -15 -8 1.08 0.38
12 -15 -8 0.52 0.24
-12 -15 8 0.97 0.24
12 -15 9 1.13 0.24
-12 -15 -9 1.83 0.37
12 -15 -9 1.39 0.29
-12 15 10 0.26 0.27
-12 -15 -10 0.03 0.33
-12 -15 10 0.43 0.21
13 -15 0 0.24 0.2
-13 -15 0 1.27 0.43
-13 -15 -1 0.77 0.43
-13 -15 1 1.31 0.43
13 -15 2 0.13 0.2
-13 -15 -2 1.13 0.43
-13 -15 2 -0.32 0.37
-13 -15 -3 0.84 0.42
13 -15 3 0.06 0.21
-13 -15 3 -0.36 0.24
-13 -15 -4 0.67 0.4
13 -15 4 0.11 0.2
-13 -15 4 0.01 0.25
13 -15 -4 0.01 0.27
13 -15 5 0.01 0.22
-13 -15 -5 0.82 0.39
-13 -15 5 0.06 0.25
13 -15 -5 0.08 0.29
-13 -15 -6 0.52 0.38
13 -15 6 0.04 0.22
-13 -15 6 0.05 0.25
13 -15 -6 -0.06 0.26
-13 -15 -7 0.36 0.37
13 -15 7 0.05 0.2
13 -15 -7 -0.3 0.25
-13 -15 7 0.05 0.23
-13 -15 -8 0.04 0.34
-13 -15 8 0.12 0.21
13 -15 -8 -0.33 0.25
-13 -15 -9 0.12 0.32
-13 -15 9 0.4 0.21
-14 -15 0 1.03 0.39
14 -15 1 15.24 0.9
-14 -15 -1 14.76 1.02
-14 -15 1 14.48 1
14 -15 2 0.1 0.2
-14 -15 -2 0.53 0.37
-14 -15 2 0.37 0.36
-14 -15 -3 3.99 0.52
14 -15 3 3.76 0.35
14 -15 4 -0.08 0.19
-14 -15 -4 0.51 0.37
-14 -15 4 -0.29 0.23
-14 -15 -5 1.55 0.38
-14 -15 5 0.64 0.26
-14 -15 -6 0.52 0.35
-14 -15 6 0.19 0.24
-14 -15 -7 0.16 0.36
-14 -15 7 0.12 0.23
-14 -15 -8 -0.31 0.32
-14 -15 8 0.3 0.21
-15 -15 0 1.33 0.38
-15 -15 -1 3.18 0.5
-15 -15 1 2.92 0.48
-15 -15 -2 0.69 0.36
-15 -15 -3 10.57 0.76
-15 -15 -4 0.75 0.35
-15 -15 -5 12.57 0.85
-15 -15 -6 0.13 0.34
-16 -15 0 -0.1 0.32
-16 -15 -1 10.54 0.74
-16 -15 -2 -0.61 0.34
-16 -15 -3 2.06 0.42
0 16 0 109.43 6.38
0 16 0 114.95 6.39
0 16 -1 1.14 0.34
0 16 1 0.84 0.29
0 16 -1 1.52 0.33
0 -16 -1 1.31 0.28
0 16 1 1.71 0.37
0 16 2 67.37 3.75
0 -16 -2 59.54 3.65
0 16 -2 65.88 3.74
0 16 3 5.91 0.74
0 -16 -3 5.08 0.49
0 16 -3 6.6 0.68
0 16 4 7.05 0.68
0 -16 -4 8.83 0.62
0 16 4 8.38 0.86
0 16 -4 8.08 0.78
0 16 5 3.65 0.7
0 -16 -5 3.95 0.48
0 16 5 5.78 0.64
0 16 -5 4.46 0.65
0 16 6 0.73 0.4
0 16 -6 0.58 0.32
0 16 6 1.63 0.39
0 -16 6 0.49 0.23
0 -16 -7 2.75 0.47
0 16 -7 1.88 0.37
0 16 7 2.76 0.49
0 16 -8 1.45 0.35
0 -16 8 2.1 0.37
0 16 8 1.08 0.45
0 16 9 0.93 0.38
0 -16 -9 -0.11 0.21
0 16 9 -0.34 0.39
0 16 -9 -0.48 0.27
0 -16 9 0.02 0.31
0 16 10 24.4 1.49
0 -16 -10 24.06 1.48
0 -16 10 24.91 1.47
0 -16 -11 0.12 0.31
0 16 11 0.56 0.34
0 -16 11 0.11 0.28
0 16 12 15.5 1.01
0 -16 -12 15.17 0.97
0 -16 12 15.4 0.96
0 -16 -13 1.06 0.27
0 16 13 0.87 0.3
0 -16 13 0.82 0.27
0 16 14 4.91 0.48
0 -16 -14 6.16 0.44
0 -16 14 5.21 0.42
0 16 15 0 0.19
-1 16 0 -0.32 0.26
1 16 0 -0.39 0.3
-1 -16 0 -0.21 0.22
1 16 0 -0.31 0.26
-1 16 0 0.21 0.31
1 16 -1 2.11 0.36
-1 16 1 3.25 0.62
-1 16 1 2.18 0.35
-1 -16 -1 1.91 0.36
1 16 1 2.12 0.4
1 -16 -1 2.17 0.31
-1 16 -1 3.01 0.59
-1 16 -1 3.4 0.61
1 16 1 2.39 0.37
-1 -16 1 2.68 0.33
1 16 -2 8.56 0.76
-1 16 2 8.91 0.82
-1 -16 -2 7.58 0.61
1 16 2 8.74 0.83
1 -16 -2 7.48 0.61
-1 16 -2 8.41 0.77
-1 16 -2 8.05 0.76
1 16 2 7.08 0.71
-1 -16 -3 3.78 0.43
-1 16 3 2.6 0.4
-1 16 3 4.73 0.66
1 16 3 4.79 0.7
-1 16 -3 4.91 0.64
-1 -16 3 3.08 0.38
1 -16 -3 4.09 0.43
-1 16 4 17.18 1.15
-1 16 4 17.96 1.27
1 16 -4 18.93 1.26
-1 -16 -4 17.38 1.11
1 -16 4 17.94 1.18
1 16 4 16.91 1.28
1 -16 -4 17.98 1.12
-1 16 -4 18.08 1.24
1 16 -5 1.01 0.33
-1 16 5 1.76 0.39
-1 -16 -5 0.86 0.29
1 -16 5 0.86 0.28
-1 16 5 0.75 0.37
-1 16 -5 0.9 0.32
1 16 5 1.72 0.4
1 -16 -5 1.36 0.31
1 16 5 0.48 0.39
1 -16 6 14.34 1.01
1 16 -6 14.52 1.07
-1 16 6 14.21 1.11
-1 16 6 13.92 1
1 16 6 13.43 1.13
1 -16 -6 14.27 0.95
-1 16 -6 14.11 1.09
1 16 6 13.9 1.02
-1 16 7 -0.17 0.37
1 16 -7 0.04 0.31
-1 16 7 1.2 0.39
1 -16 7 0.38 0.27
1 -16 7 -0.24 0.31
1 16 7 -0.01 0.4
-1 16 -7 0.14 0.31
1 -16 -7 0.24 0.31
1 16 7 0.97 0.38
-1 16 8 8.01 0.96
1 -16 8 8.94 0.79
1 -16 8 10.25 0.72
1 16 -8 9.39 0.85
-1 16 8 9.94 0.77
1 16 8 11 0.83
1 -16 -8 11.52 0.76
-1 16 -8 9.57 0.86
1 16 8 9.1 0.99
1 -16 9 2.71 0.38
-1 16 9 3.46 0.54
-1 -16 -9 2.23 0.4
1 16 9 3.78 0.57
1 16 9 1.35 0.46
1 -16 -9 2.53 0.45
-1 -16 -10 4.07 0.49
-1 16 10 4.51 0.52
1 -16 10 4.08 0.45
1 16 10 4.3 0.58
1 -16 -10 3.5 0.49
-1 -16 10 3.37 0.48
1 -16 11 0.92 0.3
-1 -16 -11 1.04 0.33
-1 16 11 1.45 0.35
1 16 11 1.29 0.35
1 -16 -11 0.82 0.32
-1 -16 11 0.92 0.32
-1 -16 -12 0.41 0.29
1 -16 12 0.26 0.27
-1 16 12 0.45 0.31
-1 -16 12 0.28 0.27
1 16 12 0.21 0.32
1 -16 -12 0.44 0.28
-1 16 13 0.37 0.29
1 -16 13 0.33 0.25
-1 -16 -13 0.29 0.26
1 16 13 0.27 0.29
-1 -16 13 0.24 0.25
1 -16 -13 0.54 0.26
-1 16 14 0.21 0.27
-1 -16 -14 0.33 0.24
1 -16 14 0.45 0.22
-1 -16 14 0.2 0.21
1 -16 -14 0.47 0.24
1 16 14 0.43 0.27
-1 -16 -15 0.03 0.27
1 -16 15 -0.02 0.19
1 -16 -15 0.26 0.25
-2 16 0 2.17 0.37
-2 -16 0 2.21 0.32
2 16 0 1.99 0.35
-2 16 0 1.63 0.34
2 16 -1 -0.11 0.25
-2 -16 -1 -0.28 0.23
-2 16 1 0.22 0.3
-2 16 -1 0.1 0.3
2 16 1 -0.12 0.26
-2 -16 1 -0.29 0.23
-2 16 -1 -0.17 0.27
2 -16 -1 -0.11 0.24
-2 -16 -2 1.09 0.27
2 16 -2 0.96 0.29
-2 16 2 1.19 0.33
-2 16 -2 1.34 0.34
2 -16 -2 1.36 0.3
2 16 2 0.64 0.27
-2 16 -2 1.13 0.33
-2 -16 2 1.09 0.28
2 16 2 0.75 0.37
-2 16 3 0.84 0.34
-2 -16 -3 -0.08 0.24
-2 16 3 0.36 0.32
2 16 -3 0.15 0.27
2 -16 -3 0.29 0.26
-2 16 -3 0.14 0.29
-2 -16 3 0.22 0.26
2 16 3 0.18 0.36
-2 16 -3 0.2 0.29
-2 16 4 0.7 0.34
-2 16 4 -0.02 0.32
2 16 -4 -0.14 0.26
2 -16 4 -0.08 0.23
-2 -16 4 0.01 0.27
-2 16 -4 -0.39 0.28
2 -16 -4 -0.35 0.26
2 16 4 -0.34 0.36
2 -16 5 1.14 0.29
-2 16 5 2.22 0.39
-2 16 5 0.76 0.37
2 16 -5 1.32 0.35
2 -16 -5 1.5 0.32
2 16 5 1.97 0.43
-2 16 -5 0.85 0.32
-2 -16 5 1.5 0.32
2 16 5 0.52 0.41
-2 16 6 0.61 0.35
-2 16 6 -0.37 0.34
2 -16 6 -0.5 0.28
2 -16 6 -0.01 0.25
2 16 -6 -0.28 0.29
-2 16 -6 -0.22 0.29
2 -16 -6 -0.39 0.28
2 16 6 0.6 0.38
-2 -16 6 0 0.28
2 -16 7 0.17 0.26
-2 16 7 1.17 0.36
2 16 -7 0.2 0.31
-2 16 7 -0.03 0.37
2 -16 7 0.1 0.3
-2 16 -7 0.43 0.32
2 -16 -7 0.14 0.3
2 16 7 -0.27 0.41
2 16 7 1.06 0.4
-2 -16 7 0.33 0.3
2 -16 8 -0.17 0.25
-2 16 8 0.46 0.34
2 16 -8 -0.42 0.28
-2 16 8 -0.65 0.37
-2 16 -8 -0.28 0.29
2 16 8 0.18 0.37
2 -16 -8 -0.22 0.29
-2 16 9 0.62 0.33
2 -16 9 0.16 0.25
-2 -16 -9 0.34 0.35
2 -16 9 0.19 0.29
2 -16 -9 0.03 0.3
2 16 9 -0.39 0.38
-2 16 -9 -0.11 0.29
2 16 9 0.46 0.36
2 -16 10 -0.06 0.28
-2 -16 -10 -0.02 0.33
-2 16 10 0.24 0.32
2 -16 -10 -0.28 0.3
2 16 10 0.04 0.34
2 -16 -10 0.01 0.31
-2 -16 -11 0.08 0.32
-2 16 11 0.09 0.32
2 -16 11 -0.16 0.26
2 16 11 -0.11 0.32
2 -16 -11 0.14 0.29
2 -16 -11 -0.11 0.25
2 -16 12 -0.11 0.24
-2 -16 -12 -0.09 0.28
-2 16 12 -0.15 0.31
2 16 12 -0.15 0.29
2 -16 -12 -0.06 0.26
-2 16 13 -0.09 0.29
2 -16 13 -0.2 0.21
-2 -16 -13 -0.19 0.26
2 -16 -13 -0.05 0.23
2 16 13 -0.08 0.27
-2 16 14 -0.09 0.23
2 -16 14 -0.05 0.21
-2 -16 -14 -0.12 0.25
2 -16 -14 0.02 0.24
2 16 14 -0.23 0.26
-3 16 0 0.06 0.28
-3 -16 0 -0.25 0.23
3 16 0 -0.35 0.26
-3 16 1 0.61 0.29
-3 -16 -1 0.25 0.25
3 16 -1 0.21 0.26
3 -16 -1 0.37 0.28
-3 16 -1 0.34 0.29
-3 -16 1 0.06 0.25
-3 16 -1 0.22 0.29
3 16 1 0.25 0.26
-3 -16 -2 2.16 0.32
-3 16 2 2.77 0.39
3 16 -2 1.79 0.33
-3 -16 2 2.36 0.33
-3 16 -2 2.5 0.39
-3 16 -2 2.41 0.37
3 -16 -2 2.59 0.35
3 16 2 1.87 0.34
3 16 -3 2.57 0.39
-3 16 3 2.36 0.38
-3 16 -3 2.09 0.38
3 16 3 2.28 0.45
3 -16 -3 2.29 0.42
-3 16 -3 3.41 0.56
-3 -16 3 3.01 0.42
3 16 -4 12.07 0.94
-3 16 4 11.62 0.95
-3 16 4 11.66 0.82
3 -16 4 11.99 0.85
3 -16 4 10.31 0.74
-3 -16 4 10.91 0.78
-3 16 -4 11.54 0.95
3 -16 -4 11.25 0.8
-3 16 -4 10.86 0.85
3 16 4 10.12 1.03
-3 16 5 0.5 0.33
3 -16 5 0.49 0.29
-3 16 5 0.56 0.22
-3 16 5 1.18 0.36
3 16 -5 0.56 0.32
3 -16 5 0.48 0.26
3 -16 -5 0.4 0.29
3 16 5 0.06 0.37
3 16 5 -0.37 0.4
-3 16 -5 0.14 0.31
-3 -16 5 0.82 0.29
-3 16 6 7.35 0.67
-3 16 6 7.55 0.84
3 -16 6 8.74 0.71
3 16 -6 7.86 0.79
3 -16 6 7.54 0.59
-3 16 -6 7.66 0.82
3 16 6 7.83 0.72
3 16 6 6.21 0.93
-3 -16 6 7.49 0.65
3 -16 -6 7.96 0.64
-3 16 7 -0.07 0.37
3 -16 7 -0.36 0.27
3 16 -7 -0.3 0.3
3 -16 7 0.18 0.26
-3 16 7 0.61 0.35
3 16 7 -0.54 0.4
3 -16 -7 -0.19 0.27
-3 16 -7 -0.33 0.32
-3 -16 7 0.26 0.29
3 16 7 0.31 0.39
3 -16 8 8.2 0.65
-3 -16 -8 8.85 0.71
-3 16 8 8.09 0.9
-3 16 8 8.08 0.72
3 -16 8 9.46 0.77
3 16 -8 8.19 0.8
3 -16 -8 9.3 0.69
3 16 8 10.11 0.8
-3 -16 8 9.28 0.68
3 16 8 8.59 0.95
-3 16 -8 9.11 0.83
3 -16 9 0.05 0.26
-3 -16 -9 0.68 0.37
-3 16 9 0.75 0.34
3 -16 9 -0.06 0.26
3 16 9 -0.67 0.38
3 -16 -9 0.04 0.3
3 16 9 0.37 0.37
-3 -16 9 0.19 0.28
-3 16 -9 -0.36 0.28
3 -16 10 3.91 0.42
-3 16 10 4.25 0.54
-3 -16 -10 4.05 0.5
3 -16 -10 4.3 0.5
3 16 10 4.15 0.58
3 -16 11 0.18 0.26
-3 16 11 0.41 0.32
-3 -16 -11 0.48 0.33
3 -16 -11 0.02 0.29
3 -16 -11 0.47 0.28
3 16 11 0.52 0.33
3 -16 12 0.96 0.27
-3 16 12 1.24 0.34
-3 -16 -12 1.61 0.34
3 16 12 1.07 0.33
3 -16 -12 1.45 0.28
3 -16 13 0.17 0.22
-3 16 13 0.04 0.28
-3 -16 -13 0.3 0.27
3 16 13 -0.03 0.28
3 -16 -13 0.34 0.25
-3 -16 -14 -0.05 0.26
3 -16 14 0.05 0.2
3 16 14 -0.09 0.25
3 -16 -14 0.11 0.21
-4 16 1 0.16 0.28
4 -16 1 0.05 0.17
4 16 -1 -0.05 0.26
-4 -16 -1 -0.04 0.24
4 16 1 -0.12 0.26
-4 -16 1 0.15 0.25
-4 16 -1 0.03 0.26
4 -16 -1 -0.31 0.27
-4 16 -1 -0.31 0.27
4 -16 2 25.18 1.57
4 16 -2 27.36 1.74
-4 16 2 27.24 1.69
-4 -16 2 24.99 1.59
-4 16 -2 28.27 1.68
-4 16 -2 27.64 1.72
4 -16 -2 26.52 1.62
4 16 2 27.92 1.71
-4 16 3 5.9 0.7
4 16 -3 6.55 0.72
4 -16 3 5.92 0.49
-4 16 -3 6.93 0.68
-4 16 -3 5.52 0.76
4 16 3 5.67 0.66
4 -16 -3 5.54 0.55
-4 -16 3 5.6 0.53
-4 16 4 7.17 0.64
-4 16 4 6.49 0.76
4 16 -4 6.2 0.75
4 -16 4 7.74 0.55
4 -16 -4 6.55 0.6
-4 16 -4 8.07 0.72
-4 -16 4 7.05 0.6
-4 16 -4 5.81 0.8
4 -16 5 3.09 0.38
-4 16 5 4.07 0.51
-4 16 5 2.55 0.43
4 16 -5 1.95 0.39
4 -16 5 2.43 0.51
-4 16 -5 2.92 0.44
4 -16 -5 3 0.46
4 16 5 2.33 0.49
4 -16 6 2.16 0.35
-4 16 6 2.27 0.38
4 -16 6 2.47 0.35
-4 16 6 2.11 0.44
-4 16 6 1.51 0.42
4 -16 -6 2.76 0.38
4 16 6 2.18 0.45
-4 -16 6 2.31 0.45
4 16 -7 2.48 0.4
-4 16 7 1.74 0.42
4 -16 7 2.48 0.38
4 -16 7 3.08 0.53
-4 -16 -7 2.78 0.47
-4 16 -7 1.95 0.4
4 16 7 4.1 0.62
4 16 7 2.21 0.49
4 -16 -7 2.67 0.43
-4 16 8 -0.27 0.36
-4 16 8 0.97 0.35
4 -16 8 0.4 0.26
4 -16 8 0.32 0.27
-4 16 -8 0.24 0.32
4 16 8 0.94 0.39
4 16 8 -0.48 0.39
4 -16 -8 0.64 0.28
-4 -16 -9 2.98 0.43
-4 16 9 3.23 0.42
4 -16 9 2.25 0.33
4 -16 9 1.43 0.32
4 -16 -9 2.25 0.38
-4 16 10 8.02 0.68
-4 -16 -10 8.65 0.66
4 -16 10 7.88 0.59
-4 -16 10 7.58 0.6
4 16 10 8.42 0.72
4 -16 -10 8.06 0.65
4 -16 11 1.82 0.31
-4 -16 -11 1.26 0.35
-4 16 11 1.37 0.35
4 16 11 1.22 0.35
4 -16 -11 1.08 0.32
-4 16 12 8.91 0.68
4 -16 12 9.53 0.63
-4 -16 -12 9.16 0.66
4 -16 -12 8.31 0.62
4 -16 -12 9.03 0.65
4 16 12 9.65 0.71
-4 -16 -13 -0.03 0.27
4 -16 13 0.18 0.22
4 -16 -13 0.06 0.22
4 16 13 -0.16 0.27
4 -16 14 4.85 0.37
-4 -16 -14 4.35 0.41
4 16 14 4.52 0.45
-5 -16 0 0 0.25
5 -16 0 -0.05 0.23
-5 16 0 0.21 0.26
5 16 0 -0.09 0.27
-5 -16 -1 6.44 0.55
5 16 -1 6.54 0.73
-5 16 1 6.82 0.67
5 -16 1 6.65 0.5
5 -16 -1 6.49 0.51
-5 16 -1 6.46 0.66
5 16 1 6.14 0.71
5 -16 -1 5.32 0.58
-5 -16 1 6.08 0.53
5 16 -2 1.13 0.35
-5 16 2 1.31 0.32
5 -16 2 1.65 0.29
-5 16 -2 0.81 0.35
-5 16 -2 1.9 0.33
5 -16 -2 1.71 0.35
5 -16 -2 1.84 0.29
5 16 2 1.16 0.33
-5 -16 2 1.64 0.3
5 -16 3 1.17 0.28
5 16 -3 0.52 0.31
-5 16 3 0.97 0.33
5 -16 -3 1.01 0.31
5 16 3 0.52 0.29
-5 -16 3 1.19 0.29
-5 16 -3 1.28 0.32
5 -16 -3 1.1 0.27
5 -16 4 11.97 0.78
-5 16 4 11.63 0.86
-5 16 4 11.07 0.94
5 16 -4 11.71 1.01
-5 -16 4 11.09 0.81
-5 16 -4 10.63 1
5 -16 -4 12.28 0.77
5 -16 -4 11.42 0.83
-5 16 -4 12.85 0.9
5 -16 5 0.01 0.26
5 16 -5 0.02 0.33
-5 16 5 0.42 0.25
-5 16 5 -0.03 0.33
-5 16 5 0.51 0.33
5 -16 -5 0.36 0.29
-5 16 -5 0.33 0.28
-5 16 -5 -0.31 0.34
-5 -16 5 1.01 0.29
-5 16 6 10.69 0.81
5 16 -6 11.29 0.96
5 -16 6 11.41 0.86
5 -16 6 10.13 0.74
-5 16 6 10.29 0.97
-5 16 6 11.82 0.82
-5 -16 6 11.28 0.78
5 16 6 10.37 0.88
5 -16 -6 10.45 0.79
-5 16 -6 11.98 0.97
5 -16 7 -0.18 0.23
-5 -16 -7 0.89 0.44
5 -16 7 -0.19 0.26
5 16 -7 -0.27 0.28
-5 16 7 0.32 0.22
-5 16 7 0.45 0.33
5 -16 -7 -0.17 0.25
5 16 7 0.19 0.4
-5 -16 7 0.58 0.29
-5 -16 -8 9.19 0.75
5 -16 8 8.76 0.63
5 -16 8 8.67 0.74
-5 16 8 9.08 0.72
-5 16 -8 7.57 0.84
5 -16 -8 7.82 0.66
5 16 8 9.33 0.79
5 -16 9 1.57 0.31
-5 16 9 2.03 0.38
-5 -16 -9 2.3 0.44
5 16 9 1.72 0.42
5 -16 -9 1.16 0.33
-5 16 10 6.41 0.61
-5 -16 -10 6.73 0.61
5 -16 10 6.55 0.53
5 -16 -10 6.43 0.58
-5 -16 10 6.65 0.55
5 16 10 6.72 0.66
-5 16 11 1.12 0.33
5 -16 11 1.32 0.26
-5 -16 -11 1.44 0.34
5 -16 -11 1.24 0.32
5 16 11 1.45 0.34
-5 16 12 1.52 0.35
5 -16 12 1.42 0.25
-5 -16 -12 2 0.34
5 -16 -12 1.41 0.3
5 16 12 0.77 0.32
-5 -16 -13 0.87 0.29
5 -16 13 1.06 0.23
5 16 13 0.93 0.3
5 -16 14 0.52 0.21
-5 -16 -14 0.3 0.26
5 16 14 0.35 0.28
-6 -16 0 4.95 0.5
-6 16 0 5.21 0.63
6 -16 0 5.11 0.45
6 16 0 4.06 0.69
6 -16 1 -0.02 0.24
-6 -16 -1 -0.23 0.25
6 16 -1 -0.08 0.29
-6 16 1 0.02 0.27
-6 -16 1 0.19 0.26
-6 16 -1 0.03 0.25
6 -16 -1 0.02 0.24
6 -16 -1 -0.42 0.3
6 16 1 -0.2 0.29
6 16 -2 6.24 0.76
-6 16 2 6.54 0.7
6 -16 2 6.78 0.51
-6 -16 2 6.57 0.57
6 -16 -2 6.49 0.63
6 16 2 6.62 0.76
-6 16 -2 6.34 0.65
6 -16 -2 6.48 0.52
6 16 -3 1.47 0.38
-6 16 3 1.45 0.36
6 -16 -3 2.21 0.38
-6 16 -3 0.64 0.36
6 -16 -3 2.1 0.3
-6 16 -3 1.5 0.31
6 16 3 1.08 0.33
-6 16 4 1.06 0.26
6 16 -4 0.63 0.37
6 -16 4 1.28 0.28
-6 16 4 1.1 0.36
-6 16 4 1.53 0.34
6 -16 -4 1.04 0.27
6 -16 -4 0.89 0.32
-6 -16 4 1.15 0.3
-6 16 -4 0.92 0.31
6 16 -5 1.48 0.38
6 -16 5 2.29 0.35
-6 16 5 1.53 0.39
-6 16 -5 1.56 0.41
6 -16 -5 2.56 0.44
-6 16 -5 2.88 0.54
-6 16 6 0.33 0.31
-6 16 6 0.33 0.25
6 -16 6 0.01 0.23
-6 -16 -6 1.32 0.51
6 16 -6 -0.37 0.31
6 -16 -6 -0.04 0.28
-6 -16 6 0.46 0.29
-6 16 -6 -0.16 0.21
6 -16 7 0.39 0.26
6 -16 7 0.16 0.27
-6 16 7 0.99 0.33
-6 16 7 0.62 0.24
6 -16 -7 0.51 0.29
6 16 7 1.11 0.44
-6 16 -7 -0.19 0.34
-6 16 8 0.57 0.33
6 -16 8 0.08 0.24
6 -16 8 0.01 0.27
-6 -16 -8 0.93 0.43
-6 -16 8 0.65 0.29
6 16 8 0.17 0.4
6 -16 -8 0.02 0.28
-6 -16 -9 0.66 0.41
6 -16 9 0.11 0.22
6 -16 9 0.28 0.23
-6 16 9 0.57 0.34
-6 -16 9 0.83 0.29
6 -16 -9 -0.07 0.28
6 16 9 0.49 0.38
-6 16 10 1 0.33
6 -16 10 1.23 0.26
-6 -16 -10 1.45 0.38
6 16 10 1.64 0.38
6 -16 -10 1.07 0.31
-6 16 11 -0.52 0.29
-6 -16 -11 0.02 0.32
6 -16 11 0.19 0.22
6 -16 -11 0.02 0.26
-6 -16 11 0.59 0.24
6 16 11 0.13 0.33
-6 -16 -12 1.13 0.31
6 -16 12 1.19 0.24
-6 16 12 1.1 0.34
6 -16 -12 0.84 0.28
6 16 12 1.16 0.33
-6 -16 -13 -0.29 0.26
6 -16 13 0.12 0.21
6 16 13 -0.21 0.28
6 -16 -13 -0.01 0.26
-7 16 0 -0.13 0.26
7 -16 0 -0.23 0.22
7 16 0 -0.28 0.28
-7 -16 0 -0.42 0.26
-7 16 1 -0.01 0.28
7 16 -1 -0.08 0.3
-7 -16 -1 -0.12 0.26
7 -16 1 -0.13 0.23
-7 -16 1 0.08 0.27
-7 16 -1 0.09 0.25
7 16 1 0.02 0.29
7 -16 -1 -0.32 0.35
7 -16 -1 -0.06 0.22
7 16 -2 1.29 0.37
7 -16 2 2.06 0.29
7 16 2 1.13 0.34
7 -16 -2 2.28 0.3
-7 16 -2 1.96 0.34
7 -16 -2 1.61 0.39
-7 -16 2 1.95 0.33
-7 16 3 -0.17 0.31
7 -16 3 -0.11 0.23
7 16 -3 -0.09 0.31
-7 16 -3 -0.21 0.26
7 16 3 -0.11 0.27
7 -16 -3 -0.1 0.31
7 -16 -3 0 0.22
-7 -16 3 0.22 0.27
7 16 -4 9.83 0.96
7 -16 4 9.52 0.67
-7 16 4 9.58 0.91
-7 16 4 10.8 0.79
7 -16 -4 8.57 0.65
7 -16 -4 10.2 0.76
-7 16 -4 11.29 0.81
-7 -16 4 9.84 0.72
-7 16 -4 8.05 0.89
-7 16 5 -0.22 0.34
7 16 -5 0.3 0.34
-7 16 5 1.02 0.33
-7 16 5 0.37 0.26
7 -16 5 0.48 0.25
7 -16 -5 0.47 0.3
-7 -16 5 1.1 0.3
-7 16 -5 -0.29 0.35
-7 16 -5 0.79 0.29
-7 16 6 5.78 0.59
-7 16 6 5.66 0.61
7 -16 6 5.53 0.5
-7 -16 -6 7.28 0.74
7 -16 -6 5.9 0.57
-7 16 -6 4.15 0.77
-7 -16 6 6.93 0.57
7 -16 7 1.29 0.28
-7 16 7 1.69 0.36
7 -16 -7 1.23 0.31
7 16 7 1.09 0.45
-7 16 8 5.27 0.58
7 -16 8 4.97 0.46
-7 -16 -8 5.24 0.66
7 16 8 5.81 0.67
-7 -16 8 6.1 0.53
7 -16 -8 4.84 0.52
-7 16 9 1.3 0.35
7 -16 9 1.15 0.27
-7 -16 -9 1.62 0.42
7 -16 -9 1.03 0.3
7 16 9 1.4 0.4
7 -16 10 0.77 0.25
-7 -16 -10 1.42 0.38
-7 16 10 0.45 0.31
7 -16 -10 1.3 0.3
7 16 10 0.9 0.37
-7 -16 10 1.75 0.34
-7 -16 -11 0.96 0.33
7 -16 11 0.7 0.23
7 16 11 0.53 0.32
7 -16 -11 0.36 0.25
-7 16 12 0.35 0.31
7 -16 12 0.04 0.2
-7 -16 -12 0.17 0.32
7 -16 -12 0 0.24
7 16 12 0.08 0.3
7 -16 13 0.58 0.21
-7 16 13 0.11 0.29
-7 -16 -13 0.46 0.29
7 16 13 0.41 0.3
7 -16 -13 0.09 0.2
-8 -16 0 42.47 2.44
8 16 0 43.81 2.6
-8 16 0 41.55 2.52
8 -16 0 40.88 2.42
8 -16 1 2.68 0.32
-8 -16 -1 2.15 0.33
-8 16 1 1.43 0.35
8 16 -1 2.1 0.42
8 16 1 1.34 0.35
8 -16 -1 1.85 0.4
-8 -16 1 2.34 0.42
-8 16 -1 1.77 0.33
8 -16 -1 2.23 0.3
8 16 -2 36.95 2.33
8 -16 2 38.74 2.13
-8 16 2 37.74 2.24
-8 16 -2 38.51 2.22
8 16 2 36.83 2.28
-8 -16 2 33.96 2.14
8 -16 -2 33.74 2.11
8 -16 -2 37.87 2.2
-8 16 3 5.95 0.74
8 16 -3 6.39 0.81
8 -16 3 6.25 0.51
-8 16 -3 7.26 0.68
8 16 3 7.25 0.72
8 -16 -3 5.31 0.47
8 -16 -3 7.01 0.63
-8 -16 3 5.58 0.56
-8 16 4 5.33 0.58
8 16 -4 4.24 0.78
-8 16 4 3.6 0.72
8 -16 4 5.85 0.45
-8 -16 -4 5.54 0.73
8 -16 -4 4.58 0.43
8 -16 -4 5.81 0.57
-8 -16 4 4.87 0.52
-8 16 -4 6.02 0.64
-8 16 5 1.96 0.33
-8 16 5 2.42 0.38
8 -16 5 2.56 0.33
-8 -16 5 3.1 0.45
8 -16 -5 2.67 0.4
8 -16 6 0.21 0.23
-8 16 6 0.47 0.24
-8 16 6 0.64 0.33
-8 -16 -6 1.74 0.51
8 -16 -6 0.19 0.28
-8 -16 6 0.76 0.29
8 -16 7 1.25 0.26
-8 16 7 1.52 0.34
8 -16 -7 0.89 0.3
8 -16 8 5.04 0.46
-8 16 8 4.97 0.55
-8 -16 -8 6.8 0.67
8 -16 -8 5.06 0.53
8 16 8 5.88 0.66
-8 -16 8 6.48 0.53
8 -16 9 0.36 0.23
-8 -16 -9 0.57 0.39
-8 16 9 -0.45 0.29
8 -16 -9 0.21 0.25
8 16 9 0.41 0.37
-8 -16 9 0.78 0.26
8 -16 10 6.21 0.49
-8 -16 -10 6.56 0.57
-8 -16 10 7.27 0.53
8 16 10 6.99 0.63
8 -16 -10 6.27 0.53
8 -16 11 0.07 0.21
-8 -16 -11 0.1 0.32
8 -16 -11 0.06 0.23
-8 -16 11 0.46 0.23
8 16 11 -0.11 0.32
-8 -16 -12 7.45 0.56
8 -16 12 7.46 0.52
-8 16 12 7.44 0.56
8 16 12 7.88 0.61
8 -16 -12 7.76 0.54
9 16 0 -0.07 0.3
9 -16 0 0.31 0.22
-9 -16 0 0 0.27
-9 16 0 -0.16 0.28
-9 16 1 5.47 0.74
9 16 -1 6.75 0.81
9 -16 1 6.82 0.51
-9 -16 1 6.54 0.58
-9 16 -1 6.25 0.69
9 16 1 6.91 0.79
9 -16 -1 6.61 0.5
9 16 -2 1.64 0.41
9 -16 2 2.22 0.29
-9 16 2 1.02 0.37
9 -16 -2 1.86 0.41
-9 -16 2 1.91 0.33
9 -16 -2 1.86 0.32
-9 16 -2 1.58 0.33
9 16 -3 0.9 0.37
-9 -16 -3 2.09 0.52
-9 16 3 0.34 0.36
-9 16 3 1.1 0.27
9 -16 3 1.55 0.27
-9 16 -3 1.12 0.31
9 -16 -3 1.88 0.38
9 16 3 0.89 0.3
-9 -16 3 1.51 0.31
9 -16 4 13.5 0.84
-9 16 4 13.63 0.94
-9 -16 -4 14.28 1.03
-9 16 4 12.39 0.88
-9 -16 4 11.9 0.88
9 -16 -4 13.44 0.93
-9 16 -4 13.41 0.95
-9 16 5 0.41 0.24
-9 -16 -5 1.68 0.52
9 -16 5 0.57 0.24
-9 16 5 0.32 0.33
-9 16 -5 0.07 0.23
-9 -16 5 1.01 0.29
9 -16 -5 0.4 0.31
-9 16 6 10.36 0.78
-9 -16 -6 10.39 0.9
9 -16 6 11.12 0.71
-9 -16 6 11.18 0.77
9 -16 -6 10.86 0.77
9 -16 7 0.06 0.22
-9 16 7 -0.14 0.3
-9 -16 -7 0.76 0.47
9 -16 -7 0.17 0.26
-9 -16 7 0.29 0.26
9 -16 8 7.95 0.57
-9 -16 -8 7.54 0.73
9 -16 -8 8.08 0.6
-9 -16 8 7.91 0.61
-9 -16 -9 0.89 0.4
9 -16 9 0.28 0.22
9 16 9 0.62 0.34
-9 -16 9 0.83 0.24
-9 -16 -10 4.58 0.5
9 -16 10 5.25 0.41
9 16 10 4.58 0.54
-9 -16 10 5.4 0.44
9 -16 -10 4.92 0.45
-9 16 11 0.87 0.3
-9 -16 -11 0.49 0.3
9 -16 11 0.68 0.22
9 -16 -11 0.52 0.23
9 16 11 0.6 0.33
-9 -16 -12 1.05 0.34
-9 16 12 0.98 0.3
9 -16 12 0.48 0.23
9 -16 -12 1 0.23
9 16 12 0.43 0.28
-10 16 0 3.76 0.61
10 -16 0 5.04 0.4
-10 -16 0 3.99 0.49
10 16 0 4.6 0.73
10 16 -1 0.1 0.33
10 -16 1 0.06 0.21
10 -16 -1 0.25 0.21
-10 16 -1 -0.04 0.28
10 16 1 0.13 0.32
-10 -16 1 0.26 0.28
10 16 -2 5.9 0.79
-10 -16 -2 5.3 0.73
10 -16 2 6.31 0.48
-10 -16 2 6.2 0.55
10 -16 -2 6.26 0.67
10 16 2 5 0.7
-10 16 -2 5.12 0.65
10 -16 -2 6.52 0.47
-10 16 3 0.7 0.24
-10 -16 -3 1.95 0.5
10 -16 3 0.88 0.25
10 -16 -3 0.9 0.22
-10 16 -3 0.23 0.27
-10 -16 3 0.85 0.3
10 -16 -3 0.8 0.37
-10 16 4 1.49 0.35
10 -16 4 1.93 0.29
-10 -16 -4 3.54 0.69
10 -16 -4 2.04 0.39
-10 -16 4 2.11 0.42
10 -16 5 1.93 0.32
-10 -16 -5 2.94 0.53
-10 16 5 1.52 0.35
10 -16 -5 1.83 0.36
-10 -16 5 2.25 0.42
-10 -16 -6 1.2 0.48
-10 16 6 0 0.3
10 -16 6 0.4 0.23
-10 -16 6 0.53 0.27
10 -16 -6 0.38 0.28
-10 -16 -7 2.36 0.49
10 -16 7 1.74 0.31
10 -16 -7 1.34 0.3
-10 -16 7 2.26 0.39
-10 -16 -8 1.21 0.41
10 -16 8 0.57 0.24
-10 -16 8 1.03 0.25
10 -16 9 1.22 0.25
-10 -16 -9 1.18 0.38
-10 -16 9 1.84 0.3
10 -16 -9 1.08 0.25
10 -16 10 1.57 0.28
-10 -16 -10 1.94 0.36
10 -16 -10 1.55 0.31
-10 -16 10 2.06 0.3
-10 16 11 1.15 0.3
-10 -16 -11 0.51 0.32
10 -16 11 0.45 0.23
10 -16 -11 0.61 0.23
-10 -16 11 0.83 0.22
11 -16 0 0 0.19
11 16 0 -0.05 0.27
-11 -16 -1 0.32 0.46
11 16 -1 -0.06 0.31
11 -16 1 0.11 0.21
-11 -16 1 -0.38 0.25
11 -16 -1 0.05 0.2
11 16 1 -0.09 0.26
11 -16 2 -0.15 0.2
-11 -16 -2 0.73 0.46
-11 -16 2 -0.26 0.27
11 -16 -2 0.05 0.46
11 -16 -2 0.09 0.19
11 -16 3 -0.1 0.21
-11 -16 -3 1.04 0.47
11 -16 -3 0.04 0.36
-11 -16 3 0.05 0.28
11 -16 4 0.8 0.23
-11 16 4 0.36 0.3
-11 -16 -4 0.73 0.46
-11 -16 4 0.8 0.29
11 -16 -4 0.61 0.34
-11 -16 -5 0.7 0.45
11 -16 5 -0.05 0.21
-11 16 5 -0.43 0.29
-11 -16 5 0.43 0.27
11 -16 -5 -0.09 0.27
-11 -16 -6 0.77 0.44
11 -16 6 0.33 0.22
11 -16 -6 0.4 0.27
-11 -16 6 0.56 0.26
11 -16 7 0.1 0.22
-11 -16 -7 0.09 0.41
11 -16 -7 0.01 0.24
-11 -16 7 0.27 0.24
-11 -16 -8 1.08 0.4
11 -16 8 0.77 0.24
-11 -16 8 0.77 0.23
11 -16 -8 0.54 0.24
11 -16 9 0.19 0.22
-11 -16 -9 0.27 0.34
11 -16 -9 0.21 0.23
-11 -16 9 0.37 0.21
-11 -16 -10 0.2 0.33
11 -16 10 0.33 0.22
11 -16 -10 0.07 0.23
-11 -16 10 0.61 0.21
12 -16 0 16.44 1
-12 -16 -1 1.42 0.44
12 -16 1 0.47 0.21
12 -16 -1 0.58 0.21
12 -16 2 12.32 0.74
-12 -16 -2 11.51 0.9
-12 -16 2 10.99 0.78
12 -16 3 1.52 0.26
-12 -16 -3 2.51 0.48
-12 -16 3 1.77 0.31
12 -16 4 1.69 0.28
-12 -16 -4 2.36 0.48
12 -16 -4 2.24 0.37
-12 -16 4 1.71 0.32
12 -16 5 3.53 0.37
-12 -16 -5 4.48 0.58
12 -16 -5 3.77 0.46
-12 -16 5 3.57 0.42
12 -16 6 0.52 0.23
-12 -16 -6 0.31 0.4
-12 -16 6 0.37 0.24
12 -16 -6 0.4 0.27
12 -16 7 3.16 0.34
-12 -16 -7 3.2 0.48
-12 -16 7 3.04 0.36
12 -16 -7 3.03 0.37
12 -16 8 1.24 0.26
-12 -16 -8 1.44 0.38
-12 -16 8 1.57 0.31
12 -16 -8 1.12 0.26
-12 -16 -9 0.72 0.33
12 -16 -9 0.61 0.26
-12 -16 9 0.89 0.22
-13 -16 0 0.29 0.39
13 -16 0 -0.08 0.19
13 -16 1 7.49 0.54
-13 -16 -1 8.77 0.72
13 -16 2 5.98 0.46
-13 -16 -2 6.99 0.66
-13 -16 -3 7.4 0.68
13 -16 3 7.14 0.5
-13 -16 3 6.61 0.55
13 -16 4 13 0.78
-13 -16 -4 11.79 0.89
-13 -16 4 12.39 0.82
-13 -16 -5 1.66 0.41
13 -16 5 1.81 0.28
-13 -16 5 1.61 0.34
-13 -16 -6 7.02 0.67
13 -16 6 8.83 0.58
13 -16 -6 9.61 0.64
-13 -16 6 8.29 0.6
-13 -16 -7 0.25 0.34
13 -16 7 -0.01 0.23
13 -16 -7 0.04 0.27
-13 -16 7 0.37 0.22
-13 -16 -8 8.18 0.65
-13 -16 8 9.33 0.59
-14 -16 0 14.07 0.93
-14 -16 -1 0.66 0.37
14 -16 2 10.6 0.66
-14 -16 -2 9.86 0.78
-14 -16 -3 1.01 0.39
14 -16 3 0.41 0.22
-14 -16 -5 1.37 0.38
-14 -16 5 1.1 0.26
-14 -16 -6 0.2 0.35
-14 -16 6 0.25 0.23
-15 -16 -2 -0.11 0.36
-15 -16 -3 -0.47 0.35
-15 -16 -4 -0.37 0.37
0 -17 0 0.07 0.26
0 17 0 -0.33 0.28
0 17 0 -0.08 0.32
0 17 -1 0.04 0.29
0 -17 -1 -0.11 0.25
0 -17 1 0.06 0.27
0 17 1 -0.25 0.27
0 17 1 -0.01 0.34
0 -17 2 -0.04 0.27
0 17 2 0.03 0.35
0 17 -2 -0.29 0.28
0 -17 -2 -0.17 0.24
0 -17 3 0.05 0.29
0 -17 -3 -0.17 0.26
0 17 3 0.44 0.37
0 17 -3 -0.26 0.3
0 17 3 -0.36 0.37
0 -17 -4 -0.01 0.27
0 -17 4 0.07 0.3
0 17 4 -0.19 0.37
0 17 4 0.28 0.36
0 17 -4 0.02 0.31
0 17 5 0.79 0.39
0 17 5 -0.3 0.38
0 17 -5 -0.41 0.29
0 -17 -5 -0.28 0.27
0 17 -6 -0.1 0.31
0 17 6 0.7 0.38
0 -17 -6 -0.17 0.29
0 17 6 -0.4 0.38
0 -17 -7 -0.36 0.29
0 17 -7 -0.52 0.28
0 -17 7 -0.37 0.22
0 17 7 0.08 0.37
0 17 -8 -0.41 0.28
0 17 8 0.27 0.36
0 -17 -8 -0.18 0.3
0 17 9 0.09 0.33
0 -17 9 -0.29 0.3
0 -17 -9 0.14 0.3
0 17 10 0.1 0.32
0 -17 10 0.03 0.29
0 -17 -10 -0.15 0.3
0 -17 -11 0.47 0.29
0 17 11 0.58 0.3
0 -17 11 -0.07 0.26
0 -17 -12 -0.21 0.25
0 17 12 -0.07 0.28
0 -17 12 -0.27 0.25
0 17 13 0 0.25
0 -17 13 0.28 0.23
0 -17 -13 0.4 0.25
0 -17 14 -0.27 0.19
0 -17 -14 0.08 0.26
0 17 14 -0.38 0.24
-1 17 0 7.97 0.78
-1 -17 0 8.12 0.64
1 -17 0 7.77 0.63
-1 17 0 8.51 0.83
1 17 0 8.44 0.78
1 -17 1 -0.1 0.27
1 17 -1 0.09 0.28
-1 17 1 0.07 0.34
-1 -17 -1 -0.09 0.25
-1 17 -1 -0.38 0.29
1 17 1 -0.15 0.27
-1 -17 1 0.14 0.26
1 17 1 -0.24 0.35
1 -17 -1 0.05 0.25
-1 17 -1 0.21 0.33
1 -17 2 3.95 0.5
-1 -17 -2 4.25 0.47
-1 17 2 5.42 0.6
1 17 -2 4.37 0.65
-1 17 2 4.59 0.7
1 -17 -2 4.16 0.48
1 17 2 4.32 0.76
-1 17 -2 4.2 0.68
-1 -17 2 4.46 0.48
-1 17 3 9.06 0.74
-1 17 3 8.47 0.87
1 -17 3 6.44 0.63
1 17 -3 7.49 0.8
-1 -17 -3 8.39 0.63
1 17 3 7.67 0.87
-1 -17 3 7.46 0.63
1 -17 -3 8.31 0.63
-1 17 -3 7.71 0.79
-1 -17 -4 8.82 0.67
-1 17 4 8.55 0.91
1 17 -4 8.29 0.84
-1 17 4 9.63 0.73
1 -17 -4 8.66 0.67
1 17 4 9.12 0.78
1 17 4 7.38 0.91
-1 17 -4 7.95 0.85
-1 -17 4 8.12 0.67
-1 -17 -5 16.29 0.99
-1 17 5 15.93 1.06
-1 17 5 14.93 1.17
1 17 -5 15.14 1.13
1 -17 -5 15.77 1
1 17 5 14.87 1.04
-1 17 -5 15.66 1.13
-1 -17 5 13.9 1
1 17 5 13.08 1.2
-1 -17 -6 0.06 0.29
1 17 -6 -0.15 0.29
1 -17 6 0.07 0.24
-1 17 6 0.03 0.39
-1 17 6 1.16 0.38
1 -17 6 -0.38 0.26
-1 17 -6 -0.22 0.32
1 -17 -6 0.2 0.28
1 17 6 1.02 0.4
1 17 6 -0.57 0.41
-1 -17 6 0.43 0.32
1 17 -7 12.2 1
1 -17 7 12.98 0.86
-1 17 7 11.36 1.06
-1 -17 -7 13.77 0.88
-1 17 7 13.46 0.95
1 -17 -7 13.52 0.89
1 17 7 10.99 1.11
1 17 7 13.32 0.95
-1 17 -7 11.97 1
-1 -17 -8 0.28 0.29
1 17 -8 0.21 0.29
-1 17 8 1.2 0.37
-1 17 8 -0.68 0.4
1 -17 8 0.36 0.31
1 -17 -8 0.56 0.31
1 17 8 -0.52 0.4
-1 17 -8 0.03 0.3
1 -17 9 4.94 0.5
-1 17 9 4.95 0.61
1 17 9 5.56 0.62
1 -17 -9 5.6 0.53
-1 17 10 1.51 0.35
1 -17 10 1.48 0.33
-1 -17 -10 1.25 0.34
1 17 10 1.64 0.36
1 -17 -10 0.89 0.31
-1 17 11 1.54 0.34
1 -17 11 1.17 0.31
-1 -17 -11 1.75 0.33
-1 -17 11 1.2 0.3
1 17 11 1.36 0.33
1 -17 -11 1.64 0.31
-1 -17 -12 1.56 0.3
1 -17 12 1.08 0.28
-1 17 12 1.23 0.31
1 17 12 1.22 0.31
1 -17 -12 1.41 0.28
1 -17 13 -0.18 0.22
-1 -17 -13 -0.02 0.25
-1 17 13 0.12 0.27
1 -17 -13 0.24 0.25
-1 -17 13 -0.48 0.25
1 17 13 0.03 0.26
-1 -17 -14 1.31 0.28
1 -17 14 1.16 0.22
-1 17 14 0.97 0.26
1 -17 -14 0.62 0.22
1 17 14 1.25 0.28
2 -17 0 -0.06 0.27
-2 17 0 -0.02 0.32
-2 17 0 -0.51 0.28
2 17 0 -0.05 0.28
-2 -17 0 -0.09 0.25
2 -17 1 28.47 1.79
2 17 -1 31.2 1.9
-2 -17 -1 29.86 1.77
-2 17 1 31.84 1.89
2 -17 -1 29.4 1.78
2 17 1 30.36 1.88
-2 17 -1 31.47 1.89
-2 17 -1 29.93 1.89
-2 -17 1 28.48 1.78
-2 17 2 9.58 0.76
-2 17 2 8.52 0.83
-2 -17 -2 8.76 0.66
2 17 -2 8.26 0.81
-2 17 -2 8.35 0.82
-2 17 -2 8.83 0.84
2 -17 -2 8.19 0.66
-2 -17 2 7.89 0.65
-2 17 3 9.26 0.72
-2 17 3 8.74 0.87
-2 -17 -3 8.94 0.66
2 17 -3 7.85 0.81
2 17 3 6.55 0.9
-2 17 -3 8.16 0.82
-2 -17 3 8.66 0.66
2 -17 -3 8.89 0.65
2 17 -4 15.84 1.14
-2 -17 -4 15.98 1
-2 17 4 16.99 1.06
-2 17 4 14.62 1.15
-2 -17 4 14.13 0.99
-2 17 -4 17.13 1.17
2 -17 -4 15.92 1.01
2 17 4 13.33 1.06
2 17 4 13.58 1.19
-2 -17 -5 2.93 0.45
2 -17 5 3.58 0.42
-2 17 5 2.14 0.45
2 -17 5 3.66 0.55
-2 17 5 4.39 0.58
2 17 5 3.06 0.48
-2 17 -5 2.04 0.42
-2 -17 5 3.14 0.47
2 -17 -5 3.06 0.46
-2 -17 -6 24.51 1.41
2 -17 6 24.49 1.39
2 -17 6 20.66 1.45
-2 17 6 22.3 1.57
2 17 -6 24.11 1.54
-2 17 6 23.97 1.43
-2 17 -6 24.52 1.54
-2 -17 6 21.7 1.4
2 17 6 23.55 1.46
2 -17 -6 22.06 1.41
2 17 6 19.92 1.6
2 -17 7 0.2 0.25
2 17 -7 0.18 0.31
2 -17 7 0.34 0.3
-2 17 7 0.92 0.36
-2 17 7 -0.59 0.37
-2 17 -7 -0.27 0.3
-2 -17 7 0.72 0.3
2 17 7 -0.59 0.42
2 -17 -7 0.21 0.29
2 17 7 0.63 0.39
-2 17 8 10.93 1.08
2 -17 8 13.97 0.88
-2 17 8 14.25 0.96
-2 17 -8 12.79 1.01
-2 -17 8 12.14 0.89
2 17 8 15.77 0.98
2 -17 -8 14.67 0.92
2 17 8 11.8 1.12
-2 -17 -9 3.94 0.52
-2 17 9 5.25 0.56
2 -17 9 4.98 0.47
2 17 9 5.27 0.61
2 -17 -9 4.89 0.51
-2 17 10 8.39 0.69
2 -17 10 8.23 0.61
-2 -17 -10 7.27 0.63
2 17 10 8.39 0.7
2 -17 -10 8.67 0.65
2 -17 11 6.67 0.53
-2 -17 -11 6.69 0.55
-2 17 11 6.54 0.6
2 17 11 6.56 0.61
-2 17 12 0.98 0.31
2 -17 12 0.98 0.26
-2 -17 -12 1.07 0.3
2 17 12 1.19 0.3
2 -17 -12 1.21 0.27
-2 17 13 2.78 0.39
2 -17 13 3.63 0.33
-2 -17 -13 3.43 0.36
2 -17 -13 2.47 0.31
2 17 13 3.19 0.4
2 -17 14 0.04 0.2
-2 -17 -14 0.17 0.27
2 17 14 0.01 0.26
-3 17 0 17.57 1.22
3 17 0 17.92 1.22
-3 -17 0 16.85 1.08
3 -17 0 16.41 1.11
3 -17 1 -0.29 0.29
3 17 -1 -0.22 0.29
-3 -17 -1 0.08 0.26
-3 17 1 0.12 0.31
3 -17 -1 0.08 0.28
-3 17 -1 -0.49 0.29
3 17 1 -0.21 0.27
-3 -17 1 0 0.26
-3 17 -1 -0.08 0.31
-3 17 2 8.09 0.68
3 17 -2 6.36 0.74
-3 -17 -2 6.91 0.58
-3 17 2 6.91 0.74
3 17 2 5.96 0.69
-3 -17 2 6.53 0.57
3 -17 -2 6.72 0.6
-3 17 -2 6.57 0.76
-3 17 -2 7.1 0.75
3 17 -3 2.52 0.42
-3 -17 -3 3.26 0.44
3 -17 3 3.56 0.4
-3 17 3 4.43 0.57
-3 17 3 2.78 0.44
-3 17 -3 2.32 0.39
-3 17 -3 2.49 0.43
3 -17 -3 3.16 0.46
-3 -17 3 3.52 0.44
-3 -17 -4 10.02 0.72
-3 17 4 9.53 0.91
3 17 -4 9.39 0.89
3 -17 4 10.35 0.7
-3 17 4 10.55 0.8
-3 -17 4 9.19 0.73
3 -17 -4 9.81 0.73
-3 17 -4 9.75 0.9
-3 17 5 6.39 0.82
-3 -17 -5 6.99 0.59
3 17 -5 6.73 0.79
3 -17 5 7.87 0.58
-3 17 5 7.26 0.65
3 -17 -5 6.34 0.6
3 17 5 7.07 0.74
-3 -17 5 7.22 0.61
-3 17 -5 7.28 0.78
-3 17 6 0.97 0.4
3 -17 6 2.07 0.34
3 -17 6 1.39 0.32
3 17 -6 0.89 0.33
3 17 6 0.48 0.45
-3 17 -6 1.04 0.35
3 -17 -6 1.84 0.32
3 17 6 2.28 0.44
-3 17 7 5.13 0.79
3 -17 7 6.76 0.66
3 17 -7 5.55 0.74
-3 17 7 7.02 0.66
3 -17 7 6.36 0.54
-3 17 -7 6.51 0.76
3 17 7 6.95 0.71
3 -17 -7 6.2 0.57
-3 -17 7 7.16 0.58
3 -17 8 0.08 0.22
-3 -17 -8 0.1 0.36
3 -17 8 0.47 0.28
-3 17 8 0.91 0.36
-3 17 -8 -0.17 0.29
3 -17 -8 0.21 0.28
3 17 8 0.75 0.38
-3 -17 -9 4.43 0.51
3 -17 9 4.97 0.46
-3 17 9 5.07 0.57
3 -17 -9 5.01 0.52
3 17 9 4.96 0.61
-3 -17 9 4.3 0.47
-3 -17 -10 2.03 0.41
3 -17 10 1.45 0.3
-3 17 10 2.09 0.36
3 -17 -10 1.9 0.35
3 17 10 1.99 0.39
-3 -17 -11 2.23 0.36
3 -17 11 1.99 0.3
-3 17 11 1.86 0.36
3 -17 -11 2.07 0.34
3 17 11 1.68 0.36
-3 -17 -12 2.29 0.37
-3 17 12 2.27 0.34
3 -17 12 1.93 0.3
3 17 12 2.76 0.36
3 -17 13 0.09 0.21
-3 17 13 -0.23 0.25
-3 -17 -13 0.2 0.26
3 17 13 -0.13 0.25
-3 -17 -14 1.69 0.32
3 -17 14 2.05 0.26
-4 17 0 -0.29 0.29
4 -17 0 -0.18 0.24
4 17 0 -0.4 0.28
4 -17 0 -0.41 0.29
-4 -17 0 -0.24 0.25
4 -17 1 1.62 0.3
-4 -17 -1 1.49 0.3
4 -17 1 0.94 0.35
4 17 -1 0.76 0.33
-4 17 1 0.98 0.33
4 17 1 0.87 0.33
-4 -17 1 1.39 0.3
4 -17 -1 1.47 0.34
-4 17 -1 1.05 0.34
4 17 -2 -0.11 0.29
-4 -17 -2 -0.12 0.26
4 -17 2 -0.03 0.26
-4 17 2 -0.25 0.3
-4 17 -2 -0.17 0.29
4 -17 -2 0.06 0.24
4 -17 -2 -0.21 0.27
-4 -17 2 0.04 0.26
4 17 2 -0.29 0.27
-4 -17 -3 0.06 0.27
4 -17 3 0 0.25
-4 17 3 0.21 0.32
4 17 -3 -0.15 0.3
-4 17 -3 0.1 0.32
4 -17 -3 0.5 0.25
-4 -17 3 0.51 0.27
4 -17 -3 0.13 0.28
4 17 3 -0.25 0.24
-4 17 -3 0.11 0.28
4 -17 4 1.16 0.3
-4 17 4 1.3 0.39
-4 -17 -4 1.55 0.32
-4 17 4 2.32 0.42
4 17 -4 0.96 0.36
-4 17 4 2.34 0.38
4 -17 -4 1.69 0.29
4 -17 -4 1.56 0.33
-4 -17 4 2.29 0.42
-4 17 -4 0.78 0.35
4 17 -5 0.13 0.31
4 -17 5 0.43 0.28
-4 17 5 0.01 0.36
-4 17 5 1.11 0.34
4 17 5 0.21 0.39
-4 -17 5 1.05 0.3
4 -17 -5 0.43 0.28
-4 17 -5 0.14 0.35
4 17 -6 0.12 0.31
-4 17 6 -0.1 0.37
4 -17 6 0.12 0.26
-4 17 6 1.07 0.34
4 -17 6 -0.08 0.26
-4 17 -6 0.12 0.33
4 -17 -6 0.33 0.27
4 17 6 1.05 0.41
-4 17 7 0.59 0.33
4 17 -7 -0.23 0.3
4 -17 7 0.09 0.26
4 -17 7 0.16 0.25
-4 17 7 -0.46 0.35
4 17 7 0.3 0.39
-4 17 -7 -0.48 0.3
4 -17 -7 -0.02 0.26
-4 17 8 1.13 0.36
-4 -17 -8 0.95 0.39
4 -17 8 0.75 0.26
4 17 8 1.38 0.4
-4 -17 8 1.46 0.3
4 -17 -8 0.84 0.31
-4 17 9 0.07 0.32
-4 -17 -9 0.18 0.34
4 -17 9 -0.02 0.24
4 -17 -9 0.05 0.28
-4 -17 9 0.56 0.27
4 17 9 -0.01 0.35
-4 17 10 0.33 0.31
4 -17 10 -0.1 0.24
-4 -17 -10 -0.12 0.32
4 -17 -10 -0.19 0.29
-4 -17 10 -0.07 0.24
4 17 10 0.12 0.33
-4 17 11 0.57 0.3
4 -17 11 0.64 0.24
-4 -17 -11 0.45 0.31
4 -17 -11 0.4 0.28
4 17 11 0.45 0.31
-4 -17 -12 -0.43 0.28
-4 17 12 -0.43 0.27
4 -17 12 -0.05 0.2
4 -17 -12 -0.07 0.23
4 17 12 -0.07 0.28
4 -17 13 0.42 0.21
-4 -17 -13 0.42 0.28
4 17 13 0.23 0.27
5 -17 0 14.63 1.05
-5 17 0 15.71 1.12
5 -17 0 16.26 0.98
5 17 0 16.66 1.18
-5 -17 0 15.2 1.01
5 17 -1 -0.07 0.3
5 -17 1 -0.29 0.25
-5 -17 -1 0.16 0.26
-5 17 1 0.36 0.32
5 -17 -1 -0.01 0.3
-5 -17 1 0.25 0.27
5 -17 -1 -0.18 0.25
-5 17 -1 -0.08 0.28
5 17 1 -0.11 0.3
-5 17 2 6.39 0.7
5 17 -2 6.09 0.76
5 -17 2 6.17 0.52
-5 -17 -2 5.85 0.55
5 17 2 5.8 0.74
-5 -17 2 6.22 0.56
-5 17 -2 6.72 0.69
5 -17 -2 6.03 0.6
5 -17 -2 6.36 0.51
-5 17 3 3.13 0.46
-5 17 3 4.59 0.56
5 -17 3 3.18 0.4
-5 -17 -3 3.89 0.47
-5 17 -3 4.44 0.61
5 -17 -3 3.69 0.5
-5 -17 3 3.94 0.47
5 -17 -3 4 0.41
-5 17 4 4.62 0.72
-5 17 4 6.22 0.58
-5 17 4 5.62 0.55
5 -17 4 4.15 0.45
5 17 -4 4.06 0.73
5 -17 -4 5.03 0.45
5 -17 -4 4.92 0.54
-5 -17 4 5.3 0.52
-5 17 -4 4.7 0.62
5 -17 5 1.12 0.27
-5 17 5 1.88 0.35
-5 17 5 0.61 0.37
5 17 -5 0.94 0.36
5 -17 -5 1.77 0.34
-5 17 -5 0.58 0.38
5 -17 6 0.01 0.24
-5 17 6 0.63 0.32
5 17 -6 -0.33 0.3
-5 17 6 -0.19 0.36
-5 17 -6 -0.42 0.33
5 17 6 0.23 0.41
-5 -17 6 0.49 0.28
5 -17 -6 -0.43 0.27
5 -17 7 2.93 0.38
-5 17 7 3.86 0.53
-5 -17 -7 2.69 0.55
5 17 7 3.86 0.63
5 -17 -7 2.67 0.46
-5 -17 7 3.85 0.47
5 -17 8 0.55 0.26
-5 17 8 0.85 0.35
-5 -17 -8 0.73 0.39
5 17 8 0.56 0.4
5 -17 -8 0.09 0.28
-5 -17 8 1.19 0.3
-5 17 9 0.77 0.34
5 -17 9 1.18 0.28
-5 -17 -9 0.93 0.38
5 -17 -9 0.81 0.3
-5 -17 9 1.26 0.29
5 17 9 1 0.38
5 -17 10 1.78 0.3
-5 17 10 1.99 0.35
-5 -17 -10 1.85 0.37
5 17 10 2.1 0.39
5 -17 -10 1.28 0.32
-5 -17 10 2.33 0.36
-5 17 11 0.33 0.31
5 -17 11 0.15 0.22
-5 17 11 0.24 0.3
-5 -17 -11 0.07 0.3
5 -17 -11 0.06 0.27
5 17 11 -0.08 0.3
-5 -17 -12 0.41 0.3
5 -17 12 0.62 0.22
5 17 12 0.53 0.3
5 -17 -12 0.28 0.24
5 -17 13 0.18 0.21
-5 -17 -13 -0.36 0.28
5 17 13 -0.18 0.28
-6 -17 0 0.25 0.27
6 -17 0 -0.43 0.24
-6 17 0 0.24 0.29
6 17 0 0.22 0.32
6 -17 0 -0.25 0.35
6 -17 1 57.37 3.33
6 17 -1 61.46 3.49
-6 -17 -1 59.26 3.34
-6 17 1 57.15 3.41
6 17 1 61.24 3.48
-6 17 -1 58.19 3.41
6 -17 -1 58.77 3.33
-6 -17 1 54.92 3.34
6 -17 -1 58.47 3.38
-6 -17 -2 16.03 0.99
6 17 -2 16.61 1.19
6 -17 2 13.8 0.95
-6 17 2 15.02 1.11
6 -17 -2 14.44 0.96
6 17 2 16.36 1.15
-6 -17 2 13.95 0.98
-6 17 -2 16.36 1.1
6 -17 -2 15.92 1.04
6 -17 3 9.54 0.69
-6 -17 -3 8.75 0.73
6 17 -3 10.28 0.96
-6 17 3 10.68 0.91
-6 17 -3 11.73 0.87
6 -17 -3 11.2 0.79
6 -17 -3 10.57 0.7
-6 -17 3 9.87 0.73
-6 17 4 9.41 0.89
-6 17 4 11.05 0.78
-6 17 4 9.52 0.72
6 -17 4 7.9 0.63
6 17 -4 10.22 0.91
6 -17 -4 9.6 0.73
-6 17 -4 9.55 0.81
-6 17 -4 8.09 0.9
6 -17 -4 9.04 0.65
-6 -17 4 10.39 0.72
-6 17 5 0.55 0.38
6 -17 5 1.3 0.26
-6 17 5 0.94 0.27
-6 17 5 1.38 0.33
6 -17 -5 1.53 0.33
-6 -17 5 2.15 0.42
-6 17 6 12.51 1.12
6 -17 6 16.22 0.95
-6 17 6 15.41 1.01
-6 -17 -6 12.17 1.07
6 -17 -6 16.59 0.99
-6 17 -6 14.75 1.16
-6 -17 6 16.29 0.98
6 -17 7 0.24 0.25
-6 -17 -7 0.99 0.43
-6 17 7 0.59 0.32
6 -17 -7 0.04 0.28
-6 -17 7 1.14 0.29
6 17 7 0.69 0.41
6 -17 8 10.5 0.72
-6 17 8 10.34 0.78
-6 -17 -8 9.38 0.81
-6 -17 8 11.03 0.73
6 -17 -8 10.34 0.76
6 17 8 11.65 0.85
6 -17 9 3.44 0.38
-6 -17 -9 3.3 0.47
-6 17 9 3.21 0.5
-6 -17 9 4.66 0.42
6 -17 -9 3.68 0.46
6 17 9 4.2 0.57
-6 -17 -10 3.64 0.47
6 -17 10 3.77 0.38
-6 17 10 3.23 0.47
6 17 10 3.47 0.53
6 -17 -10 3.19 0.42
-6 -17 10 4.57 0.41
-6 -17 -11 3.39 0.41
-6 17 11 3.05 0.38
6 -17 11 3.63 0.35
-6 17 11 3.98 0.43
6 17 11 3.88 0.47
-6 -17 11 3.05 0.35
6 -17 -11 3.9 0.39
-6 -17 -12 0.01 0.29
6 -17 12 0.38 0.21
6 17 12 0.23 0.3
6 -17 -12 0.22 0.23
-6 -17 -13 1.64 0.35
6 -17 13 2.29 0.27
6 17 13 1.76 0.33
7 17 0 4.22 0.69
7 -17 0 3.08 0.47
7 -17 0 3.03 0.36
-7 17 0 3.34 0.59
-7 -17 0 3.74 0.46
7 -17 1 6.68 0.54
7 17 -1 7.43 0.82
-7 -17 -1 8.02 0.6
-7 17 1 7.04 0.74
-7 17 -1 7.42 0.72
7 -17 -1 6.45 0.53
-7 -17 1 6.95 0.6
7 17 1 7.56 0.82
7 -17 -1 7.89 0.71
-7 -17 -2 1.47 0.31
7 -17 2 1.73 0.28
-7 17 2 1.01 0.34
7 -17 -2 1.45 0.27
7 -17 -2 1.7 0.39
-7 17 -2 0.86 0.3
7 17 2 1.07 0.34
-7 -17 2 1.55 0.3
-7 17 3 31.17 1.91
7 17 -3 33.05 1.97
7 -17 3 29.7 1.76
-7 -17 3 26.83 1.78
7 -17 -3 28.02 1.76
-7 17 -3 33.46 1.88
-7 17 4 1.03 0.32
-7 17 4 0.38 0.27
-7 17 4 0.09 0.35
7 17 -4 0.15 0.31
7 -17 4 0.54 0.25
-7 17 -4 0.48 0.28
7 -17 -4 0.85 0.31
7 -17 -4 0.64 0.24
7 -17 5 30.35 1.55
-7 17 5 25.14 1.57
-7 17 5 21.49 1.68
-7 17 5 22.97 1.59
7 17 -5 25.25 1.7
7 -17 -5 29.67 1.6
-7 -17 5 26.98 1.57
-7 17 6 0.76 0.32
-7 17 6 0.48 0.29
-7 -17 -6 1.34 0.47
7 -17 6 0.53 0.24
-7 -17 6 1.04 0.28
7 -17 -6 0.26 0.28
7 -17 7 15.54 0.93
-7 17 7 13.94 0.97
-7 -17 -7 14.24 1.04
7 17 7 14.06 1.04
-7 -17 7 15.17 0.96
7 -17 -7 15.67 0.97
-7 -17 -8 3.57 0.55
-7 17 8 2.75 0.4
7 -17 8 2.45 0.36
7 17 8 3.35 0.56
7 -17 -8 2.36 0.42
-7 -17 8 3.58 0.4
7 -17 9 6.29 0.49
-7 17 9 5.02 0.56
-7 -17 -9 6.57 0.6
-7 -17 9 6.1 0.5
7 17 9 5.84 0.6
7 -17 -9 6.51 0.54
7 -17 10 6.18 0.48
-7 17 10 5.06 0.53
-7 -17 -10 6.97 0.57
7 -17 -10 5.89 0.51
-7 -17 10 7.3 0.51
7 17 10 6.86 0.59
7 -17 11 1.45 0.27
-7 -17 -11 1.7 0.34
-7 17 11 1.6 0.34
7 -17 -11 1.62 0.32
-7 -17 11 1.48 0.29
7 17 11 1.09 0.34
7 -17 12 3.7 0.33
-7 -17 -12 3.18 0.39
7 17 12 3.6 0.46
7 -17 -12 3.6 0.36
8 17 0 -0.01 0.29
8 -17 0 0.06 0.22
-8 -17 0 0.14 0.28
8 -17 0 -0.1 0.39
-8 17 0 -0.22 0.28
8 -17 1 10.13 0.67
-8 17 1 8.82 0.85
-8 -17 -1 10.09 0.7
8 17 -1 9.38 0.93
-8 -17 1 9.89 0.72
8 -17 -1 9.17 0.66
8 17 1 9.51 0.9
-8 17 -1 8.54 0.79
8 -17 -1 10.85 0.82
8 17 -2 1.19 0.36
-8 17 2 0.81 0.35
8 -17 -2 1.82 0.31
-8 17 -2 1.24 0.3
8 17 2 1.06 0.32
-8 -17 2 1.98 0.39
-8 17 3 1.2 0.28
8 -17 3 1.5 0.28
-8 17 -3 1.07 0.3
8 -17 -3 1.56 0.37
-8 -17 3 1.73 0.32
8 -17 -3 1.81 0.28
-8 17 4 2.85 0.5
8 -17 4 2.67 0.36
-8 17 4 3.25 0.5
8 -17 -4 2.97 0.48
-8 -17 4 3.41 0.45
-8 17 5 -0.02 0.31
-8 -17 -5 0.33 0.47
8 -17 5 -0.29 0.21
-8 -17 5 0.3 0.26
8 -17 -5 -0.31 0.27
-8 -17 -6 3.98 0.62
-8 17 6 2.6 0.38
8 -17 6 2.31 0.33
8 -17 -6 2.51 0.43
-8 -17 6 3.26 0.43
8 -17 7 0.72 0.23
-8 -17 -7 0.97 0.45
-8 17 7 0.65 0.32
-8 -17 7 0.93 0.27
8 -17 -7 0.6 0.27
-8 17 8 3.36 0.47
-8 -17 -8 4.06 0.56
8 -17 8 3.26 0.36
8 -17 -8 3.35 0.42
-8 -17 8 4.43 0.42
8 17 8 2.36 0.39
8 -17 9 2.08 0.3
-8 -17 -9 3 0.47
-8 17 9 1.67 0.34
-8 -17 9 2.96 0.37
8 17 9 2.58 0.4
8 -17 -9 2 0.36
-8 -17 -10 0.62 0.34
8 -17 10 0.51 0.21
8 -17 -10 0.52 0.24
8 17 10 0.64 0.33
-8 -17 10 0.94 0.24
8 -17 11 1.72 0.27
-8 -17 -11 1.87 0.36
-8 17 11 2.22 0.36
8 17 11 1.56 0.34
8 -17 -11 1.65 0.3
-8 -17 11 1.91 0.3
8 -17 12 0.21 0.21
-8 17 12 0.16 0.3
-8 -17 -12 -0.33 0.3
8 17 12 0.16 0.27
8 -17 -12 0.22 0.21
9 -17 0 2.18 0.33
-9 -17 0 2.4 0.43
9 17 -1 0.03 0.29
9 -17 1 0.17 0.21
-9 -17 -1 -0.24 0.27
9 -17 -1 0.03 0.21
9 17 1 -0.04 0.29
-9 17 -1 -0.38 0.26
-9 -17 1 -0.01 0.27
9 -17 -1 -0.03 0.35
9 -17 2 0.97 0.25
9 17 -2 0.25 0.31
9 -17 -2 1.02 0.24
9 -17 -2 0.66 0.37
-9 -17 2 0.84 0.29
-9 17 3 0.6 0.23
9 -17 3 0.92 0.24
9 -17 -3 0.78 0.24
9 -17 -3 0.87 0.35
-9 -17 3 0.85 0.29
9 -17 4 1.78 0.28
-9 -17 -4 1.74 0.5
-9 17 4 1.44 0.35
9 -17 -4 1.42 0.36
-9 -17 4 1.62 0.32
-9 17 5 0.23 0.31
-9 -17 -5 0.91 0.47
9 -17 5 0.36 0.22
-9 -17 5 0.64 0.27
9 -17 -5 0.16 0.29
-9 -17 -6 0.13 0.45
9 -17 6 -0.22 0.2
-9 17 6 -0.09 0.3
9 -17 -6 -0.11 0.27
-9 -17 6 0.12 0.25
-9 -17 -7 1.42 0.46
9 -17 7 1.23 0.25
-9 17 7 1.03 0.32
-9 -17 7 1.42 0.28
9 -17 -7 1.14 0.28
9 -17 8 0.13 0.21
-9 17 8 -0.63 0.29
-9 -17 -8 0.56 0.39
-9 -17 8 0.52 0.22
9 -17 -8 -0.17 0.23
9 -17 9 0.53 0.22
-9 -17 -9 0.66 0.36
-9 -17 9 0.8 0.23
9 -17 -9 0.41 0.23
-9 -17 -10 0.75 0.34
9 -17 10 0.74 0.22
-9 -17 10 0.75 0.23
9 -17 -10 0.51 0.24
-9 17 11 0.19 0.3
-9 -17 -11 0.02 0.3
9 -17 11 0.27 0.22
9 -17 -11 0.16 0.23
-9 -17 11 0.3 0.21
10 -17 0 0.17 0.2
-10 -17 0 -0.47 0.26
10 17 0 -0.12 0.28
10 -17 1 6.2 0.47
-10 -17 1 6.21 0.56
10 -17 -1 6.5 0.49
10 -17 2 4.7 0.4
10 -17 -2 5 0.41
-10 -17 2 4.54 0.5
10 -17 -2 4.79 0.59
10 -17 3 1.95 0.31
-10 -17 -3 1.5 0.5
10 -17 -3 2.13 0.41
-10 -17 3 2.04 0.41
-10 17 4 3.89 0.51
10 -17 4 4.49 0.39
-10 -17 -4 4.29 0.63
10 -17 -4 4.19 0.52
-10 -17 4 4.19 0.46
-10 -17 -5 1.19 0.46
-10 17 5 0.63 0.31
10 -17 5 1.39 0.25
-10 -17 5 1.31 0.29
10 -17 -5 1.57 0.33
10 -17 6 9.03 0.59
-10 17 6 7.95 0.65
-10 -17 -6 8.05 0.76
-10 -17 6 8.7 0.62
10 -17 -6 8.34 0.64
10 -17 7 0.64 0.23
-10 -17 -7 0.83 0.41
10 -17 -7 0.39 0.25
-10 -17 7 0.47 0.24
10 -17 8 3.46 0.34
-10 -17 -8 2.91 0.47
10 -17 -8 3 0.38
-10 -17 8 3.69 0.37
10 -17 9 0.94 0.24
-10 -17 -9 0.71 0.35
10 -17 -9 0.92 0.25
-10 -17 9 1.15 0.23
10 -17 10 0.78 0.23
-10 -17 -10 0.59 0.34
10 -17 -10 0.64 0.24
-10 -17 10 0.83 0.23
11 -17 1 1.41 0.24
11 -17 -1 1.4 0.24
-11 -17 1 0.83 0.3
11 -17 2 8.4 0.58
-11 -17 2 8.36 0.64
11 -17 -2 8.29 0.56
-11 17 3 2.18 0.35
-11 -17 -3 3.06 0.51
11 -17 3 2.39 0.3
-11 -17 3 2.61 0.42
11 -17 -3 2.98 0.48
11 -17 4 5.48 0.43
-11 17 4 4.45 0.51
-11 -17 -4 5.06 0.63
-11 -17 4 5.42 0.5
11 -17 -4 6.24 0.54
-11 -17 -5 4.1 0.59
11 -17 5 4.83 0.39
11 -17 -5 4.7 0.48
-11 -17 5 4.33 0.45
11 -17 6 1.34 0.25
-11 -17 -6 1.44 0.43
-11 -17 6 1.4 0.28
11 -17 -6 1.26 0.29
11 -17 7 7.03 0.48
-11 -17 -7 5.38 0.59
11 -17 -7 7.27 0.53
-11 -17 7 6.4 0.51
11 -17 8 0.58 0.23
-11 -17 -8 0.6 0.35
11 -17 -8 0.52 0.24
-11 -17 8 0.86 0.23
11 -17 9 5.26 0.43
-11 -17 -9 5.37 0.52
-11 -17 9 5.41 0.44
11 -17 -9 5.92 0.47
12 -17 0 0 0.19
12 -17 1 3.31 0.33
12 -17 -1 3.75 0.33
-12 -17 -2 1.25 0.43
12 -17 2 1.68 0.28
-12 -17 2 1.92 0.32
12 -17 3 2.03 0.29
-12 -17 -3 2.49 0.49
-12 17 3 1.55 0.32
-12 -17 3 2.22 0.33
-12 17 4 2.46 0.34
-12 -17 -4 3.09 0.54
12 -17 4 2.96 0.32
-12 -17 4 3.16 0.39
12 -17 -4 2.68 0.42
-12 -17 -5 0.62 0.4
12 -17 5 0.87 0.23
12 -17 -5 0.9 0.3
-12 -17 5 0.62 0.26
12 -17 6 7.72 0.51
-12 -17 -6 5.93 0.61
-12 -17 6 7.2 0.54
12 -17 -6 7.65 0.56
-12 -17 -7 -0.07 0.37
12 -17 7 0.27 0.23
-12 -17 7 0.44 0.22
12 -17 -7 -0.12 0.25
-12 -17 -8 4.05 0.49
12 -17 -8 4.4 0.44
-12 -17 8 4.49 0.39
13 -17 1 -0.18 0.19
-13 -17 -2 -0.34 0.37
13 -17 2 0.02 0.19
13 -17 3 -0.03 0.2
-13 -17 -3 0 0.38
-13 -17 -4 -0.02 0.37
13 -17 4 0.04 0.21
-13 -17 4 -0.16 0.23
-13 -17 -5 -0.09 0.36
13 -17 5 0.06 0.22
-13 -17 5 -0.02 0.24
13 -17 6 -0.01 0.19
-13 -17 6 -0.01 0.23
-13 -17 -7 0.32 0.39
-13 -17 7 0.49 0.22
-14 17 1 0.58 0.19
14 -17 3 0.17 0.17
-14 -17 -3 -0.24 0.33
-14 -17 -4 0.82 0.35
0 18 0 16.24 1.23
0 -18 0 18.64 1.12
0 18 -1 4.48 0.67
0 -18 1 4.89 0.51
0 -18 -1 5.16 0.49
0 18 2 2.18 0.43
0 -18 -2 2.25 0.36
0 -18 2 2.25 0.37
0 -18 3 18.82 1.21
0 18 3 17.85 1.37
0 18 3 19.97 1.26
0 -18 -3 18.87 1.2
0 18 -3 20.29 1.35
0 -18 4 2.19 0.45
0 -18 -4 2.09 0.41
0 18 4 1.37 0.45
0 18 -4 1.46 0.38
0 -18 -5 12.48 0.9
0 -18 5 13.37 0.92
0 18 5 10.89 1.12
0 18 5 15.36 0.99
0 18 -5 14.48 1.08
0 18 6 1.67 0.4
0 -18 -6 1.13 0.32
0 18 6 0.15 0.43
0 -18 6 1.25 0.34
0 18 -6 0.79 0.33
0 -18 -7 11.44 0.81
0 18 -7 9.21 0.92
0 18 7 12.54 0.86
0 -18 -8 3.55 0.48
0 18 8 4.37 0.58
0 -18 9 11.3 0.76
0 18 9 11.47 0.84
0 -18 -9 11.57 0.79
0 -18 10 3.5 0.39
0 18 10 3.35 0.47
0 -18 11 2.17 0.32
0 18 11 2.05 0.34
0 -18 12 0.86 0.21
0 18 13 -0.26 0.26
1 18 0 -0.43 0.29
-1 18 0 -0.28 0.33
1 -18 0 0.06 0.27
-1 -18 0 0.03 0.27
-1 -18 -1 16.99 1.08
-1 18 1 16.49 1.13
1 18 -1 17.32 1.21
-1 18 1 16.38 1.25
1 -18 1 16.36 1.09
1 -18 -1 17.15 1.07
-1 -18 1 16.6 1.08
-1 18 -1 16.91 1.2
1 -18 2 0.44 0.31
1 18 -2 -0.16 0.31
-1 -18 -2 0.21 0.27
-1 18 2 0 0.38
-1 18 2 1.1 0.39
-1 18 -2 -0.04 0.32
-1 -18 2 0.47 0.29
1 -18 -2 0.63 0.28
1 18 -3 12.51 1.03
1 -18 3 11.97 0.87
-1 -18 -3 12.06 0.84
-1 18 3 13.67 0.93
-1 18 3 12.32 1.05
1 -18 -3 12.16 0.84
1 18 3 10.57 1.06
-1 -18 3 12.03 0.86
1 18 3 13.12 0.93
-1 18 -3 12.66 1.02
1 18 -4 6.47 0.78
-1 18 4 6.17 0.83
-1 -18 -4 6.68 0.58
1 -18 4 6.88 0.62
-1 18 4 8.42 0.72
-1 18 -4 6.79 0.78
1 18 4 8.08 0.71
-1 -18 4 6.79 0.62
1 -18 -4 5.99 0.58
1 -18 5 1.92 0.37
1 18 -5 1.35 0.37
-1 18 5 3.37 0.54
-1 -18 -5 2 0.41
-1 18 5 1.43 0.44
-1 18 -5 1.26 0.36
-1 -18 5 2.54 0.38
1 18 5 0.73 0.45
1 -18 -5 2.33 0.35
-1 -18 -6 9.27 0.67
1 18 -6 7.54 0.82
-1 18 6 7.41 0.88
1 -18 6 6.94 0.61
-1 -18 6 9.25 0.67
1 -18 -6 8.1 0.66
1 18 6 9.41 0.77
-1 18 -6 7.9 0.81
1 -18 7 0.18 0.3
-1 -18 -7 0.05 0.31
-1 18 7 0.39 0.35
1 18 -7 -0.36 0.29
-1 18 -7 -0.5 0.29
1 -18 -7 0.07 0.3
1 18 7 0.53 0.37
-1 -18 7 0.16 0.3
1 -18 8 1.92 0.35
-1 -18 -8 1.69 0.35
-1 18 8 1.7 0.37
1 18 8 1.88 0.39
1 -18 -8 1.97 0.35
1 -18 9 2.86 0.41
-1 18 9 3.21 0.53
1 -18 -9 3.02 0.44
1 18 9 3.43 0.43
-1 18 10 0.53 0.3
1 -18 10 1.08 0.29
1 18 10 0.78 0.32
1 -18 -10 0.67 0.28
1 -18 11 3.99 0.39
-1 18 11 3.88 0.45
1 18 11 3.68 0.46
1 -18 12 -0.11 0.22
-1 -18 -12 -0.18 0.24
-1 18 12 -0.23 0.26
1 18 12 -0.21 0.26
1 -18 13 1.49 0.21
2 -18 0 0.23 0.3
-2 -18 0 0.31 0.28
2 18 0 -0.14 0.29
-2 18 0 1.06 0.39
-2 18 0 0.11 0.35
-2 18 1 -0.21 0.35
2 18 -1 -0.37 0.29
-2 18 1 0.41 0.38
2 -18 1 -0.27 0.29
-2 -18 -1 -0.15 0.27
-2 18 -1 -0.3 0.32
-2 -18 1 -0.1 0.26
2 -18 -1 -0.14 0.27
2 18 1 -0.51 0.27
-2 18 -1 -0.45 0.29
-2 -18 -2 0.01 0.26
-2 18 2 0.92 0.38
-2 18 2 -0.06 0.36
2 -18 2 0.29 0.31
2 18 -2 -0.29 0.29
2 -18 -2 0.09 0.28
-2 18 -2 -0.12 0.31
-2 -18 2 0.24 0.27
2 18 -3 0.26 0.33
-2 18 3 0.33 0.38
2 -18 3 0.8 0.34
-2 -18 -3 0.65 0.28
-2 18 3 1.75 0.4
-2 -18 3 1.04 0.3
2 -18 -3 0.78 0.29
-2 18 4 0.71 0.36
-2 -18 -4 -0.14 0.27
2 18 -4 -0.23 0.31
2 -18 4 -0.49 0.32
2 -18 4 -0.07 0.27
-2 18 4 -0.49 0.37
2 -18 -4 -0.07 0.26
2 18 4 0.67 0.4
-2 -18 4 -0.02 0.3
2 -18 5 0.32 0.3
-2 18 5 1.39 0.38
2 18 -5 -0.06 0.3
-2 18 5 0.2 0.39
-2 -18 -5 0.57 0.3
2 18 5 1.34 0.41
-2 -18 5 1.07 0.32
-2 18 -5 0.08 0.32
2 -18 -5 0.41 0.27
-2 -18 -6 -0.08 0.29
2 -18 6 -0.08 0.29
2 18 -6 -0.45 0.28
-2 18 6 -0.57 0.37
-2 18 6 0.5 0.36
2 -18 -6 -0.46 0.26
2 18 6 0.44 0.39
-2 18 -6 -0.49 0.3
-2 -18 6 0.42 0.31
-2 18 7 1.48 0.38
2 -18 7 1.1 0.31
-2 -18 -7 0.84 0.33
2 -18 -7 0.88 0.3
2 18 7 1.51 0.4
-2 18 8 0.34 0.33
2 -18 8 0.22 0.28
-2 -18 -8 -0.18 0.24
2 18 8 0.54 0.37
-2 -18 8 0.12 0.28
2 -18 -8 -0.09 0.28
-2 18 9 0.58 0.32
2 -18 9 0.21 0.27
2 18 9 0.42 0.33
2 -18 -9 0.24 0.3
-2 18 10 0.45 0.31
-2 -18 -10 -0.33 0.29
2 -18 10 0.14 0.26
2 18 10 -0.13 0.3
2 -18 -10 -0.11 0.28
-2 -18 -11 -0.45 0.26
-2 18 11 -0.01 0.28
2 -18 11 -0.32 0.23
2 18 11 -0.09 0.29
2 -18 12 -0.03 0.22
-2 -18 -12 0.12 0.27
-2 18 12 -0.08 0.27
2 18 12 0.3 0.27
-2 -18 -13 -0.25 0.22
-2 18 13 -0.2 0.24
2 -18 13 0.02 0.19
2 18 13 -0.07 0.27
-3 -18 0 0.09 0.27
3 -18 0 -0.28 0.28
-3 18 0 -0.17 0.33
3 -18 0 0.05 0.18
3 18 0 -0.38 0.29
-3 18 1 5.08 0.72
3 18 -1 4.61 0.69
3 -18 1 4.79 0.56
-3 -18 -1 5.31 0.51
3 18 1 4.97 0.69
-3 -18 1 5.13 0.51
3 -18 -1 5.42 0.54
-3 18 -1 5 0.7
3 18 -2 -0.18 0.3
-3 -18 -2 0.09 0.27
3 -18 2 -0.29 0.32
-3 18 2 0.77 0.36
3 -18 2 -0.08 0.28
-3 18 2 -0.16 0.35
3 -18 -2 0 0.28
3 18 2 -0.31 0.39
-3 -18 2 0.18 0.27
3 -18 3 6.24 0.52
-3 18 3 5.04 0.74
-3 -18 -3 5.85 0.54
3 18 -3 4.35 0.75
-3 18 3 6.78 0.65
-3 18 -3 4.07 0.71
-3 -18 3 6.28 0.56
3 -18 -3 5.7 0.56
-3 18 4 -0.33 0.36
3 -18 4 0.33 0.28
-3 18 4 1.11 0.37
-3 -18 -4 0.13 0.28
3 18 -4 -0.26 0.31
3 -18 -4 0.29 0.29
-3 -18 4 0.65 0.29
3 18 4 0.48 0.4
-3 18 -4 -0.32 0.32
3 18 -5 0.22 0.33
-3 -18 -5 0.59 0.3
-3 18 5 1.56 0.37
-3 18 5 0.34 0.39
3 -18 5 0.93 0.3
-3 -18 5 1.03 0.3
3 18 5 1.19 0.41
-3 18 -5 0.11 0.33
3 -18 -5 0.82 0.3
3 -18 6 0.67 0.29
3 18 -6 -0.19 0.31
-3 18 6 0.89 0.36
-3 -18 -6 0.39 0.3
-3 18 -6 -0.21 0.32
-3 -18 6 1.08 0.3
3 18 6 0.93 0.4
3 -18 -6 0.52 0.28
-3 18 7 0.89 0.37
3 -18 7 0.16 0.27
-3 -18 7 0.8 0.3
3 18 7 0.6 0.39
3 -18 8 0.56 0.27
-3 18 8 0.54 0.34
3 -18 -8 0.29 0.28
3 18 8 0.54 0.36
-3 -18 8 0.85 0.29
-3 18 9 3.53 0.51
3 -18 9 2.83 0.36
-3 -18 -9 2.57 0.39
3 -18 -9 2.6 0.4
3 18 9 3.72 0.54
-3 -18 9 2.46 0.39
-3 18 10 0.2 0.29
-3 -18 -10 0.42 0.31
3 -18 10 0.31 0.26
3 18 10 0.35 0.32
3 -18 -10 0.29 0.28
3 -18 11 3.4 0.34
-3 -18 -11 3.32 0.39
-3 18 11 3.02 0.44
3 18 11 3.58 0.44
3 -18 -11 2.7 0.36
3 -18 12 0.06 0.22
-3 -18 -12 0.01 0.26
-3 18 12 -0.36 0.26
3 18 12 -0.15 0.27
-3 -18 -13 0.91 0.26
-4 18 0 2.51 0.42
4 -18 0 3.7 0.41
4 -18 0 2.72 0.49
-4 -18 0 2.83 0.42
-4 18 1 3.16 0.45
4 18 -1 3.36 0.67
4 -18 1 3.09 0.51
4 -18 1 3.45 0.41
-4 -18 -1 3.17 0.45
-4 -18 1 3.36 0.44
-4 18 -1 3.44 0.66
4 -18 -1 3.82 0.41
4 -18 -1 3.2 0.49
-4 -18 -2 2.51 0.36
4 -18 2 2.21 0.35
-4 18 2 1.57 0.41
-4 18 2 3.62 0.55
4 18 -2 1.73 0.41
4 -18 2 2.55 0.42
4 -18 -2 2 0.36
-4 -18 2 2.18 0.42
4 -18 -2 2.12 0.36
-4 18 3 21.69 1.53
-4 -18 -3 24.17 1.42
-4 18 3 23.91 1.44
4 -18 3 24.51 1.4
4 18 -3 24.15 1.58
-4 18 -3 20.88 1.53
4 -18 -3 23.16 1.43
-4 -18 3 22.26 1.41
4 -18 -3 23.43 1.38
-4 -18 -4 0.67 0.3
-4 18 4 1 0.35
4 18 -4 0.12 0.31
-4 18 4 -0.12 0.36
4 -18 4 0.1 0.26
-4 18 -4 -0.1 0.32
4 -18 -4 0.27 0.29
-4 18 5 26.4 1.87
4 18 -5 29.35 1.88
-4 18 5 28.95 1.75
4 -18 5 29.15 1.72
-4 -18 -5 31.5 1.74
-4 18 -5 30.72 1.87
4 -18 -5 30.28 1.76
4 18 5 28.1 1.79
-4 -18 5 28.8 1.74
-4 18 6 0.59 0.35
4 -18 6 0.07 0.26
4 18 -6 -0.27 0.3
4 -18 -6 0.1 0.28
-4 -18 6 0.5 0.27
4 18 6 0.38 0.39
-4 18 -6 -0.51 0.31
-4 18 7 24.17 1.5
4 -18 7 24.11 1.46
4 18 7 25.62 1.53
4 -18 -7 24.19 1.49
-4 -18 7 24.6 1.47
4 -18 8 -0.05 0.25
-4 18 8 0.39 0.33
4 -18 -8 -0.09 0.27
-4 -18 8 0.2 0.27
4 18 8 0.36 0.38
-4 18 9 13.61 0.92
4 -18 9 13.57 0.86
-4 -18 -9 12.22 0.89
4 18 9 14.18 0.94
-4 -18 9 14.15 0.87
4 -18 -9 13.54 0.9
4 -18 10 0.75 0.24
-4 -18 -10 0.57 0.31
-4 18 10 0.61 0.3
4 -18 -10 0.72 0.28
4 18 10 0.91 0.34
4 -18 11 2.53 0.31
-4 18 11 2.56 0.35
-4 -18 -11 2.35 0.36
4 18 11 2.81 0.37
4 -18 -11 2.07 0.35
-4 18 12 -0.01 0.26
-4 -18 -12 0.12 0.28
4 -18 12 0.28 0.21
4 18 12 0.13 0.29
-5 18 0 -0.08 0.3
5 18 0 -0.23 0.3
-5 -18 0 -0.2 0.25
5 -18 0 -0.2 0.32
5 -18 0 -0.31 0.26
5 -18 1 32.63 1.85
5 18 -1 33.46 2.03
5 -18 1 32.29 1.92
-5 -18 -1 30.46 1.87
-5 18 1 31.11 1.98
5 -18 -1 34.32 1.86
5 18 1 32.55 2.01
-5 -18 1 26.78 1.86
-5 18 -1 30.72 1.95
5 -18 -1 32.99 1.91
5 18 -2 1.22 0.37
-5 -18 -2 2.34 0.42
5 -18 2 1.64 0.32
-5 18 2 1.01 0.35
-5 -18 2 2.04 0.4
5 -18 -2 1.97 0.36
-5 18 -2 1.36 0.34
5 -18 -2 2.06 0.37
5 -18 3 26.53 1.63
5 18 -3 27.09 1.81
-5 18 3 26.23 1.67
-5 -18 -3 29.81 1.66
-5 18 3 26.3 1.78
5 -18 -3 29.45 1.69
5 -18 -3 29.26 1.63
-5 -18 3 26.99 1.66
-5 18 4 4.01 0.54
5 -18 4 2.78 0.38
5 18 -4 2.01 0.42
-5 -18 -4 3.41 0.46
5 -18 -4 3.28 0.48
-5 -18 4 4.14 0.46
-5 18 5 8.16 0.69
5 -18 5 7.67 0.58
5 18 -5 6.77 0.82
5 -18 -5 8.29 0.66
-5 -18 5 8.63 0.64
5 -18 6 3.33 0.38
-5 18 6 3.12 0.53
5 18 6 3.19 0.48
-5 -18 6 3.97 0.46
5 -18 -6 2.97 0.46
5 -18 7 0.12 0.25
-5 18 7 0.7 0.33
-5 -18 7 0.76 0.27
5 18 7 0.53 0.38
-5 18 8 1.74 0.37
5 -18 8 2.25 0.31
-5 -18 -8 1.72 0.39
5 -18 -8 2.26 0.35
-5 -18 8 2.76 0.39
5 18 8 1.48 0.41
-5 18 9 2.91 0.47
-5 -18 -9 2.69 0.42
5 -18 9 2.6 0.35
5 -18 -9 2.19 0.38
5 18 9 2.8 0.48
-5 18 10 0.5 0.3
-5 -18 -10 1.05 0.32
5 -18 10 0.66 0.24
5 18 10 0.44 0.33
-5 -18 10 0.96 0.25
5 -18 -10 0.46 0.26
5 -18 11 4 0.35
-5 18 11 3.35 0.42
-5 -18 -11 4.08 0.41
5 18 11 4.44 0.48
5 -18 -11 4.22 0.39
-5 -18 -12 -0.51 0.28
5 -18 12 0.06 0.2
5 18 12 -0.17 0.29
6 -18 0 4.92 0.44
-6 -18 0 4.66 0.49
6 -18 0 4.92 0.61
6 18 0 4.87 0.71
-6 18 0 4.47 0.66
6 -18 1 -0.27 0.37
-6 18 1 -0.09 0.31
6 -18 1 0.05 0.23
-6 -18 -1 0.2 0.28
6 18 -1 -0.23 0.3
6 18 1 0.03 0.3
6 -18 -1 -0.03 0.23
6 -18 -1 0.07 0.34
-6 18 -1 -0.08 0.29
-6 -18 1 0.12 0.25
6 18 -2 1.46 0.39
-6 18 2 1.34 0.36
6 -18 2 2.11 0.33
-6 18 -2 1.1 0.32
6 -18 -2 2.37 0.48
-6 18 3 1.13 0.33
-6 -18 -3 0.6 0.3
6 18 -3 0.2 0.32
6 -18 3 0.87 0.26
6 -18 -3 0.93 0.26
6 -18 -3 0.96 0.33
-6 -18 3 1.27 0.3
6 -18 4 0.72 0.25
-6 18 4 1.3 0.34
6 18 -4 0.07 0.32
6 -18 -4 0.84 0.31
-6 -18 4 1.14 0.29
6 -18 5 1.94 0.3
-6 18 5 2.23 0.38
6 -18 -5 1.67 0.34
-6 -18 5 2.42 0.42
6 -18 6 0.87 0.25
-6 18 6 1.22 0.33
6 -18 -6 0.85 0.3
-6 -18 -7 2.7 0.54
-6 18 7 3.78 0.52
6 -18 7 3.96 0.4
6 -18 -7 3.63 0.46
-6 -18 7 5.01 0.44
6 18 7 4.16 0.58
-6 -18 -8 0.01 0.34
-6 18 8 0.19 0.31
6 -18 8 0.02 0.22
6 18 8 -0.1 0.35
-6 -18 8 0.23 0.25
6 -18 -8 -0.22 0.25
-6 18 9 1.6 0.34
-6 -18 -9 2.28 0.38
6 -18 9 1.55 0.29
6 18 9 2.27 0.38
-6 -18 9 2.33 0.35
6 -18 -9 1.96 0.31
6 -18 10 0.11 0.2
-6 -18 -10 0.05 0.3
-6 18 10 0.12 0.28
-6 -18 10 0.49 0.23
6 -18 -10 -0.01 0.24
6 18 10 0.41 0.32
-6 -18 -11 0.31 0.31
6 -18 11 0.6 0.21
6 -18 -11 0.44 0.24
6 18 11 0.53 0.31
-6 -18 -12 -0.02 0.3
6 -18 12 0.31 0.2
6 18 12 -0.01 0.35
6 -18 -12 -0.05 0.23
7 -18 0 0.09 0.38
-7 18 0 -0.36 0.28
-7 -18 0 -0.13 0.27
7 18 0 -0.23 0.3
7 -18 0 -0.08 0.22
-7 -18 -1 0.42 0.29
-7 18 1 -0.17 0.3
7 -18 1 -0.23 0.41
7 -18 1 0.45 0.23
7 18 -1 0.2 0.32
7 -18 -1 0.38 0.36
-7 18 -1 0.15 0.29
7 18 1 -0.2 0.27
-7 -18 1 0.49 0.28
7 -18 -1 0.57 0.24
-7 -18 -2 0.7 0.3
7 18 -2 0.29 0.33
7 -18 2 0.92 0.25
7 -18 -2 0.69 0.23
-7 -18 2 0.69 0.28
7 -18 -2 0.85 0.35
-7 18 3 2.26 0.37
7 -18 3 1.87 0.3
7 -18 -3 1.76 0.32
7 -18 -3 2.08 0.37
-7 -18 3 2.17 0.42
7 -18 4 0.16 0.24
-7 18 4 0.54 0.32
7 18 -4 -0.4 0.26
-7 -18 4 0.52 0.27
7 -18 -4 0.16 0.29
-7 18 5 0.93 0.32
7 -18 5 0.69 0.25
-7 -18 5 1.15 0.28
7 -18 -5 0.58 0.29
-7 -18 -6 -0.07 0.41
-7 18 6 0.74 0.32
7 -18 6 0.64 0.24
7 -18 -6 1.04 0.29
-7 -18 6 1.25 0.28
-7 -18 -7 -0.04 0.39
-7 18 7 -0.04 0.31
7 -18 7 -0.13 0.21
-7 -18 7 0.28 0.25
7 -18 -7 -0.18 0.25
7 18 7 -0.3 0.26
-7 -18 -8 0.89 0.37
7 -18 8 0.43 0.22
-7 18 8 0.68 0.32
7 -18 -8 0.53 0.26
-7 -18 8 0.88 0.25
7 18 8 0.67 0.35
-7 -18 -9 0.84 0.34
-7 18 9 1.1 0.31
7 -18 9 0.81 0.22
7 18 9 0.84 0.34
-7 -18 9 1.27 0.26
7 -18 -9 0.88 0.27
7 -18 10 0.13 0.2
-7 -18 -10 -0.09 0.31
7 18 10 0.06 0.32
-7 -18 10 0.38 0.22
7 -18 -10 0.13 0.23
7 -18 11 1.41 0.24
-7 -18 -11 1.14 0.33
7 18 11 1.48 0.33
7 -18 -11 0.88 0.25
-8 18 0 12.62 0.96
-8 -18 -1 0.48 0.29
8 18 -1 -0.03 0.28
8 -18 1 0.21 0.23
-8 -18 1 0.45 0.29
8 18 1 -0.13 0.28
8 -18 -1 0.39 0.23
8 -18 -1 0.19 0.36
8 -18 2 5.64 0.47
-8 -18 -2 5.12 0.52
-8 -18 2 5.32 0.51
8 -18 -2 5.89 0.6
8 -18 -2 5.72 0.46
8 -18 3 2.12 0.34
-8 18 3 2.89 0.37
8 -18 -3 2.53 0.4
-8 -18 3 2.67 0.41
8 -18 -3 2.42 0.33
8 -18 4 2.27 0.3
-8 18 4 1.36 0.34
-8 -18 4 2.01 0.32
8 -18 -4 1.4 0.34
8 -18 5 10.87 0.72
-8 18 5 11.39 0.8
-8 -18 5 10.89 0.78
8 -18 -5 11.42 0.79
8 -18 6 1.41 0.25
-8 18 6 1.35 0.33
-8 -18 -6 1.08 0.44
-8 -18 6 1.62 0.3
8 -18 -6 1.61 0.33
-8 18 7 11.94 0.85
-8 -18 -7 11.9 0.88
8 -18 7 12.71 0.79
8 -18 -7 13.09 0.83
-8 -18 7 12.81 0.82
8 -18 8 0.2 0.2
-8 18 8 -0.07 0.29
-8 -18 -8 0.48 0.36
-8 -18 8 0.48 0.23
8 -18 -8 -0.01 0.23
-8 -18 -9 7.67 0.63
8 -18 9 7.78 0.54
-8 -18 9 8.15 0.56
8 -18 -9 8.06 0.58
-8 -18 -10 0.71 0.32
8 -18 10 0.66 0.22
-8 -18 10 0.63 0.23
8 -18 -10 0.59 0.23
-8 18 11 1.37 0.31
-8 -18 -11 1.98 0.36
8 -18 11 2.22 0.29
8 -18 -11 2.02 0.31
9 -18 0 -0.32 0.21
-9 -18 0 -0.09 0.27
-9 -18 -1 30.23 1.77
9 -18 1 31.13 1.75
9 -18 -1 26.68 1.82
-9 -18 1 32.11 1.79
9 -18 -1 30.13 1.75
9 -18 2 4.8 0.44
9 -18 -2 5.02 0.42
-9 -18 2 5.25 0.51
9 -18 -2 5.62 0.59
-9 18 3 23.28 1.49
9 -18 3 24.98 1.46
-9 -18 3 24.65 1.5
9 -18 -3 26.32 1.54
9 -18 4 2.06 0.31
-9 18 4 2.4 0.36
-9 -18 4 2.79 0.42
9 -18 -4 2.31 0.44
9 -18 5 7.73 0.53
-9 18 5 7.06 0.61
-9 -18 5 7.54 0.6
9 -18 -5 7.58 0.62
9 -18 6 4.06 0.36
-9 18 6 3.03 0.47
-9 -18 -6 3.03 0.54
9 -18 -6 3.79 0.44
-9 -18 6 3.96 0.42
-9 18 7 0.23 0.3
-9 -18 -7 0.93 0.39
9 -18 7 0.22 0.21
9 -18 -7 0.07 0.24
-9 -18 7 0.51 0.24
9 -18 8 2.55 0.31
-9 -18 -8 2.42 0.44
9 -18 -8 3.03 0.36
-9 -18 8 3.06 0.36
9 -18 9 2.7 0.31
-9 -18 -9 2.76 0.4
9 -18 -9 2.34 0.34
-9 -18 9 3.41 0.34
-9 -18 -10 1 0.34
9 -18 10 1.01 0.23
9 -18 -10 1.3 0.26
-9 -18 10 0.73 0.24
10 -18 0 0.33 0.21
-10 -18 0 -0.36 0.26
10 -18 1 1.04 0.24
-10 -18 1 0.75 0.3
10 -18 -1 1.16 0.24
10 -18 2 0.35 0.21
10 -18 -2 0.3 0.2
10 -18 -2 0.38 0.34
-10 -18 2 0.08 0.27
-10 18 3 4.58 0.52
10 -18 3 4.91 0.41
-10 -18 3 4.77 0.48
10 -18 -3 5.37 0.53
10 -18 4 0.68 0.22
-10 18 4 0.26 0.29
10 -18 -4 0.39 0.31
-10 -18 4 0.57 0.27
10 -18 5 8.4 0.56
-10 -18 -5 7.47 0.71
-10 18 5 7.85 0.62
-10 -18 5 8.36 0.62
10 -18 -5 8.85 0.64
10 -18 6 0.11 0.2
-10 -18 -6 0.17 0.4
-10 18 6 -0.08 0.27
10 -18 -6 0.08 0.25
-10 -18 6 0.37 0.24
-10 -18 -7 7.22 0.65
10 -18 7 8.27 0.56
-10 -18 7 8.62 0.59
10 -18 -7 8.7 0.6
10 -18 8 0.6 0.22
-10 -18 -8 0.71 0.37
-10 -18 8 0.83 0.23
10 -18 -8 0.4 0.25
10 -18 9 3.43 0.34
-10 -18 -9 3.09 0.43
-10 -18 9 3.65 0.35
10 -18 -9 3.33 0.37
11 -18 0 -0.08 0.18
11 -18 1 0.67 0.21
11 -18 -1 0.71 0.21
11 -18 2 0.09 0.19
-11 18 2 -0.39 0.24
-11 -18 2 -0.31 0.26
-11 18 3 0.62 0.28
11 -18 3 0.79 0.21
-11 -18 3 0.68 0.28
11 -18 -3 0.3 0.28
-11 18 4 0 0.27
11 -18 4 -0.03 0.19
-11 -18 4 -0.16 0.25
11 -18 -4 -0.04 0.28
11 -18 5 0.27 0.21
-11 -18 -5 -0.13 0.37
-11 18 5 -0.23 0.26
-11 -18 5 -0.03 0.24
11 -18 -5 -0.08 0.25
11 -18 6 0.58 0.22
-11 -18 -6 0.02 0.37
11 -18 -6 0.33 0.26
-11 -18 6 0.51 0.24
11 -18 7 0.06 0.21
-11 -18 -7 -0.26 0.36
11 -18 -7 -0.08 0.24
-11 -18 7 0.25 0.22
-11 -18 -8 0.38 0.36
11 -18 8 0.42 0.24
-11 -18 8 0.48 0.22
11 -18 -8 0.26 0.25
12 -18 0 0.97 0.22
12 -18 1 0.47 0.2
-12 18 2 0.06 0.24
-12 -18 2 -0.11 0.26
-12 18 3 2.46 0.38
12 -18 3 3.84 0.32
-12 -18 3 3.35 0.39
12 -18 4 0.18 0.21
-12 -18 4 0.24 0.26
12 -18 5 6.25 0.45
-12 -18 -5 4.58 0.56
-12 -18 5 6.49 0.49
12 -18 6 -0.03 0.22
-12 -18 6 0.35 0.23
12 -18 -6 0.01 0.25
12 -18 7 5.72 0.43
-12 -18 7 6.6 0.46
12 -18 -7 5.34 0.48
-13 18 1 11.03 0.71
-13 18 2 0.08 0.21
13 -18 2 0.85 0.23
13 -18 3 6.89 0.49
13 -18 4 2.27 0.29
13 -18 5 1.04 0.19
-13 -18 5 0.74 0.23
0 -19 0 -0.35 0.26
0 19 1 -0.1 0.35
0 -19 -1 0.1 0.27
0 -19 1 -0.23 0.28
0 -19 -2 -0.09 0.27
0 19 -2 -0.34 0.29
0 -19 2 -0.36 0.29
0 19 2 0.86 0.38
0 -19 3 0.16 0.3
0 19 3 0.74 0.39
0 19 -3 -0.26 0.29
0 -19 -3 -0.13 0.25
0 19 -4 -0.48 0.28
0 -19 -4 -0.17 0.26
0 -19 4 0.02 0.3
0 19 4 0.84 0.37
0 -19 -5 -0.28 0.27
0 -19 5 0.2 0.31
0 19 5 0.56 0.38
0 -19 -6 -0.32 0.29
0 -19 6 0.12 0.3
0 19 6 0.78 0.37
0 -19 -7 -0.1 0.29
0 19 7 0.41 0.34
0 19 8 0.18 0.32
0 -19 -8 -0.13 0.28
0 -19 -9 -0.14 0.27
0 -19 9 -0.08 0.3
0 19 9 0.17 0.29
0 19 10 -0.1 0.27
0 19 11 0.21 0.27
0 19 12 -0.17 0.26
-1 19 0 5.01 0.6
1 -19 0 4.12 0.51
-1 -19 0 4.26 0.5
1 -19 1 0.33 0.29
-1 -19 -1 0.42 0.28
-1 -19 1 0.32 0.29
1 -19 -1 0.36 0.29
1 19 -2 8.59 0.85
1 -19 2 9.26 0.72
-1 -19 -2 7.84 0.68
-1 19 2 11.06 0.8
-1 -19 2 9.5 0.71
1 -19 -2 9.36 0.71
1 -19 3 0.7 0.33
-1 19 3 1.42 0.38
-1 -19 -3 0.27 0.27
-1 -19 3 0.71 0.31
1 19 3 1.22 0.39
1 -19 -3 0.54 0.3
-1 19 4 3.52 0.59
-1 -19 -4 2.36 0.35
1 -19 4 2.62 0.47
1 -19 -4 1.94 0.42
-1 -19 4 2.72 0.46
1 19 4 3.49 0.58
-1 19 5 0.93 0.37
1 19 -5 -0.37 0.3
1 -19 5 0.09 0.24
-1 -19 -5 0.14 0.29
1 -19 5 0.26 0.31
-1 -19 5 0.74 0.32
1 19 5 1.05 0.39
1 -19 -5 0.31 0.28
-1 -19 -6 0 0.3
1 -19 6 0.11 0.22
-1 19 6 0.69 0.36
1 -19 -6 -0.17 0.28
-1 -19 6 0.52 0.3
1 19 6 0.53 0.37
-1 -19 -7 0.07 0.3
-1 19 7 0.66 0.34
1 -19 7 0.27 0.28
1 19 7 0.69 0.36
1 -19 -7 0.12 0.29
-1 -19 7 0.35 0.29
-1 -19 -8 1.15 0.32
1 -19 8 1.67 0.31
-1 19 8 1.45 0.36
1 19 8 1.53 0.37
-1 19 9 0.13 0.29
1 -19 9 0.33 0.26
1 -19 -9 0.2 0.28
1 19 9 0.04 0.31
-1 19 10 3.03 0.42
1 -19 10 3.19 0.35
1 19 10 2.9 0.46
-1 19 11 -0.04 0.26
1 -19 11 0.18 0.2
1 19 11 -0.12 0.27
-1 19 12 2.16 0.36
1 19 12 2.24 0.37
-2 -19 0 -0.14 0.27
-2 19 0 0.8 0.39
2 -19 0 -0.33 0.28
-2 -19 -1 0.34 0.27
2 -19 1 0.21 0.3
-2 19 1 1.3 0.39
2 19 -1 -0.04 0.29
2 -19 -1 0.25 0.29
-2 19 -1 1.08 0.4
-2 -19 1 0.42 0.29
-2 19 2 15.52 0.99
-2 -19 -2 11.64 0.9
2 -19 2 13.66 0.94
2 19 -2 13.55 1.09
-2 -19 2 13.56 0.92
2 -19 -2 14.55 0.93
2 -19 3 0.01 0.2
-2 -19 -3 0.48 0.28
2 19 -3 -0.04 0.33
-2 19 3 -0.37 0.37
2 -19 3 0.62 0.32
-2 19 3 1.24 0.38
-2 -19 3 0.74 0.3
2 -19 -3 0.33 0.29
2 19 3 0.53 0.39
2 -19 4 20.44 1.3
-2 19 4 16.93 1.42
-2 19 4 21.96 1.32
2 -19 4 20.94 1.26
-2 -19 -4 21.42 1.28
2 19 -4 21.27 1.43
2 -19 -4 21.63 1.3
-2 19 -4 19.75 1.41
-2 -19 4 20.43 1.28
2 19 4 21.3 1.33
2 -19 5 -0.13 0.28
-2 19 5 0.93 0.36
-2 -19 -5 -0.07 0.29
2 -19 -5 0.02 0.28
-2 -19 5 0.42 0.3
2 19 5 0.43 0.38
-2 19 6 17.61 1.17
-2 -19 -6 18.93 1.14
2 -19 6 18.34 1.11
-2 -19 6 17.54 1.13
2 -19 -6 16.91 1.14
2 19 6 18.22 1.18
-2 -19 -7 0.3 0.31
2 -19 7 0.74 0.29
-2 19 7 1.08 0.35
2 -19 -7 0.44 0.29
2 19 7 0.8 0.36
-2 -19 7 0.93 0.3
2 -19 8 16.24 0.98
-2 19 8 15.07 1.04
2 -19 -8 16.21 1.02
2 19 8 16.23 1.06
-2 -19 8 15.07 0.99
2 -19 9 0.39 0.26
-2 19 9 0.33 0.3
2 -19 -9 -0.08 0.28
2 19 9 0.2 0.31
-2 19 10 4.61 0.49
2 -19 10 4.62 0.41
2 19 10 4.07 0.49
2 -19 -10 4.92 0.45
2 -19 11 0.02 0.21
-2 19 11 -0.28 0.26
2 19 11 0.15 0.28
-2 19 12 0.23 0.26
2 -19 12 0.55 0.18
2 19 12 0.49 0.28
-3 19 0 23.72 1.4
-3 -19 0 20.69 1.35
3 -19 0 22.07 1.38
3 -19 1 1.7 0.36
3 19 -1 1.24 0.36
-3 -19 -1 1.58 0.31
-3 19 1 0.76 0.38
3 -19 1 1.47 0.33
-3 -19 1 2.02 0.41
3 -19 -1 1.63 0.34
3 -19 2 28.05 1.71
-3 19 2 25.88 1.8
-3 -19 -2 25.54 1.68
-3 19 2 29.26 1.71
3 19 -2 28.92 1.82
3 -19 2 31.12 1.67
-3 -19 2 28 1.69
3 -19 -2 29.03 1.71
-3 -19 -3 0.98 0.3
3 -19 3 0.74 0.31
3 19 -3 0.27 0.31
3 -19 3 1.28 0.35
-3 19 3 0.26 0.38
3 -19 -3 0.71 0.3
-3 -19 3 1.27 0.3
-3 -19 -4 8.77 0.66
-3 19 4 8.84 0.73
3 19 -4 6.23 0.82
3 -19 4 9.75 0.64
3 -19 -4 7.95 0.67
-3 -19 4 8.37 0.65
3 19 4 6.59 0.74
-3 -19 -5 1.36 0.33
3 -19 5 1.54 0.32
3 19 5 2.51 0.42
-3 -19 5 2.06 0.43
3 -19 -5 1.52 0.34
-3 -19 -6 0.11 0.29
-3 19 6 0.59 0.34
3 -19 6 0.44 0.27
3 19 6 0.47 0.38
-3 -19 6 0.7 0.3
3 -19 -6 0.22 0.29
3 -19 7 1.88 0.33
-3 19 7 2.52 0.39
-3 -19 7 2.24 0.42
3 -19 -7 2.08 0.35
3 19 7 2.7 0.43
-3 19 8 3.3 0.46
3 -19 8 2.73 0.37
3 19 8 3.36 0.5
3 -19 -8 2.3 0.39
-3 -19 8 3.86 0.41
-3 19 9 0.79 0.31
3 -19 9 0.27 0.25
3 19 9 0.66 0.34
3 -19 -9 0.53 0.28
3 -19 10 6.22 0.48
-3 19 10 6.01 0.55
3 -19 -10 6.39 0.5
3 19 10 6.84 0.56
-3 19 11 0.09 0.25
3 -19 11 0.04 0.2
3 19 11 -0.14 0.28
3 -19 12 5.04 0.37
-3 19 12 4.54 0.43
3 19 12 5.55 0.48
-4 -19 0 -0.28 0.25
4 -19 0 -0.25 0.26
4 -19 0 -0.41 0.29
4 -19 1 1.14 0.35
-4 -19 -1 0.72 0.3
-4 19 1 2.09 0.39
-4 19 1 0.33 0.35
4 -19 1 1.28 0.3
-4 -19 1 1.17 0.3
4 -19 -1 1.02 0.29
4 -19 -1 1.1 0.33
4 -19 2 0.91 0.3
4 -19 2 1.14 0.36
-4 -19 -2 1.32 0.31
-4 19 2 0.31 0.36
-4 19 2 1.76 0.37
4 -19 -2 0.92 0.32
4 -19 -2 1 0.28
-4 -19 2 1.2 0.3
4 -19 3 -0.18 0.32
-4 -19 -3 0.24 0.29
4 -19 3 0.42 0.28
-4 19 3 0.95 0.34
4 19 -3 -0.24 0.3
-4 -19 3 0.47 0.28
4 -19 -3 0.01 0.29
4 -19 -3 0.32 0.26
4 -19 4 2.06 0.33
-4 19 4 2.36 0.38
-4 -19 -4 2.05 0.35
-4 -19 4 2.26 0.42
4 -19 -4 1.87 0.35
-4 19 5 0.65 0.33
-4 -19 -5 -0.31 0.29
4 -19 5 0.1 0.26
4 -19 -5 -0.06 0.27
-4 -19 5 0.63 0.29
4 19 5 0.14 0.38
-4 19 6 2.95 0.41
4 -19 6 2.24 0.37
4 -19 -6 2.56 0.43
4 19 6 3.12 0.45
-4 -19 6 3.2 0.42
-4 19 7 0.26 0.32
4 -19 7 0.3 0.24
4 19 7 0.51 0.37
4 -19 -7 0.09 0.26
-4 -19 7 0.67 0.27
4 -19 8 1.95 0.34
-4 19 8 2.61 0.37
4 -19 -8 1.83 0.4
4 19 8 2.45 0.42
-4 -19 8 3 0.37
-4 19 9 0.23 0.29
4 -19 9 -0.06 0.22
-4 -19 9 0.4 0.24
4 19 9 -0.17 0.32
4 -19 -9 -0.27 0.25
4 -19 10 0.18 0.21
-4 19 10 0.34 0.27
4 19 10 0.26 0.3
4 -19 -10 0.28 0.25
4 -19 11 0.19 0.2
-4 19 11 0 0.27
4 -19 -11 0.17 0.2
4 19 11 0.46 0.29
-5 -19 0 2.42 0.43
5 -19 0 2.9 0.51
5 -19 0 2.92 0.39
-5 -19 -1 0.09 0.28
5 19 -1 -0.37 0.29
-5 19 1 0.87 0.33
5 -19 1 -0.03 0.26
5 -19 1 0.43 0.34
-5 19 1 -0.43 0.31
5 -19 -1 -0.06 0.31
5 -19 -1 0.02 0.26
-5 -19 1 0.13 0.26
5 -19 2 5.39 0.47
5 19 -2 3.82 0.71
-5 19 2 5.88 0.58
5 -19 2 4.77 0.59
-5 -19 -2 5.21 0.53
5 -19 -2 5.22 0.56
5 -19 -2 5.61 0.47
-5 -19 2 5.38 0.52
-5 -19 -3 0.07 0.28
-5 19 3 0.66 0.31
5 19 -3 -0.21 0.3
5 -19 3 0.01 0.25
5 -19 -3 0.12 0.3
5 -19 -3 0.3 0.25
-5 -19 3 0.39 0.28
5 -19 4 4.66 0.43
-5 19 4 3.98 0.55
-5 -19 -4 4.13 0.48
-5 -19 4 4.66 0.49
5 -19 -4 3.96 0.5
5 -19 5 0.2 0.24
-5 -19 -5 -0.37 0.27
-5 19 5 0.3 0.32
5 -19 -5 0.03 0.26
-5 -19 5 0.65 0.27
-5 19 6 0.76 0.33
5 -19 6 0.62 0.25
-5 -19 6 0.93 0.28
5 19 6 0.45 0.37
5 -19 -6 0.49 0.29
5 -19 7 0.3 0.23
-5 19 7 0.59 0.33
5 -19 -7 0.18 0.26
5 19 7 0.24 0.36
-5 -19 7 0.89 0.28
-5 19 8 0.53 0.3
5 -19 8 0.17 0.22
5 -19 -8 0.14 0.26
5 19 8 0.39 0.34
-5 -19 8 0.62 0.26
5 -19 9 0.3 0.2
-5 19 9 0.23 0.29
5 -19 -9 0.03 0.25
-5 -19 9 0.58 0.25
5 19 9 0.39 0.33
5 -19 10 1.01 0.22
-5 19 10 0.81 0.29
5 19 10 0.91 0.32
5 -19 -10 0.72 0.26
-5 19 11 -0.22 0.24
5 -19 11 -0.1 0.2
5 19 11 -0.08 0.3
5 -19 -11 -0.29 0.2
-6 -19 0 -0.16 0.27
6 -19 0 0.06 0.24
6 19 0 -0.22 0.27
6 -19 0 -0.12 0.33
6 -19 1 0.86 0.27
6 -19 1 0.45 0.37
-6 -19 -1 0.73 0.3
-6 -19 1 0.79 0.29
6 -19 -1 0.88 0.27
6 -19 -1 0.71 0.35
-6 19 2 1.45 0.33
6 -19 2 1.03 0.27
-6 -19 -2 0.97 0.31
6 -19 -2 1.3 0.28
6 -19 -2 1.03 0.34
-6 -19 2 1.16 0.3
6 -19 3 1.95 0.3
-6 19 3 1.72 0.35
-6 -19 -3 1.47 0.34
-6 -19 3 1.85 0.39
6 -19 -3 1.79 0.36
6 -19 -3 1.82 0.33
6 -19 4 9.91 0.68
-6 19 4 9.87 0.75
-6 -19 -4 9.21 0.72
-6 -19 4 10.39 0.73
6 -19 -4 10.05 0.73
6 -19 5 0.52 0.25
-6 19 5 0.78 0.33
-6 -19 5 1 0.28
6 -19 -5 0.73 0.28
6 -19 6 15 0.91
-6 19 6 14.37 0.98
6 -19 -6 14.69 0.95
-6 -19 6 14.52 0.94
6 -19 7 0.34 0.23
-6 19 7 0.78 0.31
6 19 7 0.58 0.33
6 -19 -7 0.38 0.26
6 -19 8 10.82 0.69
-6 19 8 9.6 0.73
6 -19 -8 10.6 0.72
6 19 8 10.82 0.77
-6 -19 8 10.86 0.71
6 -19 9 0 0.2
-6 19 9 0.08 0.29
6 -19 -9 0.16 0.23
-6 -19 9 0.21 0.23
6 19 9 0.12 0.31
-6 19 10 3.29 0.43
6 -19 10 4.66 0.37
6 19 10 4.22 0.48
6 -19 -10 4.86 0.41
6 -19 11 0.2 0.2
6 -19 -11 0.13 0.24
6 19 11 0.07 0.3
-7 -19 0 8.3 0.64
7 -19 0 8.25 0.72
7 -19 0 7.42 0.58
7 -19 1 1.38 0.27
-7 -19 -1 1.3 0.33
7 -19 -1 1.44 0.38
-7 -19 1 1.53 0.32
7 -19 -1 1.36 0.27
-7 -19 -2 16.99 1.03
7 -19 2 16.22 0.99
-7 19 2 15.09 1.03
-7 -19 2 16.12 1.03
7 -19 -2 15.61 1.06
7 -19 -2 15.33 0.98
-7 19 3 2.9 0.38
-7 -19 -3 1.45 0.33
7 -19 3 2.16 0.31
-7 -19 3 2.36 0.43
7 -19 -3 2.34 0.37
7 -19 4 12.4 0.75
-7 19 4 11.05 0.82
7 -19 -4 11.87 0.82
-7 -19 4 10.99 0.79
7 -19 5 0.45 0.23
-7 19 5 0.69 0.32
7 -19 -5 0.59 0.28
-7 -19 5 0.62 0.26
-7 19 6 0.66 0.32
7 -19 6 0.94 0.24
7 -19 -6 0.61 0.27
-7 -19 6 0.96 0.27
7 -19 7 0.36 0.21
-7 19 7 -0.03 0.29
7 -19 -7 0.23 0.25
-7 -19 7 0.7 0.24
7 -19 8 1.7 0.26
-7 19 8 1.6 0.33
7 -19 -8 1.4 0.28
-7 -19 8 2.31 0.33
7 -19 9 0.34 0.2
-7 19 9 -0.11 0.27
-7 -19 9 0.43 0.23
7 19 9 -0.05 0.32
7 -19 -9 0.25 0.22
7 -19 10 4.65 0.38
7 -19 -10 4.98 0.43
8 -19 0 -0.09 0.3
-8 -19 0 -0.31 0.28
8 -19 0 -0.12 0.22
8 -19 1 0.37 0.23
-8 -19 -1 0.09 0.28
8 -19 -1 0.36 0.23
8 -19 -1 0.29 0.35
-8 -19 1 0.24 0.28
8 -19 2 0.53 0.23
-8 19 2 0.22 0.28
-8 -19 -2 -0.34 0.28
8 -19 -2 0.65 0.23
8 -19 -2 0.1 0.33
-8 -19 2 0.46 0.28
-8 19 3 0.76 0.3
8 -19 3 1.05 0.25
-8 -19 3 1.26 0.3
8 -19 -3 0.78 0.33
-8 19 4 3.51 0.49
8 -19 4 3.93 0.38
-8 -19 4 3.86 0.44
8 -19 -4 3.46 0.47
8 -19 5 0.83 0.23
-8 19 5 0.84 0.31
8 -19 -5 0.66 0.29
-8 -19 5 0.95 0.27
-8 19 6 5.36 0.53
8 -19 6 6.15 0.46
-8 -19 6 6.43 0.51
8 -19 -6 6.38 0.52
-8 19 7 -0.15 0.29
8 -19 7 -0.08 0.2
8 -19 -7 -0.22 0.23
-8 -19 7 0.41 0.23
8 -19 8 4.78 0.38
-8 19 8 3.65 0.45
-8 -19 8 5.03 0.41
8 -19 -8 4.62 0.42
8 -19 9 0.18 0.2
-8 -19 9 0.26 0.23
8 -19 -9 0.01 0.24
9 -19 0 2.07 0.28
-9 -19 0 1.61 0.33
-9 -19 -1 -0.33 0.27
9 -19 1 0.16 0.21
9 -19 -1 0.1 0.3
9 -19 -1 0.05 0.2
-9 -19 1 -0.13 0.28
-9 19 2 0.75 0.29
9 -19 2 1.28 0.24
-9 -19 2 1.02 0.3
9 -19 -2 1.19 0.35
9 -19 -2 1.34 0.24
9 -19 3 0.12 0.2
-9 19 3 0.02 0.27
-9 -19 3 0.16 0.27
9 -19 -3 0.21 0.31
-9 19 4 1.09 0.31
9 -19 4 1.49 0.27
-9 -19 4 1.67 0.3
9 -19 -4 1.25 0.32
9 -19 5 0.27 0.2
-9 19 5 0.19 0.28
9 -19 -5 0.3 0.27
-9 -19 5 0.28 0.25
-9 19 6 0.32 0.29
9 -19 6 0.26 0.2
-9 -19 6 0.45 0.24
9 -19 -6 -0.06 0.25
-9 19 7 0.34 0.28
9 -19 7 0.8 0.22
9 -19 -7 0.53 0.25
-9 -19 7 0.9 0.24
9 -19 8 0.07 0.21
9 -19 -8 -0.11 0.23
-9 -19 8 0.3 0.22
9 -19 9 0.27 0.22
9 -19 -9 0.35 0.24
-9 -19 9 0.43 0.22
10 -19 0 -0.04 0.19
10 -19 1 0.94 0.22
-10 -19 1 0.73 0.3
10 -19 -1 1.03 0.22
10 -19 2 1.98 0.28
-10 19 2 2.25 0.32
-10 -19 2 1.97 0.39
-10 19 3 0.37 0.27
10 -19 3 0.51 0.21
10 -19 -3 0.55 0.31
-10 -19 3 0.42 0.28
10 -19 4 11.54 0.7
-10 19 4 9.7 0.74
10 -19 -4 11.6 0.77
-10 -19 4 10.58 0.74
-10 19 5 0.7 0.28
10 -19 5 0.65 0.22
10 -19 -5 0.87 0.28
-10 -19 5 1.15 0.27
10 -19 6 13.12 0.78
-10 19 6 11.3 0.81
-10 -19 6 12.6 0.81
10 -19 -6 13.02 0.82
10 -19 7 0.43 0.22
-10 -19 7 0.59 0.24
10 -19 -7 0.27 0.24
10 -19 8 7.9 0.55
-10 -19 8 8.17 0.57
10 -19 -8 8.56 0.59
11 -19 0 18.83 1.12
11 -19 1 -0.13 0.19
-11 19 1 -0.24 0.23
11 -19 2 14.21 0.85
-11 19 2 12.61 0.87
-11 -19 2 14.51 0.89
11 -19 3 0.91 0.22
-11 19 3 0.46 0.27
-11 -19 3 0.79 0.28
11 -19 4 5.08 0.41
-11 -19 4 5.25 0.48
11 -19 5 1.17 0.24
-11 -19 5 1.19 0.27
11 -19 -5 1.2 0.29
11 -19 6 0.3 0.22
11 -19 -6 0.08 0.26
-11 -19 6 0.42 0.24
12 -19 1 0.28 0.21
-12 19 1 0.13 0.22
12 -19 2 1.51 0.26
-12 19 2 1.15 0.27
-12 19 3 -0.29 0.22
12 -19 3 0.11 0.21
12 -19 4 4.72 0.38
-12 -19 4 4.14 0.41
12 -19 5 -0.09 0.24
-12 -19 5 0.15 0.24
-13 19 0 -0.22 0.19
-13 19 -1 -0.24 0.2
0 -20 0 2.14 0.43
0 20 1 4.5 0.6
0 -20 1 4.92 0.52
0 -20 -1 4.58 0.51
0 -20 -2 3.05 0.46
0 -20 2 3.63 0.47
0 20 3 9.58 0.76
0 -20 3 8.33 0.69
0 -20 -3 8.65 0.69
0 -20 -4 2.04 0.36
0 20 4 2.62 0.42
0 -20 4 2.27 0.37
0 20 5 27.71 1.65
0 -20 5 26.5 1.64
0 -20 -5 27.93 1.65
0 -20 6 0.17 0.29
0 20 6 0.49 0.34
0 -20 -6 -0.27 0.28
0 20 7 24.04 1.54
0 -20 -7 26.57 1.53
0 -20 -8 4.34 0.47
0 20 8 5.05 0.53
0 20 9 11.08 0.77
0 20 10 2.42 0.34
0 20 11 3.17 0.37
-1 20 0 0.53 0.39
1 -20 0 -0.21 0.27
-1 -20 0 -0.26 0.26
-1 20 1 8.77 0.71
1 -20 1 7.24 0.63
-1 -20 -1 7.06 0.62
1 -20 -1 7.32 0.63
-1 -20 1 7.23 0.62
-1 -20 -2 0.8 0.3
1 -20 2 1 0.32
-1 20 2 1.97 0.4
1 20 2 0.84 0.38
-1 -20 2 1.16 0.31
1 -20 -2 0.99 0.31
1 -20 3 10.09 0.75
-1 20 3 11.31 0.82
-1 -20 -3 9.47 0.74
1 -20 -3 9.8 0.73
-1 -20 3 9.65 0.74
1 20 3 10.33 0.8
1 -20 4 2.71 0.45
-1 20 4 4.06 0.55
-1 -20 -4 2.36 0.37
1 -20 -4 2.5 0.37
1 20 4 3.61 0.57
-1 -20 4 2.94 0.46
1 -20 5 2.35 0.45
-1 -20 -5 2.04 0.43
-1 -20 5 2.45 0.44
1 20 5 2.75 0.42
1 -20 -5 2.04 0.43
-1 20 6 4.18 0.55
-1 -20 -6 2.89 0.46
1 -20 -6 3.01 0.46
-1 -20 6 3.68 0.46
1 20 6 4.23 0.54
-1 20 7 0.92 0.32
-1 -20 -7 0.33 0.3
1 -20 7 0.12 0.21
1 -20 -7 0.02 0.28
-1 -20 7 0.59 0.28
1 20 7 0.66 0.34
-1 -20 -8 0.96 0.31
-1 20 8 1.53 0.32
1 20 8 1.71 0.35
1 -20 -8 1.18 0.31
-1 20 9 1.92 0.33
1 20 9 2.51 0.35
1 -20 -9 1.77 0.31
-1 20 10 0.15 0.25
1 20 10 -0.1 0.27
-1 20 11 2.08 0.31
1 20 11 2.03 0.32
2 -20 0 1.63 0.34
-2 -20 0 1.66 0.33
-2 -20 -1 0.1 0.27
-2 20 1 0.97 0.39
2 -20 1 -0.06 0.29
-2 20 -1 0.86 0.39
2 -20 -1 -0.02 0.28
-2 -20 1 -0.08 0.27
-2 20 2 1.28 0.37
2 -20 2 0.48 0.31
2 20 -2 -0.42 0.37
-2 -20 -2 0.28 0.28
-2 -20 2 0.74 0.29
2 -20 -2 0.45 0.29
2 -20 3 0.61 0.32
-2 -20 -3 0.03 0.28
2 -20 3 0.06 0.2
2 -20 -3 0.23 0.28
-2 -20 3 0.71 0.29
2 20 3 0.02 0.36
2 -20 4 0.21 0.23
2 -20 4 0.44 0.32
-2 -20 -4 0.36 0.29
-2 -20 4 0.49 0.29
2 20 4 0.77 0.37
2 -20 -4 0.23 0.28
2 -20 5 0.38 0.27
-2 -20 -5 0.15 0.29
-2 20 5 0.94 0.34
2 20 5 0.68 0.37
-2 -20 5 0.52 0.3
2 -20 -5 0.05 0.28
2 -20 6 0.52 0.26
-2 -20 -6 -0.12 0.31
-2 20 6 0.66 0.33
-2 -20 6 0.26 0.29
2 -20 -6 -0.14 0.27
2 20 6 0.51 0.36
-2 -20 -7 0.51 0.3
2 -20 7 0.67 0.27
-2 20 7 0.56 0.3
2 -20 -7 0.46 0.28
-2 -20 7 0.84 0.29
2 20 7 0.94 0.35
2 -20 8 -0.04 0.24
-2 20 8 -0.35 0.27
2 -20 -8 -0.3 0.26
2 20 8 -0.15 0.31
-2 20 9 0.05 0.28
2 -20 9 0.03 0.21
2 20 9 0.24 0.31
2 -20 -9 -0.13 0.25
2 -20 10 0.09 0.17
-2 20 10 -0.06 0.26
2 20 10 -0.17 0.28
2 -20 -10 0.07 0.23
-2 20 11 -0.09 0.26
2 20 11 -0.27 0.28
-3 -20 0 -0.19 0.27
-3 20 0 0.74 0.37
3 -20 0 -0.02 0.19
3 -20 0 -0.12 0.29
3 -20 1 6.22 0.53
-3 20 1 7.9 0.67
-3 -20 -1 6.57 0.59
3 -20 1 7.29 0.62
-3 -20 1 6.63 0.59
3 -20 -1 7.01 0.61
3 -20 2 0.77 0.29
3 -20 2 1.09 0.33
-3 -20 -2 0.8 0.3
3 -20 -2 0.66 0.3
-3 -20 2 0.96 0.3
3 -20 3 5.45 0.48
3 -20 3 5.12 0.55
-3 20 3 6.63 0.61
-3 -20 -3 5.05 0.51
3 -20 -3 4.74 0.53
-3 -20 3 5.06 0.5
3 -20 4 1.38 0.3
-3 -20 -4 1.57 0.34
-3 20 4 2.46 0.38
3 -20 4 0.78 0.32
-3 -20 4 1.71 0.32
3 -20 -4 1.41 0.32
3 20 4 0.8 0.37
-3 20 5 2.34 0.38
-3 -20 -5 1.85 0.35
3 -20 5 2.06 0.36
3 20 5 1.95 0.41
-3 -20 5 2.13 0.42
3 -20 -5 2.31 0.36
-3 -20 -6 1.17 0.33
-3 20 6 1.76 0.36
3 -20 6 1.43 0.29
-3 -20 6 2.04 0.4
3 -20 -6 1.23 0.3
3 20 6 1.2 0.37
-3 20 7 1.23 0.33
3 -20 7 0.74 0.26
3 20 7 0.93 0.35
-3 -20 7 1.34 0.3
3 -20 -7 0.81 0.29
3 -20 8 1.73 0.3
-3 20 8 2.16 0.33
-3 -20 8 2.17 0.35
3 20 8 1.98 0.37
3 -20 -8 1.44 0.31
3 -20 9 1.63 0.29
-3 20 9 1.88 0.31
3 -20 -9 1.72 0.33
3 20 9 2.05 0.36
3 -20 10 0.89 0.22
-3 20 10 0.87 0.28
3 -20 -10 0.54 0.24
3 20 10 0.82 0.31
-3 20 11 1.51 0.29
3 20 11 1.72 0.32
-4 -20 0 8.67 0.69
4 -20 0 8.57 0.72
-4 20 0 10.75 0.76
4 -20 0 8.97 0.66
4 -20 1 3.72 0.42
-4 20 1 5.13 0.56
-4 -20 -1 3.57 0.45
4 -20 1 4.16 0.52
-4 20 -1 5.48 0.58
-4 -20 1 3.93 0.48
4 -20 -1 3.33 0.5
4 -20 -1 3.88 0.43
-4 -20 -2 7.08 0.6
4 -20 2 7.17 0.56
-4 20 2 8.18 0.63
4 -20 2 7.16 0.64
4 -20 -2 7.07 0.62
4 -20 -2 6.91 0.54
-4 -20 2 6.75 0.58
-4 20 3 9.15 0.7
-4 -20 -3 9.18 0.67
4 -20 3 7.23 0.69
4 -20 3 8.58 0.62
-4 -20 3 8.19 0.65
4 -20 -3 8.33 0.67
-4 20 4 3.27 0.47
-4 -20 -4 2.67 0.44
4 -20 4 2.42 0.38
4 -20 -4 2.37 0.41
-4 -20 4 2.9 0.42
-4 -20 -5 21 1.21
-4 20 5 17.84 1.22
4 -20 5 20.02 1.18
-4 -20 5 19.03 1.2
4 -20 -5 19.29 1.21
-4 20 6 1.09 0.33
4 -20 6 1.15 0.28
4 -20 -6 0.99 0.29
4 20 6 1.13 0.36
-4 -20 6 1.41 0.29
-4 20 7 17.39 1.16
4 -20 7 18.6 1.12
4 20 7 18.51 1.18
-4 -20 7 19.07 1.14
4 -20 -7 19.27 1.15
4 -20 8 0.33 0.23
-4 20 8 0.79 0.3
4 20 8 0.71 0.33
-4 -20 8 0.89 0.27
4 -20 -8 0.25 0.25
-4 20 9 8.66 0.68
4 -20 9 9.86 0.63
4 20 9 9.89 0.71
4 -20 -9 10.74 0.68
-4 20 10 0.97 0.28
4 -20 10 1.09 0.22
4 20 10 0.88 0.32
4 -20 -10 0.79 0.24
5 -20 0 -0.27 0.26
-5 20 0 0.4 0.32
5 -20 0 -0.16 0.32
-5 -20 0 -0.13 0.27
-5 20 1 12.26 0.87
5 -20 1 12.84 0.81
5 -20 1 11.69 0.89
-5 -20 -1 12.16 0.84
5 -20 -1 12.11 0.88
5 -20 -1 12.47 0.8
-5 -20 1 12.35 0.85
-5 -20 -2 4.43 0.49
5 -20 2 3.93 0.54
-5 20 2 5.59 0.55
5 -20 2 4.6 0.44
-5 -20 2 4.68 0.49
5 -20 -2 4.22 0.42
5 -20 -2 4.2 0.52
5 -20 3 11.17 0.72
-5 -20 -3 11.29 0.77
-5 20 3 10.39 0.78
-5 -20 3 9.88 0.74
5 -20 -3 10.19 0.77
-5 20 4 4.51 0.5
-5 -20 -4 4.51 0.48
5 -20 4 4.06 0.42
5 -20 -4 4.41 0.49
-5 -20 4 4.51 0.46
5 -20 5 4.23 0.39
-5 20 5 3.58 0.51
-5 -20 5 4.33 0.44
5 -20 -5 3.84 0.46
5 -20 6 3.77 0.39
-5 20 6 4.52 0.52
-5 -20 6 5.06 0.44
5 -20 -6 4.05 0.46
-5 20 7 0.43 0.3
5 -20 7 0.09 0.22
5 20 7 0.09 0.34
-5 -20 7 0.4 0.25
5 -20 -7 0.1 0.25
5 -20 8 2.11 0.29
-5 20 8 2.6 0.34
5 20 8 2.52 0.44
5 -20 -8 2 0.35
-5 -20 8 2.84 0.35
-5 20 9 0.78 0.28
5 -20 9 0.72 0.22
5 20 9 0.77 0.31
5 -20 -9 0.55 0.25
-5 -20 9 0.88 0.26
5 -20 10 0 0.19
-5 20 10 -0.34 0.25
5 20 10 -0.01 0.31
5 -20 -10 0.03 0.22
-6 20 0 7.97 0.62
-6 -20 0 6.98 0.6
6 -20 0 7.01 0.65
6 -20 0 6.72 0.54
-6 -20 -1 0.1 0.29
-6 20 1 0.79 0.3
6 -20 1 0.2 0.25
6 -20 1 0.39 0.35
-6 -20 1 0.49 0.29
6 -20 -1 0.12 0.24
6 -20 -1 0.3 0.33
-6 -20 -2 0.9 0.32
6 -20 2 1 0.27
-6 20 2 1.44 0.32
-6 -20 2 1.18 0.3
6 -20 -2 1.04 0.27
6 -20 -2 1.1 0.33
-6 -20 -3 2.2 0.36
-6 20 3 2.64 0.36
6 -20 3 1.75 0.33
-6 -20 3 1.89 0.38
6 -20 -3 1.96 0.42
-6 20 4 0.46 0.29
-6 -20 -4 -0.24 0.28
6 -20 4 -0.06 0.23
6 -20 -4 0.05 0.26
-6 -20 4 0.39 0.26
6 -20 5 1.13 0.26
-6 20 5 1.1 0.31
-6 -20 5 1.48 0.29
6 -20 -5 1.09 0.29
-6 20 6 0.14 0.28
6 -20 6 -0.04 0.22
-6 -20 6 0.35 0.24
6 -20 -6 -0.01 0.25
6 -20 7 1.76 0.28
-6 20 7 2.06 0.33
6 -20 -7 1.86 0.36
-6 -20 7 2.71 0.35
-6 20 8 0.21 0.27
6 -20 8 -0.15 0.2
6 -20 -8 -0.15 0.23
-6 -20 8 0.24 0.23
6 -20 9 0.39 0.2
-6 20 9 0.3 0.27
6 -20 -9 0.35 0.24
-6 -20 9 0.35 0.23
6 -20 10 0.26 0.2
-7 -20 0 0.04 0.28
7 -20 0 0.41 0.33
7 -20 0 0 0.23
-7 -20 -1 6.23 0.55
7 -20 1 5.95 0.49
-7 20 1 5.54 0.55
7 -20 -1 6.08 0.59
-7 -20 1 6.41 0.55
7 -20 -1 6.15 0.48
-7 -20 -2 0.97 0.31
-7 20 2 1.29 0.3
7 -20 2 0.8 0.26
7 -20 -2 1.04 0.25
-7 -20 2 1.24 0.3
7 -20 -2 1.25 0.33
-7 20 3 2.38 0.34
-7 -20 -3 2.3 0.36
7 -20 3 2.42 0.32
-7 -20 3 2.89 0.41
7 -20 -3 2.4 0.42
-7 20 4 1.01 0.31
7 -20 4 0.91 0.25
7 -20 -4 0.72 0.29
-7 -20 4 1.07 0.27
-7 20 5 1.23 0.31
7 -20 5 1.26 0.25
-7 -20 5 1.27 0.28
7 -20 -5 0.88 0.28
7 -20 6 0.34 0.2
-7 20 6 0.31 0.29
-7 -20 6 0.66 0.24
7 -20 -6 0.07 0.24
-7 20 7 0.06 0.27
7 -20 7 0.1 0.2
7 -20 -7 0.07 0.24
-7 -20 7 0.24 0.24
7 -20 8 0.29 0.2
-7 20 8 0.1 0.27
-7 -20 8 0.43 0.24
7 -20 -8 0.21 0.24
7 -20 9 0.62 0.2
7 -20 -9 0.61 0.24
-7 -20 9 0.64 0.24
-8 -20 0 5.68 0.52
8 -20 0 5.24 0.44
-8 20 1 2.76 0.4
-8 -20 -1 3.02 0.43
8 -20 1 3.18 0.35
-8 -20 1 2.83 0.43
8 -20 -1 2.95 0.33
8 -20 -1 3.9 0.48
-8 -20 -2 2.92 0.43
8 -20 2 3.58 0.36
-8 20 2 3.64 0.43
-8 -20 2 3.49 0.43
8 -20 -2 3.73 0.46
-8 20 3 9.19 0.71
8 -20 3 10.84 0.67
8 -20 -3 10.55 0.75
-8 -20 3 10.49 0.73
-8 20 4 0.59 0.27
8 -20 4 -0.05 0.21
8 -20 -4 0.16 0.27
-8 -20 4 0.61 0.26
8 -20 5 14.7 0.88
-8 20 5 13.36 0.91
8 -20 -5 14.57 0.93
-8 -20 5 14.68 0.92
-8 20 6 0 0.27
8 -20 6 -0.06 0.2
-8 -20 6 0.25 0.24
8 -20 -6 -0.13 0.23
8 -20 7 9.72 0.64
-8 20 7 9.15 0.68
-8 -20 7 10.28 0.67
8 -20 -7 10.54 0.68
8 -20 8 0.54 0.21
-8 -20 8 0.98 0.25
8 -20 -8 0.43 0.24
9 -20 0 -0.2 0.19
-9 20 0 0.1 0.23
-9 -20 0 -0.29 0.27
9 -20 1 15.56 0.93
-9 -20 -1 14.2 0.97
-9 20 1 14.26 0.96
-9 -20 1 16.88 0.99
9 -20 -1 15.34 0.93
9 -20 2 3.12 0.33
-9 20 2 3.35 0.43
-9 -20 2 3.34 0.41
9 -20 -2 3.82 0.45
-9 20 3 6.83 0.58
9 -20 3 8.31 0.54
9 -20 -3 8.33 0.63
-9 -20 3 7.79 0.59
9 -20 4 2.73 0.31
-9 20 4 2.58 0.41
-9 -20 4 3.07 0.38
9 -20 -4 2.97 0.41
9 -20 5 3.79 0.34
-9 20 5 2.57 0.42
9 -20 -5 3.31 0.41
-9 -20 5 3.81 0.39
-9 20 6 2.21 0.38
9 -20 6 2.53 0.3
-9 -20 6 3.27 0.37
9 -20 -6 2.64 0.36
9 -20 7 0.44 0.21
-9 -20 7 0.54 0.24
9 -20 -7 0.32 0.26
10 -20 0 5.97 0.45
-10 20 0 6.28 0.5
-10 20 1 0.25 0.22
10 -20 1 0.49 0.21
-10 -20 1 0.32 0.28
10 -20 2 2.06 0.26
-10 20 2 1.33 0.27
-10 -20 2 1.41 0.31
10 -20 3 3.05 0.31
-10 20 3 2.81 0.33
-10 -20 3 2.83 0.39
10 -20 4 0.54 0.22
-10 20 4 0.37 0.26
10 -20 -4 0.49 0.28
-10 -20 4 0.85 0.26
10 -20 5 5.24 0.41
-10 -20 5 5.44 0.45
10 -20 -5 4.97 0.47
10 -20 6 0.34 0.24
10 -20 -6 0.04 0.25
-10 -20 6 0.42 0.25
-11 20 0 0.14 0.23
-11 20 1 0.06 0.22
11 -20 1 0.33 0.18
-11 20 -1 0.34 0.24
-11 20 2 -0.28 0.23
11 -20 2 -0.15 0.19
-11 20 3 -0.22 0.23
11 -20 3 0.06 0.21
-11 -20 3 -0.03 0.24
11 -20 4 -0.03 0.21
-11 20 4 -0.46 0.22
-11 -20 4 0.06 0.25
0 -21 0 -0.22 0.27
0 -21 1 -0.03 0.28
0 -21 -1 -0.23 0.26
0 -21 2 0.13 0.28
0 21 2 0.05 0.34
0 -21 -2 -0.24 0.27
0 -21 3 0.17 0.28
0 21 3 0.49 0.34
0 -21 -3 -0.23 0.27
0 -21 4 0.24 0.29
0 21 4 0.55 0.35
0 -21 -4 0.1 0.28
0 -21 -5 -0.29 0.28
0 21 5 0.26 0.33
0 -21 5 0.17 0.28
0 -21 -6 0.22 0.29
0 21 6 0.54 0.31
0 -21 6 0.02 0.27
0 -21 -7 -0.09 0.27
0 21 7 -0.05 0.3
0 -21 -8 0.26 0.26
0 21 8 0.36 0.29
0 21 9 0.12 0.27
0 21 10 -0.04 0.27
1 -21 0 1.88 0.34
-1 21 0 0.95 0.36
-1 -21 0 2.09 0.34
-1 21 1 1.28 0.38
-1 -21 -1 0.3 0.29
1 -21 1 0.47 0.29
1 -21 -1 0.57 0.29
-1 -21 1 0.53 0.28
1 -21 2 6.88 0.6
-1 21 2 6.93 0.66
-1 -21 -2 6.93 0.59
1 -21 -2 6.64 0.57
-1 -21 2 6.85 0.58
-1 -21 -3 5.36 0.53
-1 21 3 6.14 0.6
1 -21 3 5.17 0.53
1 21 3 5.08 0.58
-1 -21 3 5.32 0.52
1 -21 -3 4.99 0.52
-1 -21 -4 3.4 0.45
-1 21 4 4.11 0.54
1 -21 4 3.74 0.47
-1 -21 4 3.84 0.46
1 21 4 3.91 0.53
1 -21 -4 3.22 0.45
-1 21 5 3.82 0.54
1 -21 5 3.73 0.45
-1 -21 -5 3.93 0.48
1 21 5 4.32 0.53
1 -21 -5 4.02 0.47
-1 -21 5 4.37 0.47
-1 -21 -6 0.4 0.29
-1 21 6 0.59 0.32
-1 -21 6 0.36 0.27
1 21 6 0.32 0.32
1 -21 -6 0.19 0.28
-1 -21 -7 3.33 0.4
-1 21 7 3.87 0.45
1 -21 -7 3.49 0.41
1 21 7 3.4 0.48
-1 21 8 1.5 0.31
1 -21 -8 1.11 0.28
1 21 8 1.63 0.33
-1 21 9 2.13 0.38
1 21 9 2.64 0.35
-1 21 10 0.73 0.28
1 21 10 0.79 0.29
-2 -21 0 -0.03 0.27
-2 21 0 0.67 0.37
2 -21 0 0.04 0.28
-2 21 1 17.58 1.06
2 -21 1 16.17 1.04
-2 -21 -1 16.15 1.03
-2 21 -1 14.59 1.04
2 -21 -1 15.79 1.04
-2 -21 1 15.5 1.02
-2 21 2 2.11 0.39
2 -21 2 1.52 0.34
-2 -21 -2 1.51 0.33
-2 -21 2 1.71 0.32
2 -21 -2 1.41 0.32
-2 -21 -3 10.52 0.73
2 -21 3 9.43 0.73
-2 21 3 10.67 0.77
-2 -21 3 9.42 0.71
2 -21 -3 9.36 0.73
-2 21 4 5.91 0.56
2 -21 4 5.65 0.54
-2 -21 -4 5.65 0.54
2 21 4 5.23 0.58
2 -21 -4 5.68 0.54
-2 -21 4 5.69 0.52
-2 -21 -5 3.24 0.46
-2 21 5 4.19 0.49
2 -21 -5 3.08 0.43
2 21 5 4.01 0.52
-2 -21 5 3.85 0.45
-2 -21 -6 9.19 0.64
-2 21 6 8.17 0.67
2 -21 -6 8.1 0.64
2 21 6 8.12 0.67
-2 -21 6 8.28 0.62
-2 -21 -7 0.03 0.26
-2 21 7 0.38 0.28
2 -21 7 0.1 0.24
-2 -21 7 0.33 0.25
2 21 7 0.29 0.32
2 -21 -7 -0.04 0.25
-2 21 8 4.8 0.48
2 -21 -8 5.41 0.47
2 21 8 4.47 0.5
-2 21 9 2.76 0.37
2 21 9 2.69 0.4
2 -21 -9 2.3 0.31
-2 21 10 0.16 0.27
2 21 10 0.43 0.29
-3 21 0 1.18 0.37
-3 -21 0 1.41 0.32
3 -21 0 1.22 0.32
-3 -21 -1 0 0.28
-3 21 1 0.66 0.34
3 -21 1 0.03 0.2
3 -21 1 0.22 0.3
-3 -21 1 -0.05 0.26
-3 21 -1 0.79 0.36
3 -21 -1 0.07 0.29
3 -21 2 2.98 0.47
-3 21 2 4.36 0.53
-3 -21 -2 3.39 0.44
3 -21 -2 3.23 0.45
-3 21 -2 3.53 0.51
-3 -21 2 3.01 0.44
-3 21 3 4.27 0.49
3 -21 3 3.94 0.47
3 -21 3 2.92 0.37
-3 -21 -3 3.76 0.46
3 -21 -3 2.96 0.45
-3 -21 3 3.59 0.43
3 -21 4 2.66 0.35
-3 21 4 2.78 0.45
-3 -21 -4 2.24 0.37
-3 -21 4 2.53 0.39
3 -21 -4 2.06 0.41
-3 21 5 6.28 0.57
3 -21 5 5.89 0.47
-3 -21 -5 6.11 0.54
3 -21 -5 5.37 0.52
-3 -21 5 5.97 0.52
3 21 5 5.12 0.56
-3 21 6 0.3 0.28
-3 -21 -6 -0.05 0.29
3 -21 6 0.33 0.24
3 -21 -6 0.15 0.25
-3 -21 6 0.59 0.27
3 21 6 -0.02 0.32
-3 21 7 5.3 0.52
3 -21 7 5.21 0.42
-3 -21 7 5.78 0.48
3 21 7 5.71 0.54
3 -21 -7 5.01 0.47
3 -21 8 0.71 0.22
-3 21 8 1.12 0.28
3 21 8 0.79 0.32
3 -21 -8 0.47 0.26
-3 21 9 3.23 0.4
3 -21 -9 3.55 0.37
3 21 9 3.09 0.44
4 -21 0 -0.03 0.25
-4 21 0 0.69 0.33
-4 -21 0 -0.04 0.27
4 -21 0 -0.07 0.3
-4 21 1 2.99 0.47
4 -21 1 1.89 0.34
4 -21 1 1.8 0.37
-4 -21 -1 2.12 0.35
-4 -21 1 2.19 0.34
-4 21 -1 3.22 0.49
4 -21 -1 1.8 0.3
4 -21 -1 1.74 0.35
4 -21 2 0.07 0.26
4 -21 2 0.11 0.31
-4 -21 -2 -0.21 0.28
-4 21 2 0.57 0.32
-4 -21 2 0.2 0.26
-4 21 -2 0.44 0.34
4 -21 -2 -0.15 0.28
4 -21 3 -0.14 0.29
4 -21 3 0.28 0.26
-4 21 3 0.78 0.32
-4 -21 -3 -0.14 0.29
-4 21 -3 0.66 0.33
-4 -21 3 0.31 0.26
4 -21 -3 0.19 0.27
-4 21 4 0.58 0.3
4 -21 4 0.09 0.25
-4 -21 -4 0.17 0.29
4 -21 -4 0.22 0.27
-4 -21 4 0.49 0.26
-4 -21 -5 -0.13 0.28
-4 21 5 0.66 0.29
4 -21 5 0.16 0.24
-4 -21 5 0.58 0.26
4 -21 -5 0.22 0.26
-4 21 6 0.86 0.3
4 -21 6 0.71 0.24
4 -21 -6 0.65 0.27
-4 -21 6 0.95 0.27
-4 21 7 0.37 0.27
4 -21 7 0.09 0.21
4 21 7 -0.11 0.3
4 -21 -7 0.01 0.22
-4 -21 7 0.22 0.25
-4 21 8 0.68 0.27
4 -21 8 0.64 0.21
4 21 8 0.64 0.31
-4 -21 8 0.53 0.25
4 -21 -8 0.63 0.26
-4 21 9 -0.07 0.26
4 -21 9 -0.04 0.18
4 21 9 -0.03 0.28
4 -21 -9 -0.18 0.23
5 -21 0 1.22 0.34
-5 -21 0 1.31 0.32
-5 21 0 1.83 0.35
5 -21 0 1.28 0.28
-5 -21 -1 0.19 0.28
5 -21 1 0 0.26
-5 21 1 0.87 0.32
5 -21 1 0.62 0.33
5 -21 -1 0.25 0.25
-5 21 -1 0.88 0.34
5 -21 -1 0.3 0.3
-5 -21 1 0.23 0.27
-5 21 2 3.39 0.46
5 -21 2 2.48 0.35
5 -21 2 2.3 0.38
-5 -21 -2 2.66 0.42
-5 -21 2 2.55 0.41
5 -21 -2 2.18 0.42
-5 21 3 4.18 0.46
5 -21 3 3.6 0.4
-5 -21 -3 3.95 0.47
-5 -21 3 3.72 0.43
5 -21 -3 4.05 0.46
5 -21 4 0.28 0.25
-5 21 4 0.8 0.29
-5 -21 -4 0.32 0.29
5 -21 -4 0.52 0.27
-5 -21 4 0.83 0.26
-5 21 -4 0.57 0.3
5 -21 5 2.37 0.34
-5 21 5 2.89 0.41
-5 -21 5 3.25 0.39
5 -21 -5 2.69 0.38
-5 21 6 0.21 0.28
5 -21 6 -0.05 0.21
-5 -21 6 0.36 0.25
5 -21 -6 0.07 0.25
-5 21 7 2.15 0.31
5 -21 7 1.7 0.28
5 -21 -7 1.62 0.33
-5 -21 7 2.09 0.34
5 -21 8 0.46 0.2
-5 21 8 0.51 0.27
-5 -21 8 0.49 0.25
5 -21 -8 0.3 0.24
-5 21 9 0.73 0.27
5 -21 9 0.68 0.2
5 -21 -9 0.51 0.24
-6 21 0 0.58 0.29
6 -21 0 0.51 0.32
-6 -21 0 0.12 0.28
6 -21 0 -0.42 0.23
-6 -21 -1 17.7 1.06
6 -21 1 16.8 1.02
6 -21 1 14.92 1.06
-6 21 1 16.14 1.05
-6 -21 1 16.79 1.05
6 -21 -1 16.16 1.01
6 -21 -1 16.28 1.07
-6 21 -1 17.84 1.05
-6 21 2 5.87 0.54
-6 -21 -2 6.2 0.54
6 -21 2 4.99 0.45
-6 -21 2 5.82 0.51
6 -21 -2 5.92 0.54
-6 -21 -3 16.82 1
-6 21 3 15.09 0.98
6 -21 3 14.92 0.95
6 -21 -3 15.07 0.99
-6 -21 3 15.35 0.98
6 -21 4 6.4 0.48
-6 21 4 6.49 0.56
-6 -21 4 6.49 0.53
6 -21 -4 6.59 0.55
6 -21 5 1.68 0.29
-6 21 5 2.19 0.39
6 -21 -5 2.17 0.33
-6 -21 5 2.54 0.35
-6 21 6 4.3 0.46
6 -21 6 4.55 0.39
6 -21 -6 5.13 0.45
-6 -21 6 4.97 0.45
6 -21 7 0.07 0.2
-6 21 7 0.26 0.26
-6 -21 7 0.38 0.25
6 -21 -7 -0.05 0.25
6 -21 8 2.54 0.28
-6 21 8 2.12 0.38
-6 -21 8 2.34 0.34
6 -21 -8 2.8 0.37
-7 -21 0 26.56 1.44
-7 21 0 23.19 1.41
7 -21 0 24.25 1.4
7 -21 0 20.98 1.43
-7 -21 -1 0.32 0.29
-7 21 1 0.37 0.26
7 -21 1 0.1 0.22
7 -21 -1 0.48 0.3
-7 -21 1 0.16 0.26
-7 21 -1 0.91 0.28
7 -21 -1 -0.01 0.23
-7 21 2 12.63 0.9
-7 -21 -2 15.39 0.92
7 -21 2 13.93 0.88
-7 21 -2 15.57 0.91
7 -21 -2 14.01 0.93
-7 -21 2 13.85 0.91
7 -21 3 2.76 0.32
-7 21 3 3.07 0.41
-7 -21 3 3.48 0.4
7 -21 -3 3.32 0.42
7 -21 4 4.15 0.37
-7 21 4 4.34 0.44
7 -21 -4 4.08 0.44
-7 -21 4 4.46 0.43
-7 21 5 7.07 0.55
7 -21 5 6.98 0.5
-7 -21 5 7.37 0.54
7 -21 -5 6.89 0.55
7 -21 6 0.52 0.21
-7 21 6 0.62 0.27
7 -21 -6 0.36 0.26
-7 -21 6 0.67 0.25
7 -21 7 5.27 0.41
-7 21 7 5.38 0.48
7 -21 -7 5.34 0.47
-7 -21 7 6.53 0.48
-8 21 0 0.04 0.25
8 -21 0 -0.22 0.19
-8 -21 0 -0.32 0.27
-8 21 1 2.66 0.37
-8 -21 -1 1.81 0.36
8 -21 1 2.01 0.28
-8 -21 1 2.05 0.37
8 -21 2 1.45 0.24
-8 21 2 1.43 0.28
8 -21 -2 1.32 0.32
-8 -21 2 1.32 0.3
8 -21 3 0.74 0.22
-8 21 3 1.09 0.27
8 -21 -3 0.93 0.29
-8 -21 3 0.79 0.27
-8 21 4 1.36 0.28
8 -21 4 1.3 0.23
8 -21 -4 1.17 0.3
-8 -21 4 1.7 0.33
8 -21 5 0.15 0.2
-8 21 5 0.24 0.26
-8 -21 5 0.3 0.25
8 -21 -5 0.01 0.26
8 -21 6 1.4 0.26
-8 21 6 0.89 0.28
8 -21 -6 1.03 0.28
-8 -21 6 1.64 0.32
-9 21 0 0.57 0.25
-9 -21 0 0.12 0.28
9 -21 0 0.54 0.21
-9 21 1 0.21 0.24
9 -21 1 0.06 0.19
-9 21 -1 0.65 0.25
-9 -21 1 -0.22 0.26
9 -21 2 0.79 0.21
-9 21 2 0.68 0.26
-9 21 -2 1.36 0.27
-9 -21 2 0.69 0.28
9 -21 3 0.37 0.18
-9 21 3 0.36 0.25
9 -21 -3 0.32 0.27
-9 -21 3 0.67 0.27
9 -21 4 -0.03 0.19
-9 21 4 0.16 0.25
9 -21 -4 -0.07 0.27
-9 -21 4 0.28 0.26
9 -21 5 0.57 0.21
-9 21 5 0.44 0.26
9 -21 -5 0.28 0.27
-9 -21 5 0.64 0.26
-10 21 0 0.17 0.24
10 -21 1 4.28 0.37
-10 21 1 4.47 0.42
-10 21 -1 5.13 0.43
-10 21 2 1.33 0.27
10 -21 2 1.35 0.24
-10 21 -2 2.23 0.34
-10 -21 2 1.14 0.28
10 -21 3 4.85 0.39
-10 21 3 4.64 0.44
-10 -21 3 5.05 0.46
-10 21 -3 6.24 0.46
0 -22 0 17.73 1.11
0 -22 1 0.66 0.28
0 -22 -1 0.49 0.27
0 -22 -2 5.75 0.52
0 -22 2 6.16 0.51
0 22 2 4.15 0.53
0 -22 -3 4.74 0.5
0 -22 3 4.96 0.48
0 22 3 4.94 0.53
0 -22 -4 2.38 0.41
0 -22 4 3.03 0.42
0 22 4 3.47 0.44
0 -22 -5 5.97 0.53
0 22 5 6.03 0.56
0 -22 5 5.62 0.5
0 -22 -6 0.18 0.27
0 22 6 0.09 0.29
0 -22 -7 3.91 0.41
0 22 7 2.9 0.43
0 22 8 2.35 0.34
1 -22 0 0.06 0.26
-1 -22 0 -0.08 0.26
-1 22 1 1.94 0.37
1 -22 1 2.55 0.4
-1 -22 -1 2.25 0.39
1 -22 -1 2.32 0.41
-1 -22 1 2.1 0.38
-1 -22 -2 3.85 0.46
1 -22 2 3.77 0.45
-1 22 2 4.69 0.5
-1 -22 2 4 0.45
1 -22 -2 3.34 0.44
-1 22 3 2.66 0.46
1 -22 3 2.03 0.4
-1 -22 -3 2.17 0.35
-1 -22 3 2.26 0.4
1 -22 -3 2.08 0.34
-1 22 4 7.73 0.59
1 -22 4 7.16 0.55
-1 -22 -4 6.5 0.57
1 22 4 6.73 0.59
-1 -22 4 7 0.56
1 -22 -4 6.61 0.57
-1 -22 -5 0.01 0.28
1 -22 5 -0.11 0.25
-1 22 5 0.21 0.3
1 -22 -5 0.13 0.26
1 22 5 0.23 0.31
-1 -22 5 0.47 0.27
-1 -22 -6 8 0.59
-1 22 6 7.45 0.59
-1 -22 6 6.91 0.56
1 22 6 7.74 0.61
1 -22 -6 7.5 0.58
-1 -22 -7 -0.03 0.25
-1 22 7 0.2 0.27
1 22 7 0 0.29
1 -22 -7 -0.11 0.26
-1 22 8 4.16 0.41
1 -22 -8 2.98 0.36
1 22 8 4.26 0.43
-2 -22 0 1.21 0.3
-2 22 0 1.92 0.37
2 -22 0 1.53 0.32
-2 22 1 0.75 0.33
2 -22 1 0.18 0.28
-2 -22 -1 -0.19 0.26
2 -22 -1 0.15 0.28
-2 -22 1 0.1 0.26
-2 -22 -2 0.33 0.28
2 -22 2 0.37 0.29
-2 22 2 0.83 0.32
-2 -22 2 0.65 0.26
2 -22 -2 0.32 0.27
-2 22 3 0.77 0.32
-2 -22 -3 -0.09 0.27
2 -22 3 0.28 0.28
2 -22 -3 -0.17 0.26
-2 -22 3 0.35 0.26
2 -22 4 0.21 0.27
-2 -22 -4 -0.08 0.28
-2 22 4 0.43 0.31
2 -22 -4 -0.18 0.26
-2 -22 4 0.03 0.26
-2 -22 -5 0.01 0.28
-2 22 5 0.62 0.3
-2 -22 5 0.3 0.26
2 22 5 -0.23 0.29
2 -22 -5 0.01 0.25
-2 -22 -6 -0.23 0.27
-2 22 6 0.21 0.28
2 -22 -6 -0.27 0.25
2 22 6 -0.29 0.29
-2 -22 6 0.03 0.26
-2 22 7 0.51 0.27
2 22 7 -0.15 0.28
2 -22 -7 -0.14 0.25
-2 22 8 -0.14 0.26
2 -22 -8 -0.2 0.22
2 22 8 -0.07 0.29
-3 -22 0 -0.09 0.25
3 -22 0 -0.11 0.28
-3 22 0 0.44 0.31
-3 22 1 0.82 0.32
-3 -22 -1 -0.16 0.27
3 -22 1 0.03 0.28
-3 22 -1 0.26 0.32
3 -22 -1 -0.14 0.27
-3 -22 1 0.13 0.26
-3 22 2 2 0.35
3 -22 2 1.52 0.34
-3 -22 -2 1.42 0.32
3 -22 -2 1.57 0.32
-3 -22 2 1.71 0.31
-3 22 3 1.15 0.31
3 -22 3 0.9 0.3
-3 -22 -3 0.69 0.29
-3 -22 3 0.79 0.27
3 -22 -3 0.56 0.28
-3 22 4 4.17 0.44
-3 -22 -4 3.65 0.44
3 -22 -4 3.28 0.42
-3 -22 4 3.59 0.42
-3 22 5 0.69 0.28
-3 -22 -5 -0.1 0.28
3 -22 -5 0.27 0.26
-3 -22 5 0.32 0.26
-3 22 6 3.6 0.42
3 -22 -6 3.26 0.39
-3 -22 6 3.66 0.41
-3 22 7 0.36 0.26
3 -22 -7 -0.05 0.25
-3 -22 7 -0.3 0.24
-3 22 8 1.64 0.3
3 -22 -8 1.89 0.32
-4 22 0 13.68 0.88
4 -22 0 12.51 0.88
-4 -22 0 13.32 0.87
-4 -22 -1 -0.24 0.26
-4 22 1 0.45 0.3
4 -22 1 -0.14 0.29
4 -22 1 -0.1 0.18
4 -22 -1 -0.08 0.28
-4 -22 1 -0.03 0.25
-4 22 -1 0.51 0.32
4 -22 2 9.02 0.69
-4 -22 -2 9.53 0.68
-4 22 2 9.88 0.69
-4 22 -2 9.27 0.68
4 -22 -2 9.19 0.69
-4 -22 2 9.21 0.66
4 -22 3 0.37 0.23
-4 22 3 0.97 0.29
-4 -22 -3 0.22 0.29
4 -22 -3 0.24 0.27
-4 -22 3 0.46 0.25
4 -22 4 4.6 0.42
-4 22 4 5.86 0.5
-4 -22 -4 5.92 0.5
4 -22 -4 5.45 0.49
-4 -22 4 5.56 0.48
4 -22 5 0.95 0.22
-4 -22 -5 0.49 0.28
-4 22 5 1.16 0.29
-4 -22 5 1.01 0.28
4 -22 -5 1.24 0.28
4 -22 6 0.26 0.16
-4 22 6 0.51 0.26
4 -22 -6 0.05 0.24
-4 -22 6 0.35 0.25
-4 22 7 0.35 0.27
4 -22 -7 0.82 0.26
-4 -22 7 0.38 0.26
-5 22 0 0.41 0.29
-5 -22 0 -0.29 0.26
5 -22 0 -0.06 0.24
5 -22 0 -0.2 0.28
5 -22 1 0.67 0.24
-5 22 1 0.69 0.29
-5 -22 -1 0.19 0.28
5 -22 1 0.8 0.3
-5 -22 1 0.43 0.26
-5 22 -1 0.49 0.3
5 -22 -1 0.57 0.29
-5 -22 -2 1.33 0.32
5 -22 2 1.11 0.26
-5 22 2 1.67 0.31
5 -22 -2 1.26 0.31
-5 22 -2 2 0.32
-5 -22 2 1.63 0.31
-5 -22 -3 1 0.3
5 -22 3 1.2 0.25
-5 22 3 1.22 0.29
-5 -22 3 1.19 0.28
5 -22 -3 0.93 0.29
5 -22 4 8 0.55
-5 -22 -4 7.34 0.58
-5 22 4 8.53 0.6
5 -22 -4 8.69 0.61
-5 -22 4 8.36 0.6
-5 22 5 0.59 0.26
5 -22 5 0.27 0.21
-5 -22 5 0.45 0.25
5 -22 -5 0.28 0.25
-5 22 6 11.1 0.75
5 -22 6 10.49 0.7
-5 -22 6 12.63 0.76
5 -22 -6 11.35 0.75
-5 22 7 1.57 0.29
-5 -22 7 1.63 0.32
5 -22 -7 1.41 0.28
-6 22 0 3.09 0.39
6 -22 0 2.58 0.32
6 -22 0 2.7 0.41
-6 -22 0 2.36 0.39
-6 -22 -1 -0.1 0.28
-6 22 1 0.56 0.28
6 -22 1 0.05 0.22
-6 -22 1 -0.15 0.26
-6 22 -1 0.88 0.29
6 -22 -1 0.38 0.28
-6 22 2 2.42 0.39
6 -22 2 1.65 0.28
-6 -22 -2 1.73 0.33
-6 -22 2 1.65 0.35
6 -22 -2 1.83 0.33
-6 22 -2 2.91 0.41
-6 -22 -3 0.59 0.28
6 -22 3 0.52 0.22
-6 22 3 0.7 0.26
-6 -22 3 0.6 0.27
-6 22 -3 1.36 0.29
6 -22 -3 0.39 0.27
6 -22 4 1.49 0.27
-6 22 4 1.77 0.3
-6 -22 4 1.72 0.34
6 -22 -4 1.43 0.3
-6 22 5 1 0.27
6 -22 5 0.88 0.22
6 -22 -5 0.79 0.27
-6 -22 5 1.69 0.34
-6 22 6 0.84 0.27
6 -22 6 0.7 0.21
-6 -22 6 1.09 0.27
6 -22 -6 0.91 0.28
-7 22 0 0.35 0.27
7 -22 0 -0.04 0.21
-7 -22 0 -0.22 0.28
-7 -22 -1 -0.09 0.27
7 -22 1 -0.05 0.21
-7 22 1 0.57 0.26
-7 -22 1 0.02 0.27
7 -22 -1 0.17 0.28
-7 22 -1 0.85 0.27
-7 -22 -2 -0.32 0.25
-7 22 2 0.83 0.26
7 -22 2 0.25 0.2
-7 -22 2 0.13 0.26
7 -22 -2 0.55 0.29
-7 22 -2 0.9 0.28
7 -22 3 0.89 0.22
-7 22 3 1.12 0.27
-7 22 -3 0.99 0.28
7 -22 -3 0.68 0.29
-7 -22 3 0.97 0.27
7 -22 4 1.05 0.23
-7 22 4 1.3 0.27
-7 -22 4 1.84 0.33
7 -22 -4 0.95 0.28
-7 22 5 0.16 0.25
7 -22 5 0 0.19
-7 -22 5 0.35 0.26
7 -22 -5 -0.08 0.27
-8 22 0 5.92 0.48
-8 -22 0 5.46 0.5
8 -22 1 -0.04 0.2
-8 22 1 0.16 0.24
-8 22 -1 0.36 0.26
-8 -22 1 -0.25 0.27
-8 22 2 9.92 0.69
8 -22 2 9.71 0.66
-8 -22 2 11.02 0.72
-8 22 -2 11.87 0.71
-8 22 3 1.35 0.27
8 -22 3 1.23 0.23
-8 22 -3 1.54 0.29
-8 -22 3 1.82 0.35
8 -22 -3 0.93 0.29
8 -22 4 7.57 0.52
-8 22 4 7.75 0.56
-8 -22 4 8.74 0.58
8 -22 -4 7.23 0.59
-9 22 0 0.11 0.25
-9 22 1 1.37 0.27
-9 22 -1 1.64 0.28
0 -23 0 -0.13 0.25
0 -23 1 0.01 0.26
0 -23 -1 -0.21 0.25
0 -23 -2 -0.18 0.27
0 -23 2 0.2 0.27
0 -23 3 0.02 0.27
0 -23 -3 -0.02 0.26
0 -23 -4 -0.03 0.26
0 -23 4 0.34 0.27
0 23 4 -0.07 0.28
0 23 5 -0.18 0.27
0 -23 -5 -0.21 0.26
0 23 6 0.08 0.27
0 -23 -6 0.36 0.27
0 -23 -7 -0.08 0.29
-1 -23 0 0.3 0.26
1 -23 0 0.44 0.28
1 -23 1 0.38 0.28
-1 -23 -1 0.13 0.26
1 -23 -1 0.22 0.28
-1 -23 1 0.55 0.27
1 -23 2 0.34 0.29
-1 -23 -2 0.27 0.27
1 -23 -2 0.2 0.26
-1 -23 2 0.36 0.27
1 -23 3 2.86 0.41
-1 23 3 2.86 0.4
-1 -23 -3 2.64 0.39
1 -23 -3 2.9 0.4
-1 -23 3 3.08 0.39
-1 -23 -4 -0.08 0.27
-1 23 4 0.08 0.28
1 -23 4 0.11 0.27
-1 -23 4 0.23 0.27
1 -23 -4 0.23 0.26
-1 -23 -5 5.82 0.47
-1 23 5 4.82 0.48
-1 -23 5 4.88 0.47
1 -23 -5 5.52 0.47
-1 -23 -6 -0.02 0.24
-1 23 6 -0.12 0.27
1 -23 -6 -0.19 0.26
2 -23 0 -0.02 0.28
-2 -23 0 0.08 0.25
2 -23 1 20.97 1.3
-2 -23 -1 22.1 1.3
2 -23 -1 21.34 1.3
-2 -23 1 21.24 1.29
-2 -23 -2 0.36 0.26
-2 23 2 0.71 0.29
2 -23 2 0.38 0.28
2 -23 -2 0.1 0.27
-2 -23 2 0.39 0.26
-2 23 3 13.49 0.89
2 -23 3 13.31 0.89
-2 -23 -3 14.16 0.9
2 -23 -3 14.25 0.9
-2 -23 3 13.81 0.89
-2 23 4 0.61 0.28
-2 -23 -4 0.15 0.28
-2 -23 4 0.57 0.27
2 -23 -4 0.52 0.26
-2 23 5 3.62 0.43
-2 -23 -5 4.27 0.44
-2 -23 5 4.51 0.43
2 -23 -5 4.2 0.43
-2 23 6 0.12 0.27
2 -23 -6 0.44 0.26
3 -23 0 1.79 0.32
-3 -23 0 1.73 0.31
3 -23 1 1.67 0.32
-3 23 1 1.71 0.32
-3 -23 -1 1.48 0.3
-3 -23 1 1.41 0.3
3 -23 -1 1.58 0.32
3 -23 2 2.24 0.39
-3 -23 -2 1.91 0.38
-3 23 2 2.78 0.39
-3 -23 2 2.18 0.36
3 -23 -2 2.02 0.37
-3 23 3 6.35 0.53
-3 -23 -3 6.87 0.54
3 -23 -3 6.45 0.53
-3 -23 3 6.34 0.52
-3 23 4 0.85 0.29
-3 -23 -4 0.5 0.29
-3 -23 4 0.8 0.28
3 -23 -4 0.69 0.27
-3 23 5 11.25 0.76
3 -23 -5 11.88 0.77
-3 -23 5 11.59 0.76
-3 23 6 0.09 0.26
3 -23 -6 -0.04 0.25
-3 -23 6 -0.33 0.22
4 -23 0 0.12 0.29
-4 23 0 0.25 0.28
-4 -23 0 -0.23 0.25
4 -23 1 1.18 0.31
-4 23 1 1.32 0.3
-4 -23 -1 0.67 0.28
4 -23 -1 1.03 0.31
-4 -23 1 0.87 0.28
4 -23 2 -0.21 0.24
-4 23 2 0.27 0.27
-4 -23 -2 -0.03 0.27
-4 -23 2 0.14 0.25
4 -23 -2 0.08 0.26
-4 23 3 0.29 0.27
-4 -23 -3 -0.2 0.27
4 -23 -3 0.06 0.27
-4 -23 3 0.17 0.25
-4 -23 -4 -0.18 0.26
-4 23 4 0.48 0.26
-4 -23 4 0.46 0.26
4 -23 -4 0.06 0.27
-4 23 5 0.23 0.26
4 -23 -5 -0.11 0.25
-4 -23 5 0.16 0.28
5 -23 0 1.55 0.32
-5 -23 0 1.68 0.32
-5 23 0 2.08 0.35
-5 23 1 0.46 0.27
5 -23 1 0.07 0.31
-5 -23 -1 -0.14 0.26
-5 -23 1 0.16 0.26
5 -23 -1 0.26 0.29
-5 23 -1 0.14 0.27
-5 -23 -2 -0.02 0.27
-5 23 2 0.61 0.26
-5 -23 2 0.42 0.26
5 -23 -2 0.18 0.28
-5 23 3 1.9 0.3
-5 -23 -3 1.23 0.29
-5 -23 3 1.81 0.34
5 -23 -3 1.41 0.31
-5 23 4 0.31 0.26
5 -23 -4 0.15 0.26
-5 -23 4 0.42 0.26
-5 23 5 1.51 0.29
-5 -23 5 2.15 0.36
5 -23 -5 1.58 0.31
-6 23 0 0.19 0.26
-6 -23 0 -0.11 0.27
-6 -23 -1 16.61 0.97
-6 23 1 14.09 0.94
-6 23 -1 14.39 0.94
-6 -23 1 16.02 0.96
-6 23 2 0.81 0.26
6 -23 -2 0.5 0.29
-6 -23 2 0.88 0.28
-6 23 3 9.22 0.65
6 -23 -3 9.49 0.69
-6 -23 3 10.18 0.67
6 -23 -4 0.34 0.28
-6 -23 4 0.32 0.26
-7 23 0 1.7 0.29
-7 -23 0 1.68 0.33
-7 23 1 1.53 0.28
-7 23 -1 1.47 0.28
-7 -23 1 1.37 0.31
7 -23 2 0.01 0.14
-7 -23 2 0.78 0.28
0 -24 0 9.71 0.69
0 -24 -1 0.76 0.29
0 -24 1 0.77 0.29
0 -24 -2 11.27 0.76
0 -24 2 10.72 0.75
0 -24 -3 2.82 0.39
0 -24 3 2.85 0.39
0 -24 -4 8.79 0.64
-1 -24 0 0.16 0.28
1 -24 0 -0.01 0.28
-1 -24 -1 2.22 0.38
1 -24 1 2.21 0.4
-1 -24 1 2.09 0.37
1 -24 -1 2.02 0.4
-1 -24 -2 1.07 0.3
1 -24 2 0.89 0.31
-1 -24 2 1.1 0.3
1 -24 -2 1.2 0.3
-1 -24 -3 1.46 0.31
-1 -24 3 1.48 0.32
1 -24 -3 1.2 0.3
-1 -24 -4 4.74 0.45
1 -24 -4 4.7 0.47
2 -24 0 0.17 0.28
-2 -24 0 0 0.27
2 -24 1 0.06 0.29
-2 -24 -1 0.01 0.27
2 -24 -1 0.02 0.27
-2 -24 1 0.13 0.27
2 -24 2 0.07 0.27
-2 -24 -2 0.04 0.28
-2 -24 2 0.48 0.28
2 -24 -2 0.2 0.28
-2 -24 -3 -0.01 0.28
-2 -24 3 0.12 0.29
2 -24 -3 0.18 0.27
-3 -24 0 -0.07 0.27
3 -24 0 -0.09 0.28
-3 -24 -1 1.51 0.3
3 -24 1 1.14 0.3
-3 -24 1 1.61 0.31
3 -24 -1 1.51 0.34
-3 -24 -2 0.43 0.29
3 -24 -2 0.38 0.29
-3 -24 2 0.88 0.29
-3 -24 -3 0.64 0.29
3 -24 -3 0.44 0.28
-3 -24 3 0.77 0.28
4 -24 0 3.69 0.4
-4 -24 -1 0.32 0.28
-4 -24 1 0.47 0.29
4 -24 -1 0.13 0.29
