#------------------------------------------------------------------------------
#$Date: 2019-11-07 23:24:18 +0200 (Thu, 07 Nov 2019) $
#$Revision: 224007 $
#$URL: file:///home/coder/svn-repositories/cod/cif/7/04/84/7048445.cif $
#------------------------------------------------------------------------------
#
# This file is available in the Crystallography Open Database (COD),
# http://www.crystallography.net/
#
# All data on this site have been placed in the public domain by the
# contributors.
#
data_7048445
loop_
_publ_author_name
'Wang, Dong'
'Hu, Zhiyong'
'Xu, Shasha'
'Li, Dandan'
'Zhang, Qiong'
'Ma, Wen'
'Zhou, Hongping'
'Wu, Jieying'
'Tian, Yupeng'
_publ_section_title
;
 Fluorescent metal-organic frameworks based on mixed organic ligands: new
 candidates for highly sensitive detection of TNP.
;
_journal_issue                   5
_journal_name_full
'Dalton transactions (Cambridge, England : 2003)'
_journal_page_first              1900
_journal_page_last               1905
_journal_paper_doi               10.1039/c8dt03811b
_journal_volume                  48
_journal_year                    2019
_chemical_formula_sum            'C31 H24 Co N6 O5'
_chemical_formula_weight         619.49
_space_group_crystal_system      orthorhombic
_space_group_IT_number           43
_space_group_name_Hall           'F 2 -2d'
_space_group_name_H-M_alt        'F d d 2'
_symmetry_space_group_name_Hall  'F 2 -2d'
_symmetry_space_group_name_H-M   'F d d 2'
_atom_sites_solution_hydrogens   mixed
_audit_creation_method           SHELXL-2018/3
_audit_update_record
;
2018-11-12 deposited with the CCDC.
2019-01-02 downloaded from the CCDC.
;
_cell_angle_alpha                90
_cell_angle_beta                 90
_cell_angle_gamma                90
_cell_formula_units_Z            16
_cell_length_a                   18.099(4)
_cell_length_b                   56.282(11)
_cell_length_c                   13.435(3)
_cell_measurement_reflns_used    9952
_cell_measurement_temperature    296(2)
_cell_measurement_theta_max      26.89
_cell_measurement_theta_min      2.18
_cell_volume                     13686(5)
_computing_cell_refinement       'Bruker SMART'
_computing_data_collection       'Bruker SMART'
_computing_data_reduction        'Bruker SAINT'
_computing_molecular_graphics    'Bruker SHELXTL'
_computing_publication_material  'Bruker SHELXTL'
_computing_structure_refinement  'SHELXL-2018/3 (Sheldrick, 2018)'
_computing_structure_solution    'Bruker SHELXTL'
_diffrn_ambient_temperature      296(2)
_diffrn_measured_fraction_theta_full 0.997
_diffrn_measured_fraction_theta_max 0.938
_diffrn_measurement_device_type  'CCD area detector'
_diffrn_measurement_method       'phi and omega scans'
_diffrn_radiation_type           MoK\a
_diffrn_radiation_wavelength     0.71073
_diffrn_reflns_av_R_equivalents  0.0377
_diffrn_reflns_av_unetI/netI     0.0388
_diffrn_reflns_Laue_measured_fraction_full 0.997
_diffrn_reflns_Laue_measured_fraction_max 0.938
_diffrn_reflns_limit_h_max       21
_diffrn_reflns_limit_h_min       -22
_diffrn_reflns_limit_k_max       71
_diffrn_reflns_limit_k_min       -68
_diffrn_reflns_limit_l_max       17
_diffrn_reflns_limit_l_min       -16
_diffrn_reflns_number            24881
_diffrn_reflns_point_group_measured_fraction_full 0.978
_diffrn_reflns_point_group_measured_fraction_max 0.892
_diffrn_reflns_theta_full        25.242
_diffrn_reflns_theta_max         27.326
_diffrn_reflns_theta_min         1.922
_exptl_absorpt_coefficient_mu    0.545
_exptl_absorpt_correction_T_max  0.937
_exptl_absorpt_correction_T_min  0.908
_exptl_absorpt_correction_type   multi-scan
_exptl_absorpt_process_details   '(SADABS; Sheldrick, 2003)'
_exptl_crystal_colour            red
_exptl_crystal_density_diffrn    1.203
_exptl_crystal_description       block
_exptl_crystal_F_000             5104
_exptl_crystal_size_max          0.180
_exptl_crystal_size_mid          0.160
_exptl_crystal_size_min          0.120
_refine_diff_density_max         1.323
_refine_diff_density_min         -0.899
_refine_diff_density_rms         0.137
_refine_ls_abs_structure_details
;
 Flack x determined using 2700 quotients [(I+)-(I-)]/[(I+)+(I-)]
 (Parsons, Flack and Wagner, Acta Cryst. B69 (2013) 249-259).
;
_refine_ls_abs_structure_Flack   0.210(9)
_refine_ls_extinction_coef       0.0033(4)
_refine_ls_extinction_expression Fc^*^=kFc[1+0.001xFc^2^\l^3^/sin(2\q)]^-1/4^
_refine_ls_extinction_method     'SHELXL-2018/3 (Sheldrick 2018)'
_refine_ls_goodness_of_fit_ref   1.013
_refine_ls_hydrogen_treatment    constr
_refine_ls_matrix_type           full
_refine_ls_number_parameters     394
_refine_ls_number_reflns         6908
_refine_ls_number_restraints     164
_refine_ls_restrained_S_all      1.081
_refine_ls_R_factor_all          0.0782
_refine_ls_R_factor_gt           0.0758
_refine_ls_shift/su_max          0.026
_refine_ls_shift/su_mean         0.003
_refine_ls_structure_factor_coef Fsqd
_refine_ls_weighting_details
'w=1/[\s^2^(Fo^2^)+(0.1777P)^2^+9.5375P] where P=(Fo^2^+2Fc^2^)/3'
_refine_ls_weighting_scheme      calc
_refine_ls_wR_factor_gt          0.2072
_refine_ls_wR_factor_ref         0.2106
_reflns_Friedel_coverage         0.824
_reflns_Friedel_fraction_full    0.957
_reflns_Friedel_fraction_max     0.843
_reflns_number_gt                6501
_reflns_number_total             6908
_reflns_threshold_expression     'I > 2\s(I)'
_cod_data_source_file            c8dt03811b2.cif
_cod_data_source_block           AHU-TW2
_cod_depositor_comments
'Adding full bibliography for 7048445--7048450.cif.'
_cod_database_code               7048445
_shelx_shelxl_version_number     2018/3
_shelx_space_group_comment
;
The symmetry employed for this shelxl refinement is uniquely defined
by the following loop, which should always be used as a source of
symmetry information in preference to the above space-group names.
They are only intended as comments.
;
_shelx_estimated_absorpt_t_min   0.908
_shelx_estimated_absorpt_t_max   0.937
_exptl_absorpt_special_details
'The Rint before and after absorption are 0.044 and 0.0377, respectively'
_shelx_res_file
;

TITL  SIR97 run in space group F d d 2
    1_sq.res
    created by SHELXL-2018/3 at 22:25:14 on 29-Oct-2018
CELL   0.71073   18.0993  56.2819  13.4352  90.000  90.000  90.000
ZERR         16    0.0035   0.0110   0.0026   0.000   0.000   0.000
LATT -4
SYMM -X,-Y,Z
SYMM  0.25000-X, 0.25000+Y, 0.25000+Z
SYMM  0.25000+X, 0.25000-Y, 0.25000+Z
SFAC C  H  N  O  Co
UNIT 496 384 96 80 16
MERG 2
L.S. 24  0   55
ACTA

BOND   $H
FMAP 2
PLAN 20
dfix 1.36 0.005 c38 c39 c39 c40 c40 c41 c41 c42 c42 c43 c38 c43
dfix 1.36 0.005 c5 c6 c5 c7 c9 c10 c9 c15
simu 0.01 0.02 2.0 c38 c39 c40 c41 c42 c43
delu 0.01 c38 c39
delu 0.01 c41 c42
delu 0.01 c42 c43
eqiv $1 0.25 +x, 0.25-y, 0.25+z
eqiv $2 x-0.5, y, 0.5 +z

isor 0.01 c38 c39 c40 n1 o1w o2w c40 c41 c42 O3 C9 c5 c7
dfix 0.85 0.01 o1w h1wa o2w h2wa o2w h2wb
dfix 1.4 0.03 h2wa h2wb
dfix 2.3 0.03 h1wa o2  h2wa o1 h2wb o3_$1
dfix 2.2 0.02 h2wb h21 H1wa h26_$2 H1wa H34_$2
simu 0.005 0.01 3.0 o2 c19 c4 Co1
delu 0.002 co1 o2
delu 0.01 co1 n2

omit     2  20   0
omit     2  16   0
omit     3   9  -1
omit     3   9   1
omit     8   6   0
omit     0  32   0
omit     0   4   0
omit    10   6   0
omit     0  12   0
omit     4  14   0
omit     4  10   0

delu 0.01 Co1 n6
CONF
TEMP     23.0
ABIN
WGHT    0.177700    9.537483
EXTI    0.003329
FVAR       0.04503
C38   1    0.364403    0.122724    0.336769    11.00000    0.16553    0.15505 =
         0.15929    0.00601    0.02418   -0.02366
AFIX  43
H38   2    0.363000    0.135376    0.292288    11.00000   -1.20000
AFIX   0
C40   1    0.436599    0.093892    0.429725    11.00000    0.16108    0.12793 =
         0.14935    0.00332    0.02753   -0.01835
AFIX  43
H40   2    0.481484    0.086468    0.442689    11.00000   -1.20000
AFIX   0
C39   1    0.429348    0.111423    0.359103    11.00000    0.14305    0.12831 =
         0.13284   -0.01055    0.03629   -0.02248
CO1   5    0.669096    0.011450   -0.071457    11.00000    0.03591    0.04085 =
         0.04384   -0.00342   -0.01196    0.00350
O1    4    0.690837    0.044021    0.048063    11.00000    0.13242    0.11041 =
         0.10770   -0.00888    0.01203    0.02951
N4    3    0.980982    0.027908    0.004231    11.00000    0.06598    0.09271 =
         0.08043    0.01190   -0.00797    0.00238
N5    3    1.050396    0.028304    0.147404    11.00000    0.06627    0.09799 =
         0.09032   -0.00088   -0.00857    0.00007
O2    4    0.579798    0.029959    0.021289    11.00000    0.09105    0.09175 =
         0.08611   -0.01764    0.00463    0.01747
C21   1    0.994794    0.031518    0.211332    11.00000    0.06796    0.14457 =
         0.10078    0.00705   -0.02123    0.00766
AFIX  43
H21   2    0.946242    0.035157    0.194567    11.00000   -1.20000
AFIX   0
N3    3    0.902065    0.025015   -0.131436    11.00000    0.06879    0.08365 =
         0.07887    0.01014    0.00069    0.00167
N6    3    1.097112    0.022945    0.296792    11.00000    0.07065    0.10606 =
         0.09319    0.00559   -0.01768    0.00645
N2    3    0.784187    0.018252   -0.130983    11.00000    0.06760    0.09555 =
         0.09055    0.00401   -0.01425    0.00054
N1    3    0.492641    0.118258    0.296836    11.00000    0.15613    0.09513 =
         0.14364   -0.01859    0.04387   -0.01270
C2    1    0.512203    0.066871    0.127643    11.00000    0.10594    0.09314 =
         0.10660   -0.00070    0.01682   -0.00293
AFIX  43
H2    2    0.481948    0.056521    0.092283    11.00000   -1.20000
AFIX   0
C25   1    0.973859    0.028713   -0.097178    11.00000    0.06183    0.07645 =
         0.08132    0.00328    0.00059    0.01164
C26   1    0.882724    0.020023   -0.228159    11.00000    0.07422    0.12657 =
         0.07239    0.01789   -0.00530    0.00069
AFIX  43
H26   2    0.913763    0.019682   -0.283306    11.00000   -1.20000
AFIX   0
C3    1    0.547576    0.189369    0.242257    11.00000    0.08484    0.06967 =
         0.09872   -0.00060    0.01332    0.00490
C4    1    0.586958    0.064232    0.123439    11.00000    0.09492    0.08632 =
         0.08370   -0.00109    0.00290    0.00782
C19   1    0.623251    0.044467    0.062146    11.00000    0.08303    0.07975 =
         0.07691   -0.00694   -0.00627    0.00801
C27   1    1.101904    0.036035   -0.117548    11.00000    0.08747    0.11018 =
         0.11073    0.00510    0.00882   -0.00258
AFIX  43
H27   2    1.142274    0.038968   -0.158569    11.00000   -1.20000
AFIX   0
C28   1    0.809895    0.015751   -0.226537    11.00000    0.08023    0.11670 =
         0.07107    0.00410   -0.02135    0.00063
AFIX  43
H28   2    0.781274    0.011725   -0.281496    11.00000   -1.20000
AFIX   0
C5    1    0.531206    0.148721    0.184915    11.00000    0.17795    0.09762 =
         0.12417   -0.03862    0.03502    0.00964
AFIX  43
H5    2    0.537667    0.137365    0.135389    11.00000   -1.20000
AFIX   0
C6    1    0.546079    0.171787    0.162940    11.00000    0.13574    0.07100 =
         0.10743   -0.00338    0.03307    0.01780
AFIX  43
H6    2    0.555257    0.176314    0.097526    11.00000   -1.20000
AFIX   0
C29   1    1.109616    0.023103    0.201034    11.00000    0.07358    0.09737 =
         0.09800   -0.00301   -0.01924    0.01146
AFIX  43
H29   2    1.155598    0.019879    0.173248    11.00000   -1.20000
AFIX   0
C30   1    1.046705    0.031238    0.040823    11.00000    0.05903    0.08160 =
         0.09353   -0.00656   -0.01121    0.00609
C7    1    0.507256    0.141432    0.276136    11.00000    0.11900    0.09163 =
         0.11861   -0.01053    0.05213   -0.01071
C8    1    0.631409    0.079897    0.174495    11.00000    0.13946    0.07932 =
         0.11357   -0.01690    0.01407   -0.00302
AFIX  43
H8    2    0.682572    0.078874    0.169732    11.00000   -1.20000
AFIX   0
C31   1    1.021298    0.028563    0.304812    11.00000    0.07381    0.15102 =
         0.08043    0.00438   -0.01701   -0.00644
AFIX  43
H31   2    0.994466    0.029976    0.363548    11.00000   -1.20000
AFIX   0
C9    1    0.523507    0.099480    0.238861    11.00000    0.12609    0.07054 =
         0.12912   -0.00284    0.03462    0.00783
C32   1    0.841113    0.023723   -0.078816    11.00000    0.06179    0.08305 =
         0.07099   -0.00446   -0.01157   -0.00111
AFIX  43
H32   2    0.839341    0.026491   -0.010615    11.00000   -1.20000
AFIX   0
C10   1    0.481027    0.084717    0.183749    11.00000    0.09339    0.08413 =
         0.15382    0.00655    0.02299    0.00659
AFIX  43
H10   2    0.429997    0.086651    0.183759    11.00000   -1.20000
AFIX   0
C33   1    1.110158    0.034497   -0.014473    11.00000    0.07814    0.10204 =
         0.10914    0.01128   -0.01263   -0.00071
AFIX  43
H33   2    1.156314    0.035617    0.015581    11.00000   -1.20000
AFIX   0
C11   1    0.503872    0.158850    0.353950    11.00000    0.14056    0.08068 =
         0.09347    0.00420    0.03238    0.00173
AFIX  43
H11   2    0.488190    0.154375    0.417147    11.00000   -1.20000
AFIX   0
C34   1    1.033097    0.033118   -0.156190    11.00000    0.08433    0.11292 =
         0.09080    0.02525   -0.00067   -0.01205
AFIX  43
H34   2    1.026482    0.034167   -0.224694    11.00000   -1.20000
AFIX   0
C13   1    0.523232    0.181749    0.336593    11.00000    0.09665    0.07617 =
         0.08927   -0.00584    0.00917    0.01859
AFIX  43
H13   2    0.520367    0.192703    0.388274    11.00000   -1.20000
AFIX   0
C15   1    0.598254    0.097449    0.233901    11.00000    0.15073    0.07070 =
         0.17686   -0.01660    0.01395   -0.00556
AFIX  43
H15   2    0.627804    0.107808    0.270285    11.00000   -1.20000
AFIX   0
O3    4    0.588452    0.220584    0.136683    11.00000    0.14240    0.08469 =
         0.11506    0.00433    0.05417   -0.01368
C35   1    0.560725    0.215133    0.220506    11.00000    0.07296    0.09086 =
         0.08754   -0.00754   -0.00470    0.01202
O4    4    0.549756    0.229822    0.287161    11.00000    0.17160    0.08074 =
         0.08655   -0.00945   -0.00955   -0.01432
C42   1    0.307082    0.098195    0.456751    11.00000    0.18583    0.18469 =
         0.18251    0.00480    0.01143   -0.01047
AFIX  43
H42   2    0.265075    0.093805    0.492120    11.00000   -1.20000
AFIX   0
C41   1    0.373480    0.088165    0.479337    11.00000    0.18832    0.16339 =
         0.16472    0.00254    0.01623   -0.00614
AFIX  43
H41   2    0.375776    0.077027    0.530376    11.00000   -1.20000
AFIX   0
C43   1    0.301861    0.114685    0.382349    11.00000    0.17751    0.18162 =
         0.18943    0.01160    0.02220   -0.02586
AFIX  43
H43   2    0.255860    0.120398    0.362895    11.00000   -1.20000
AFIX   0
O1W   4    0.500000    0.000000    0.118330    10.25000    0.12155    0.14255 =
         0.10454    0.00000    0.00000   -0.03261
AFIX   3
H1WA  2    0.522488    0.011148    0.148575    10.50000   -1.50000
AFIX   0
O2W   4    0.811236    0.032587    0.173291    10.75000    0.07952    0.26299 =
         0.12463    0.03564    0.00272    0.02985
AFIX   3
H2WA  2    0.803684    0.042336    0.125928    10.75000   -1.50000
H2WB  2    0.827545    0.040322    0.223123    10.75000   -1.50000

AFIX   0
HKLF      4




REM   SIR97 run in space group F d d 2
REM wR2 = 0.2106, GooF = S = 1.013, Restrained GooF = 1.081 for all data
REM R1 = 0.0758 for 6501 Fo > 4sig(Fo) and 0.0782 for all 6908 data
REM 394 parameters refined using 164 restraints

END

WGHT      0.1639      6.8074

REM Highest difference peak  1.323,  deepest hole -0.899,  1-sigma level  0.137
Q1    1   1.0000  0.0000 -0.0681  10.50000  0.05    0.84
Q2    1   1.1537  0.0106 -0.0454  11.00000  0.05    0.43
Q3    1   0.9953  0.0035  0.3634  11.00000  0.05    0.41
Q4    1   0.8108 -0.0088 -0.0883  11.00000  0.05    0.40
Q5    1   0.4784  0.1117  0.2341  11.00000  0.05    0.40
Q6    1   0.6227  0.2376  0.2426  11.00000  0.05    0.40
Q7    1   0.8314  0.0029 -0.0807  11.00000  0.05    0.39
Q8    1   0.4998  0.1016  0.1804  11.00000  0.05    0.38
Q9    1   0.7268  0.0257 -0.1085  11.00000  0.05    0.38
Q10   1   0.9608  0.0116  0.4220  11.00000  0.05    0.38
Q11   1   0.6092  0.2152  0.1931  11.00000  0.05    0.38
Q12   1   0.6089  0.0458 -0.0641  11.00000  0.05    0.37
Q13   1   0.6990  0.0365 -0.0521  11.00000  0.05    0.35
Q14   1   0.5689  0.2164  0.1517  11.00000  0.05    0.35
Q15   1   0.8592  0.0375 -0.0890  11.00000  0.05    0.34
Q16   1   1.0642 -0.0006  0.2803  11.00000  0.05    0.34
Q17   1   0.4601  0.1032  0.1215  11.00000  0.05    0.34
Q18   1   0.9166  0.0043 -0.1644  11.00000  0.05    0.33
Q19   1   0.7081  0.0314 -0.0170  11.00000  0.05    0.33
Q20   1   0.5521  0.0963  0.3692  11.00000  0.05    0.31
;
_shelx_res_checksum              7058
_shelx_fab_file
;
    0    0    4      3.72    -33.60
    0    0    8     25.30      8.27
    0    0   12     -4.22     -6.09
    0    0   16      0.53     -6.52
    2    0    2     53.94   -122.21
    2    0    6     -1.08    -20.31
    2    0   10      0.76     -1.83
    2    0   14     -1.30     -5.40
    4    0    0      3.97      1.39
    4    0    4    -27.48     -8.44
    4    0    8    -10.81     -5.20
    4    0   12     -1.72     -2.02
    4    0   16     -0.15     -0.03
    6    0    2     -7.02    -19.28
    6    0    6     -8.25     -6.44
    6    0   10     -7.14     -5.74
    6    0   14      1.08     -1.39
    8    0    0    -12.97      2.68
    8    0    4     -2.10     16.98
    8    0    8      2.63     -2.12
    8    0   12      5.01     -2.98
   10    0    2      7.25      4.48
   10    0    6     -4.64      6.32
   10    0   10      2.69      4.03
   10    0   14     -1.79     -0.72
   12    0    0     -2.90      0.14
   12    0    4      4.59     -0.89
   12    0    8     -1.91      5.83
   12    0   12      3.55     -3.11
   14    0    2      2.79      3.43
   14    0    6     -2.72      1.22
   14    0   10      1.74      1.34
   16    0    0     -3.48      0.01
   16    0    4     -2.93     -5.78
   16    0    8      0.21      3.86
   16    0   12     -0.94      2.42
   18    0    2      2.59     -2.42
   18    0    6      1.87      0.86
   18    0   10      2.05      0.05
   20    0    0      3.16      0.48
   20    0    4      3.04      0.11
   20    0    8     -0.63      0.31
   22    0    2     -2.22      1.57
    1    1    1     96.00    298.49
    1    1    3    -58.73     25.99
    1    1    5      0.48     22.28
    1    1    7     14.22     -4.89
    1    1    9      2.96      2.13
    1    1   11      0.07      2.34
    1    1   13      2.22     -1.69
    1    1   15     -0.97      2.23
    1    1   17      3.63      1.13
    3    1    1    -10.84    -61.89
    3    1    3     59.80     12.95
    3    1    5     -0.53     -2.34
    3    1    7      8.69      6.31
    3    1    9      5.14     -1.53
    3    1   11      1.72      0.80
    3    1   13     -2.01      0.86
    3    1   15      0.83     -0.99
    5    1    1     -2.60     22.10
    5    1    3     -8.74     -2.15
    5    1    5      4.46     -3.93
    5    1    7     -1.23      2.49
    5    1    9      0.81      5.03
    5    1   11      1.42     -0.07
    5    1   13     -0.77      1.17
    5    1   15     -2.57      4.05
    7    1    1      4.06     -8.62
    7    1    3      4.93    -14.88
    7    1    5    -12.03     -1.09
    7    1    7      3.05     -1.97
    7    1    9     -2.88      1.45
    7    1   11     -2.86     -0.98
    7    1   13      2.15      0.60
    7    1   15     -5.14     -3.59
    9    1    1     -4.16     -2.51
    9    1    3      4.84      1.23
    9    1    5     -5.27     -8.82
    9    1    7     -0.18     -5.50
    9    1    9      1.66     -1.32
    9    1   11     -0.65     -1.66
    9    1   13     -0.52      1.91
    9    1   15     -0.30     -0.57
   11    1    1      4.54     -2.54
   11    1    3     -1.72      2.11
   11    1    5     -0.61      1.83
   11    1    7      1.02     -4.59
   11    1    9      3.16     -0.87
   11    1   11     -1.71     -1.18
   11    1   13     -2.70      3.74
   13    1    1     -0.95     -2.65
   13    1    3     -0.40      1.54
   13    1    5      3.91      1.83
   13    1    7      1.99     -0.67
   13    1    9     -3.88     -2.35
   13    1   11     -1.20     -1.99
   13    1   13      1.23     -2.13
   15    1    1      5.45     -0.70
   15    1    3     -0.49      0.76
   15    1    5      2.54      3.62
   15    1    7      2.18     -3.47
   15    1    9      0.22     -0.90
   15    1   11      1.26     -2.66
   17    1    1     -1.16      0.93
   17    1    3     -2.63     -1.97
   17    1    5      0.95     -6.29
   17    1    7      1.18      0.92
   17    1    9      0.25      1.98
   17    1   11     -1.68      1.16
   19    1    1     -2.23     -0.57
   19    1    3      1.25     -1.58
   19    1    5     -0.88     -0.24
   19    1    7      0.83      1.98
   19    1    9      1.00     -0.38
   21    1    1      0.21     -0.51
   21    1    3     -0.46     -0.41
   21    1    5     -0.72      2.66
    0    2    2    -39.36    -92.01
    0    2    6     -4.73    -14.28
    0    2   10     -1.64      0.21
    0    2   14      1.11     -2.03
    2    2    0     90.12     -1.72
    2    2    2    -76.17    113.15
    2    2    4     -8.69     -8.00
    2    2    6     -4.13     -1.43
    2    2    8     -4.68     -3.48
    2    2   10      1.73      0.75
    2    2   12     -0.87     -0.02
    2    2   14      2.24     -1.86
    2    2   16      0.72     -0.63
    4    2    0    -30.90     -1.46
    4    2    2      9.21    -14.51
    4    2    4     22.78     27.29
    4    2    6      0.38     -3.99
    4    2    8      0.93     -2.89
    4    2   10     -1.80     -1.42
    4    2   12     -0.26      0.21
    4    2   14      1.02     -0.70
    4    2   16      1.75     -2.68
    6    2    0      2.98      0.79
    6    2    2    -14.40     20.44
    6    2    4      8.84     -6.74
    6    2    6      5.37     -2.79
    6    2    8      1.13      3.00
    6    2   10     -3.04     -2.49
    6    2   12      0.64     -1.08
    6    2   14      1.25      6.72
    6    2   16     -0.13      0.45
    8    2    0      2.54      2.35
    8    2    2     -2.59     -2.90
    8    2    4     -4.05     15.09
    8    2    6      5.06      2.69
    8    2    8     -0.10     -1.53
    8    2   10     -0.36     -0.37
    8    2   12      2.15     -4.29
    8    2   14      0.06      1.73
   10    2    0     -5.90      0.63
   10    2    2     -4.97     -0.63
   10    2    4     -5.15      2.99
   10    2    6     -3.01     -4.58
   10    2    8     -1.08      1.24
   10    2   10      1.09      0.13
   10    2   12      1.46      0.55
   10    2   14      0.48     -1.81
   12    2    0     -3.00     -0.24
   12    2    2      0.25     -0.94
   12    2    4     -4.46     -7.08
   12    2    6     -1.85     -1.39
   12    2    8      5.74      2.48
   12    2   10     -1.10      1.51
   12    2   12      4.20      2.85
   14    2    0     -3.68      0.56
   14    2    2      0.19      1.09
   14    2    4      1.31     -3.64
   14    2    6     -2.44      1.12
   14    2    8      0.12      1.64
   14    2   10      0.96     -1.50
   14    2   12     -0.94      3.35
   16    2    0      3.31      0.39
   16    2    2     -0.43      1.29
   16    2    4      2.03      5.23
   16    2    6     -0.20      0.26
   16    2    8      1.92     -2.00
   16    2   10     -0.81     -0.58
   16    2   12      2.72     -2.15
   18    2    0      1.76     -0.03
   18    2    2     -3.51      0.85
   18    2    4     -1.19     -0.88
   18    2    6      5.31     -2.22
   18    2    8      0.31     -0.93
   18    2   10     -1.49      1.95
   20    2    0      0.31      2.60
   20    2    2     -0.22     -0.16
   20    2    4      4.86     -3.48
   20    2    6      0.53     -0.71
   20    2    8      0.08      1.63
   22    2    0     -0.77      0.87
   22    2    2      3.19     -0.85
   22    2    4      0.33      0.66
    1    3    1    101.71    -76.96
    1    3    3      9.85    -58.85
    1    3    5     10.98     -1.41
    1    3    7      9.49     12.89
    1    3    9      0.17      3.37
    1    3   11     -0.50      2.97
    1    3   13     -5.02     -1.34
    1    3   15      0.67      0.69
    1    3   17     -0.28     -0.20
    3    3    1     62.21      4.90
    3    3    3    -21.36    -53.27
    3    3    5     -7.22      8.65
    3    3    7      0.25      5.63
    3    3    9      4.14      1.88
    3    3   11      1.83      2.77
    3    3   13     -1.37     -3.17
    3    3   15     -1.43      0.70
    5    3    1      0.45      0.57
    5    3    3      8.96    -15.84
    5    3    5    -10.14     15.14
    5    3    7     -2.45     -3.01
    5    3    9      2.12      2.39
    5    3   11     -0.21      0.85
    5    3   13      2.39      1.21
    5    3   15     -4.41     -2.83
    7    3    1      3.48      4.03
    7    3    3    -10.59    -10.14
    7    3    5     -0.32    -17.30
    7    3    7     -2.04      0.23
    7    3    9     -4.31      1.52
    7    3   11     -1.23      0.10
    7    3   13      0.60      3.62
    7    3   15     -5.21      6.33
    9    3    1      4.74      4.74
    9    3    3      7.75     -2.32
    9    3    5      1.99     -0.56
    9    3    7      1.34     -0.53
    9    3    9     -1.71     -4.29
    9    3   11     -0.16     -0.02
    9    3   13      1.62      0.85
    9    3   15     -0.56      1.18
   11    3    1      0.29      1.23
   11    3    3      3.24      5.20
   11    3    5     -3.68      1.39
   11    3    7     -0.54      0.67
   11    3    9     -1.75     -1.63
   11    3   11     -2.04     -1.16
   11    3   13     -1.18     -1.04
   13    3    1     -3.82     -2.03
   13    3    3     -5.93      1.27
   13    3    5      3.29     -2.87
   13    3    7      0.05     -1.35
   13    3    9     -4.97      7.53
   13    3   11      3.65     -4.10
   13    3   13     -3.87     -1.66
   15    3    1     -1.09      1.78
   15    3    3     -1.37     -4.18
   15    3    5     -1.42      2.97
   15    3    7     -2.88      0.61
   15    3    9     -0.18     -0.31
   15    3   11     -0.22      0.36
   17    3    1     -1.25      3.25
   17    3    3      3.20     -0.06
   17    3    5     -4.70      0.80
   17    3    7     -2.91      1.67
   17    3    9      1.47      0.47
   17    3   11     -0.86     -2.75
   19    3    1     -1.20     -1.03
   19    3    3     -3.80     -1.23
   19    3    5     -1.61      0.69
   19    3    7      1.25      0.91
   19    3    9      1.32      0.36
   21    3    1     -2.02     -0.79
   21    3    3     -1.34     -2.06
   21    3    5      3.47      1.10
    0    4    0   -486.23      0.73
    0    4    4    -29.24     23.69
    0    4    8    -14.63    -15.24
    0    4   12      5.62      2.88
    0    4   16     -0.72      4.90
    2    4    0   -106.32      1.80
    2    4    2    -35.96     94.12
    2    4    4     30.16      2.56
    2    4    6      2.35     -1.33
    2    4    8     -4.70      4.82
    2    4   10     -0.16     -1.57
    2    4   12     -5.20      4.44
    2    4   14      2.51      2.72
    2    4   16      0.84     -0.09
    4    4    0     12.15     -1.15
    4    4    2    -13.23     -3.93
    4    4    4     27.88      7.93
    4    4    6      0.40      0.96
    4    4    8      5.65     -0.35
    4    4   10      1.33      3.50
    4    4   12      0.15      0.88
    4    4   14      0.29     -0.17
    4    4   16      0.25     -0.02
    6    4    0      0.79      0.17
    6    4    2      8.34     14.84
    6    4    4      8.87     15.11
    6    4    6     -0.81      6.77
    6    4    8      3.72      1.43
    6    4   10      5.49      5.82
    6    4   12      4.84     -0.40
    6    4   14     -0.93      0.69
    6    4   16      0.95     -5.49
    8    4    0      6.34     -1.89
    8    4    2     -7.57      2.77
    8    4    4     -7.60     -5.69
    8    4    6     -0.14      2.31
    8    4    8     -0.62      5.25
    8    4   10      0.88     -0.80
    8    4   12     -2.80      1.74
    8    4   14      1.49      1.32
   10    4    0      6.97     -1.59
   10    4    2     -5.90     -2.38
   10    4    4      4.76     -3.15
   10    4    6      2.38     -3.21
   10    4    8     -4.20     -0.48
   10    4   10      0.40     -0.63
   10    4   12      0.90     -0.88
   10    4   14      1.81      0.48
   12    4    0      5.26      0.41
   12    4    2      7.30      0.48
   12    4    4     -3.85      2.96
   12    4    6      0.99      1.00
   12    4    8      2.16     -4.71
   12    4   10     -3.28     -3.80
   12    4   12     -2.22      2.09
   14    4    0     -1.21     -0.36
   14    4    2     -0.82      0.47
   14    4    4      0.98     -3.25
   14    4    6      1.09     -1.78
   14    4    8      0.98      2.45
   14    4   10     -4.04     -2.75
   14    4   12      0.66      2.13
   16    4    0      2.62      0.23
   16    4    2     -0.29     -3.73
   16    4    4      3.33      2.34
   16    4    6      0.46      0.96
   16    4    8     -0.61     -3.07
   16    4   10     -0.54      0.31
   16    4   12      0.37     -1.46
   18    4    0      5.42      4.90
   18    4    2     -0.90      1.03
   18    4    4      3.08      0.55
   18    4    6     -0.73     -0.85
   18    4    8     -2.45     -1.31
   18    4   10     -2.07      0.23
   20    4    0     -1.77      0.25
   20    4    2      0.17      1.55
   20    4    4     -1.31      0.32
   20    4    6     -0.56      0.43
   20    4    8      0.25     -0.74
   22    4    0     -0.54      0.98
   22    4    2      2.18     -1.43
   22    4    4      1.45     -1.94
    1    5    1    -13.09   -281.24
    1    5    3     11.98    -13.75
    1    5    5     -5.40    -23.55
    1    5    7     -3.53     -0.70
    1    5    9     -2.69     -3.54
    1    5   11      4.07     -4.14
    1    5   13     -2.22     -2.87
    1    5   15      2.24     -2.67
    3    5    1     14.59     32.54
    3    5    3    -36.85    -32.19
    3    5    5     -7.83      8.39
    3    5    7     -4.06     -2.06
    3    5    9     -3.79     -2.00
    3    5   11     -3.01     -1.01
    3    5   13      0.67     -2.27
    3    5   15     -1.03      0.35
    5    5    1     -0.09    -18.25
    5    5    3     -0.83     -6.07
    5    5    5     -9.96      1.54
    5    5    7      1.82     -6.25
    5    5    9     -0.74     -8.06
    5    5   11     -3.67     -2.39
    5    5   13     -1.62     -0.29
    5    5   15      1.37     -2.63
    7    5    1      6.51      9.72
    7    5    3      5.59     18.19
    7    5    5     -2.50      2.50
    7    5    7     -2.86     -2.18
    7    5    9      3.85     -1.14
    7    5   11      3.05      0.59
    7    5   13      0.33      1.56
    7    5   15      0.92      0.48
    9    5    1      3.12      7.92
    9    5    3     -7.02      4.81
    9    5    5      0.17      7.98
    9    5    7      0.44      3.89
    9    5    9      1.06      0.91
    9    5   11      0.48      2.12
    9    5   13     -1.23     -1.88
    9    5   15      0.29      1.52
   11    5    1     -3.96      3.42
   11    5    3     -3.51     -3.06
   11    5    5     -0.79      0.55
   11    5    7     -1.06      6.31
   11    5    9     -1.58      2.13
   11    5   11      1.78      2.13
   11    5   13      3.31     -3.95
   13    5    1      5.54      1.54
   13    5    3     -1.11      4.33
   13    5    5     -1.97      0.06
   13    5    7     -1.98     -1.27
   13    5    9     -0.06      2.96
   13    5   11      1.05     -1.00
   13    5   13     -0.38     -0.61
   15    5    1     -3.32      2.07
   15    5    3     -0.14      0.04
   15    5    5     -3.08     -2.58
   15    5    7     -1.26      2.29
   15    5    9     -0.62      1.55
   15    5   11     -1.34      1.06
   17    5    1     -4.23     -2.16
   17    5    3      1.83      1.26
   17    5    5     -1.85      4.02
   17    5    7      0.27      0.75
   17    5    9     -0.09     -0.65
   17    5   11     -0.76     -0.58
   19    5    1      2.06      2.67
   19    5    3     -2.28     -3.57
   19    5    5      1.20      1.06
   19    5    7     -1.40      0.00
   19    5    9     -0.20     -0.09
   21    5    1     -0.94     -1.54
   21    5    3     -1.11      1.69
   21    5    5      0.41     -1.85
    0    6    2     66.86    144.40
    0    6    6     -2.13     37.09
    0    6   10      0.96      0.62
    0    6   14     -3.05      6.04
    2    6    0   -175.47      4.36
    2    6    2     64.51    -38.32
    2    6    4     18.79      6.85
    2    6    6      8.42    -15.49
    2    6    8      4.97      6.87
    2    6   10     -2.06     -1.37
    2    6   12      1.28      2.04
    2    6   14     -1.21     -1.02
    2    6   16     -3.41      1.89
    4    6    0     35.26      0.76
    4    6    2    -20.22     24.15
    4    6    4     -0.97    -17.90
    4    6    6      1.47      1.49
    4    6    8     -1.05      4.99
    4    6   10      3.08      4.45
    4    6   12      0.72     -1.29
    4    6   14     -1.40      3.16
    4    6   16     -0.76      0.62
    6    6    0     -9.42     -0.53
    6    6    2     10.53    -17.20
    6    6    4    -14.77      6.10
    6    6    6      3.28     -7.90
    6    6    8     -1.73     -4.09
    6    6   10      3.65     -0.18
    6    6   12      0.42      0.58
    6    6   14     -3.52     -4.94
    6    6   16      1.05     -0.03
    8    6    0     15.32     -4.50
    8    6    2      5.58      1.97
    8    6    4     -2.94     -4.30
    8    6    6     -4.71     -5.13
    8    6    8      3.19     -3.18
    8    6   10      1.48      0.14
    8    6   12      1.36      4.66
    8    6   14      0.54     -3.40
   10    6    0      6.80     -0.94
   10    6    2      8.27      7.84
   10    6    4      8.81     -6.71
   10    6    6      1.89     -3.46
   10    6    8      1.80     -1.01
   10    6   10      1.88      1.34
   10    6   12     -2.73     -1.83
   10    6   14     -1.08      0.90
   12    6    0     -1.08     -0.88
   12    6    2     -2.43      0.13
   12    6    4      1.74      2.64
   12    6    6      4.52      1.86
   12    6    8     -0.49      0.03
   12    6   10      2.48     -2.36
   12    6   12     -3.04     -1.95
   14    6    0      4.61     -0.93
   14    6    2     -1.51      3.92
   14    6    4     -1.17      5.13
   14    6    6      2.42     -1.43
   14    6    8      1.15     -2.75
   14    6   10     -2.17      1.50
   14    6   12      2.76     -4.97
   16    6    0      0.96      0.47
   16    6    2      2.26     -1.84
   16    6    4     -1.92     -2.99
   16    6    6      0.26     -2.03
   16    6    8     -1.16      0.97
   16    6   10      2.31      1.06
   16    6   12     -0.07     -0.18
   18    6    0     -3.77      0.43
   18    6    2      2.10     -0.27
   18    6    4      2.58      1.36
   18    6    6     -1.96     -1.22
   18    6    8     -0.29      2.00
   18    6   10      0.24      0.21
   20    6    0      0.13      0.26
   20    6    2     -1.07      1.25
   20    6    4     -2.10     -0.17
   20    6    6      0.04      1.11
   20    6    8     -0.36     -1.57
   22    6    0      1.44      0.22
   22    6    2     -1.78      1.23
   22    6    4     -1.47     -1.27
    1    7    1     52.13    -27.62
    1    7    3    -35.90     16.55
    1    7    5      0.57     29.28
    1    7    7    -13.26      1.38
    1    7    9     -0.64     -5.76
    1    7   11      0.22     -2.41
    1    7   13      4.26      2.49
    1    7   15     -1.39     -0.66
    3    7    1    -43.75    -23.58
    3    7    3     24.28      7.25
    3    7    5      0.27     -8.45
    3    7    7      9.21     -9.81
    3    7    9     -4.69      0.17
    3    7   11     -1.57     -2.68
    3    7   13      1.10      1.59
    3    7   15      0.68     -1.38
    5    7    1     13.99      9.62
    5    7    3     -8.13     14.11
    5    7    5     14.27    -21.87
    5    7    7      3.84      6.28
    5    7    9     -2.44     -2.16
    5    7   11     -1.65     -0.67
    5    7   13     -1.23      2.10
    5    7   15      1.87      1.70
    7    7    1     -8.14      0.72
    7    7    3     14.01      4.92
    7    7    5     -2.42      1.52
    7    7    7      1.00      1.04
    7    7    9      3.24     -4.78
    7    7   11     -0.01     -0.11
    7    7   13     -4.17     -1.05
    7    7   15      3.60     -3.20
    9    7    1     -4.04     -5.08
    9    7    3    -18.20      5.89
    9    7    5     -6.14      7.69
    9    7    7      1.31      0.08
    9    7    9     -0.21      0.76
    9    7   11      0.54      0.31
    9    7   13     -2.19      0.18
    9    7   15      1.23      0.11
   11    7    1      3.50      0.54
   11    7    3     -4.93     -5.54
   11    7    5      2.00     -4.78
   11    7    7      0.53     -0.28
   11    7    9      0.51      4.28
   11    7   11      0.08      2.32
   11    7   13      0.10      1.62
   13    7    1      3.74     -2.50
   13    7    3      6.31     -6.24
   13    7    5     -1.59     -2.01
   13    7    7      0.58      4.56
   13    7    9      4.85     -5.27
   13    7   11     -1.99      3.69
   13    7   13      1.03      1.30
   15    7    1      0.84      0.40
   15    7    3      1.35      3.11
   15    7    5     -0.98     -0.39
   15    7    7      2.88     -0.90
   15    7    9      1.36     -0.21
   15    7   11     -3.17     -1.80
   17    7    1      0.45     -2.77
   17    7    3     -2.82      0.11
   17    7    5      1.56     -0.03
   17    7    7      2.24     -1.02
   17    7    9     -0.72     -2.31
   17    7   11      0.98      1.34
   19    7    1      1.57     -0.36
   19    7    3      2.27      0.22
   19    7    5      1.17     -0.09
   19    7    7      0.87      0.23
   19    7    9     -0.67      0.18
   21    7    1      1.04      0.50
   21    7    3      1.32      2.37
   21    7    5     -1.82     -1.90
    0    8    0      7.70     -0.65
    0    8    4     53.18    -15.12
    0    8    8      2.17     20.74
    0    8   12     -7.41      1.14
    0    8   16     -0.98     -2.73
    2    8    0     58.23     -1.00
    2    8    2     15.31    -32.34
    2    8    4     -2.70     10.30
    2    8    6     -9.83     27.64
    2    8    8     -2.74     -3.56
    2    8   10     -0.94      6.58
    2    8   12      4.69     -4.61
    2    8   14     -3.63      1.75
    2    8   16      0.27      0.82
    4    8    0    -30.58      0.95
    4    8    2    -10.21    -13.96
    4    8    4    -23.96     -1.59
    4    8    6     -8.84      2.80
    4    8    8      1.53      6.33
    4    8   10     -0.34     -3.56
    4    8   12      1.37      1.69
    4    8   14      0.48     -0.15
    4    8   16      0.44      0.58
    6    8    0      1.92     -0.20
    6    8    2     -8.60     -0.90
    6    8    4    -17.41    -10.10
    6    8    6     11.57     -6.63
    6    8    8     -6.49      0.63
    6    8   10     -1.63     -3.25
    6    8   12     -1.80      0.77
    6    8   14      0.42      0.45
    6    8   16     -0.93      5.09
    8    8    0      3.42     -0.05
    8    8    2      8.95     -9.02
    8    8    4     16.01     -6.98
    8    8    6      0.92     -2.71
    8    8    8     -1.42     -9.15
    8    8   10      1.07      1.16
    8    8   12      0.37      0.47
    8    8   14     -0.70     -2.45
   10    8    0     -9.77      1.59
   10    8    2      5.20      4.81
   10    8    4     -1.91      2.80
   10    8    6     -1.26     -1.15
   10    8    8      0.73     -0.60
   10    8   10     -1.99     -3.91
   10    8   12     -0.87      0.05
   10    8   14     -0.70     -0.63
   12    8    0     -4.47     -1.46
   12    8    2     -9.38      3.87
   12    8    4     -0.62     -2.52
   12    8    6      1.84     -0.21
   12    8    8     -2.11      2.76
   12    8   10     -0.15      2.60
   12    8   12      1.77     -0.84
   14    8    0     -4.49      0.69
   14    8    2     -0.19     -2.38
   14    8    4      2.46      2.77
   14    8    6      1.43      1.22
   14    8    8     -5.25     -1.37
   14    8   10      4.77      4.02
   14    8   12     -0.57     -2.55
   16    8    0     -0.02     -0.44
   16    8    2      1.49      0.33
   16    8    4     -1.79      2.23
   16    8    6     -0.77     -0.21
   16    8    8      0.19      2.58
   16    8   10      0.63      0.13
   16    8   12      0.08     -1.28
   18    8    0     -7.18     -6.40
   18    8    2     -0.16      0.80
   18    8    4     -1.14     -0.19
   18    8    6     -1.31      0.91
   18    8    8      0.17      0.50
   18    8   10      1.45     -0.98
   20    8    0      0.37     -1.15
   20    8    2      0.52     -1.79
   20    8    4      0.13     -0.11
   20    8    6      0.79      1.12
   20    8    8     -0.48      0.93
   22    8    0     -0.91     -1.23
   22    8    2     -0.67      1.41
   22    8    4     -1.09      2.40
    1    9    1    -31.52     84.50
    1    9    3     13.88    -21.64
    1    9    5     -2.06      5.46
    1    9    7      9.35      2.32
    1    9    9     -0.69     -0.88
    1    9   11     -3.40      3.97
    1    9   13      0.53      1.89
    1    9   15     -1.98     -0.63
    1    9   17      1.59      0.59
    3    9    1      5.00      4.00
    3    9    3     32.47     16.96
    3    9    5     23.86      2.16
    3    9    7    -10.65     -5.69
    3    9    9      2.46      3.65
    3    9   11     -0.56      0.21
    3    9   13     -0.28      1.49
    3    9   15     -1.09     -0.83
    5    9    1     -3.00      1.67
    5    9    3      6.16      3.50
    5    9    5     -1.82      3.98
    5    9    7     -2.50      4.75
    5    9    9     -1.95      6.81
    5    9   11      4.49      5.38
    5    9   13      1.30      0.21
    5    9   15      0.21     -0.25
    7    9    1    -11.96      3.12
    7    9    3    -10.28     -3.87
    7    9    5     -0.81     -4.55
    7    9    7     -2.12      7.97
    7    9    9     -0.94      3.37
    7    9   11     -0.87      1.00
    7    9   13     -1.84     -2.11
    7    9   15      2.07      1.31
    9    9    1     -0.75     -7.53
    9    9    3      0.19    -10.30
    9    9    5      5.70      4.03
    9    9    7     -3.00     -1.07
    9    9    9      2.48      0.13
    9    9   11     -0.07      1.44
    9    9   13      1.76      0.54
    9    9   15      0.80     -0.99
   11    9    1      3.09     -0.44
   11    9    3      6.31      5.05
   11    9    5     -1.94     -0.35
   11    9    7     -1.85     -3.79
   11    9    9     -1.86     -2.08
   11    9   11     -0.30     -2.67
   11    9   13     -2.73      2.49
   13    9    1      0.33     -1.00
   13    9    3     -2.48     -2.58
   13    9    5     -1.19     -1.72
   13    9    7      0.84      2.58
   13    9    9      0.81     -3.78
   13    9   11     -1.81      0.54
   13    9   13     -0.70      1.06
   15    9    1      0.15     -0.97
   15    9    3      3.41     -2.38
   15    9    5      1.92      0.02
   15    9    7     -0.41      1.22
   15    9    9      0.07     -2.80
   15    9   11     -1.65      1.30
   15    9   13      0.72     -0.87
   17    9    1      6.46      0.49
   17    9    3      1.79     -0.75
   17    9    5      1.99     -1.00
   17    9    7     -0.35     -0.88
   17    9    9     -0.62     -0.25
   17    9   11      1.13     -0.45
   19    9    1     -0.18     -2.99
   19    9    3      2.51      4.26
   19    9    5     -0.63      0.11
   19    9    7      0.21     -1.27
   19    9    9     -0.78     -0.85
   21    9    1      1.60      1.02
   21    9    3      1.28     -0.58
   21    9    5      1.24      2.00
   21    9    7      0.44     -0.93
    0   10    2    -30.50    -32.27
    0   10    6     17.00    -27.87
    0   10   10      1.32     -1.19
    0   10   14      3.09     -4.74
    2   10    0     92.60     -3.34
    2   10    2    -39.91    -11.79
    2   10    4    -18.73      8.80
    2   10    6      0.54     11.49
    2   10    8      1.47      0.73
    2   10   10      3.25      0.27
    2   10   12     -1.37     -2.68
    2   10   14      1.34      2.32
    2   10   16      6.40     -2.44
    4   10    0      1.21     -1.11
    4   10    2     14.64     -9.74
    4   10    4     -1.86      6.26
    4   10    6     -1.77     11.03
    4   10    8      5.86     -7.05
    4   10   10     -3.15     -5.90
    4   10   12     -1.21     -0.03
    4   10   14     -0.04     -3.16
    4   10   16      0.04      1.25
    6   10    0      9.85     -1.13
    6   10    2     -2.73      5.60
    6   10    4      9.87      8.34
    6   10    6     -5.39      9.24
    6   10    8      1.07     -0.31
    6   10   10     -2.16      0.91
    6   10   12     -2.14      0.73
    6   10   14      3.47      0.47
    6   10   16     -1.72     -1.27
    8   10    0    -18.38      2.91
    8   10    2     -3.65      3.98
    8   10    4      1.01     -5.06
    8   10    6     -3.02      2.84
    8   10    8     -2.72      3.17
    8   10   10     -1.48      0.00
    8   10   12     -5.72     -3.31
    8   10   14     -0.42      1.46
   10   10    0      1.47     -0.86
   10   10    2    -10.08    -10.41
   10   10    4     -0.57      3.56
   10   10    6     -1.91      5.81
   10   10    8      1.12     -2.40
   10   10   10     -1.24      1.23
   10   10   12      2.16      0.85
   10   10   14      0.47     -0.23
   12   10    0      3.44      0.97
   12   10    2      3.94      1.07
   12   10    4     -1.83      2.35
   12   10    6     -4.43      0.88
   12   10    8     -1.28     -3.16
   12   10   10     -1.99      0.55
   12   10   12      1.24      3.34
   14   10    0     -1.57      0.43
   14   10    2      2.43     -0.53
   14   10    4     -1.57      0.11
   14   10    6     -0.98     -2.84
   14   10    8     -3.43      0.57
   14   10   10      4.00      0.59
   14   10   12     -3.34      1.02
   16   10    0     -2.54     -1.13
   16   10    2     -4.75      0.39
   16   10    4     -1.46      0.36
   16   10    6     -0.18      3.37
   16   10    8      1.43      0.86
   16   10   10     -2.16     -0.15
   18   10    0      2.12     -0.63
   18   10    2     -1.62      0.16
   18   10    4     -1.95     -1.33
   18   10    6      0.10      2.20
   18   10    8      0.20     -0.84
   18   10   10     -0.25     -0.71
   20   10    0      0.01     -1.55
   20   10    2      2.70     -2.48
   20   10    4     -1.44      0.59
   20   10    6     -1.69     -0.99
   20   10    8      1.25      1.99
   22   10    0     -1.07     -2.55
   22   10    2      0.39     -1.03
    1   11    1    -33.28     57.65
    1   11    3     12.66     -0.31
    1   11    5     -3.18    -48.59
    1   11    7      8.50     -2.35
    1   11    9     -1.41     -3.35
    1   11   11     -0.63      1.25
    1   11   13     -1.89     -4.91
    1   11   15     -2.12     -0.28
    3   11    1      9.71     30.90
    3   11    3     -1.67     22.00
    3   11    5      6.92    -13.54
    3   11    7     -9.27      1.94
    3   11    9      1.70      2.41
    3   11   11      1.04     -1.98
    3   11   13     -0.07     -0.50
    3   11   15      1.14     -1.31
    5   11    1     -2.22     -7.81
    5   11    3      2.43    -14.83
    5   11    5     -2.19     12.34
    5   11    7     -0.84     -6.56
    5   11    9      1.94     -0.46
    5   11   11      2.96     -1.06
    5   11   13     -0.37     -3.07
    5   11   15      0.60      0.80
    7   11    1     10.33     -3.29
    7   11    3     -7.10      2.52
    7   11    5     10.67     11.11
    7   11    7      0.73     -2.12
    7   11    9     -0.10      4.40
    7   11   11      2.56      3.52
    7   11   13      5.11     -2.73
    7   11   15     -0.83      0.89
    9   11    1     -2.92      3.15
    9   11    3     11.35     -5.13
    9   11    5      3.22     -5.58
    9   11    7      1.92      1.75
    9   11    9      2.37      3.95
    9   11   11     -1.07     -0.27
    9   11   13      2.47     -0.89
   11   11    1    -10.15      3.61
   11   11    3      7.90     -0.25
   11   11    5      2.77      2.95
   11   11    7     -3.37     -1.71
   11   11    9      4.02      0.92
   11   11   11      3.29     -1.53
   11   11   13     -1.02     -2.65
   13   11    1     -3.36      2.73
   13   11    3     -6.39      4.69
   13   11    5     -1.33      6.89
   13   11    7     -0.16     -2.12
   13   11    9     -0.13     -0.22
   13   11   11      1.17      0.82
   13   11   13      1.63     -1.49
   15   11    1      0.41      1.45
   15   11    3      2.17      3.35
   15   11    5      0.14     -3.63
   15   11    7     -2.27     -2.67
   15   11    9     -0.95     -0.65
   15   11   11      2.55      3.80
   17   11    1      1.41      2.64
   17   11    3      0.89     -1.47
   17   11    5      0.92     -2.67
   17   11    7     -0.44     -0.88
   17   11    9      1.19      3.29
   19   11    1     -1.49      1.36
   19   11    3     -0.96      0.86
   19   11    5      0.88     -1.53
   19   11    7     -0.52     -2.49
   19   11    9     -1.25      0.24
   21   11    1     -0.39      0.32
   21   11    3     -1.56     -0.27
   21   11    5      0.16      1.30
    0   12    0     87.80      0.09
    0   12    4    -33.12     31.60
    0   12    8     -1.10     -6.76
    0   12   12      4.85      1.83
    0   12   16      4.59      2.24
    2   12    0     34.88      0.56
    2   12    2    -17.79    -11.60
    2   12    4    -33.80    -21.46
    2   12    6     20.61    -16.44
    2   12    8      1.70     -3.38
    2   12   10      2.39     -4.09
    2   12   12     -2.01      4.28
    2   12   14      2.26     -0.89
    2   12   16     -1.03     -0.51
    4   12    0     20.55     -0.97
    4   12    2     27.65     24.94
    4   12    4      8.42     -8.06
    4   12    6     10.64     -4.84
    4   12    8     -1.78     -2.94
    4   12   10     -3.59      1.50
    4   12   12     -0.10     -2.25
    4   12   14     -1.76     -0.98
    4   12   16     -0.89     -0.02
    6   12    0     -2.98      0.31
    6   12    2      2.75    -11.69
    6   12    4     18.61     -8.40
    6   12    6     -9.95      4.57
    6   12    8      2.79     -1.18
    6   12   10     -0.14     -2.39
    6   12   12     -4.42     -2.00
    6   12   14     -0.07     -0.66
    6   12   16     -1.27     -2.11
    8   12    0     -2.88      0.73
    8   12    2     -0.53      7.62
    8   12    4     -6.03      1.92
    8   12    6     -0.15      4.10
    8   12    8     -0.93      5.78
    8   12   10     -4.00     -2.76
    8   12   12     -1.26     -0.87
    8   12   14     -0.43      3.20
   10   12    0     12.23     -0.19
   10   12    2     -7.11    -12.43
   10   12    4     -2.48     -1.22
   10   12    6      4.58      1.84
   10   12    8      3.20      1.47
   10   12   10     -3.19      2.46
   10   12   12      0.62     -0.01
   10   12   14     -1.98      1.48
   12   12    0     -1.36      1.21
   12   12    2      7.35    -10.37
   12   12    4      8.02     -3.28
   12   12    6     -3.12     -0.77
   12   12    8      1.14     -2.61
   12   12   10      3.22     -0.93
   12   12   12     -3.62      1.09
   14   12    0      7.70     -0.76
   14   12    2     -3.00     -3.33
   14   12    4     -2.10     -0.68
   14   12    6     -1.82      1.48
   14   12    8      5.86     -0.48
   14   12   10      0.82     -2.78
   14   12   12     -0.67      0.14
   16   12    0     -2.07     -0.53
   16   12    2     -1.59      2.53
   16   12    4     -2.92     -0.96
   16   12    6     -0.33      1.52
   16   12    8      1.26     -2.86
   16   12   10      0.49     -0.33
   18   12    0      4.96      4.84
   18   12    2     -1.47      0.05
   18   12    4     -1.11      0.80
   18   12    6      0.86     -0.29
   18   12    8      2.76      0.49
   18   12   10      0.17      1.23
   20   12    0     -0.65      0.98
   20   12    2      0.28      0.72
   20   12    4     -2.00     -0.76
   20   12    6     -1.40     -1.31
   20   12    8      1.64      0.22
   22   12    0      2.57      0.76
   22   12    2     -0.85     -0.94
    1   13    1      5.15     29.62
    1   13    3      0.63     36.10
    1   13    5     -4.81     13.83
    1   13    7    -18.65      3.89
    1   13    9      2.36      5.92
    1   13   11      0.17     -4.11
    1   13   13     -0.20      0.41
    1   13   15      2.51      1.50
    3   13    1    -29.24     -8.22
    3   13    3    -40.82      2.94
    3   13    5    -21.77    -10.47
    3   13    7      5.04      9.03
    3   13    9     -1.05     -5.10
    3   13   11      3.62      2.77
    3   13   13      0.79      1.31
    3   13   15      2.29      0.98
    5   13    1      5.58      1.41
    5   13    3    -13.24     10.31
    5   13    5      7.69     -5.01
    5   13    7      1.41     -2.04
    5   13    9      1.40     -2.39
    5   13   11     -4.00     -3.65
    5   13   13      0.73      1.43
    5   13   15      0.99      2.38
    7   13    1     -1.08     -9.65
    7   13    3      5.54     -9.14
    7   13    5     10.89      4.84
    7   13    7      2.83     -6.77
    7   13    9     -0.88     -3.28
    7   13   11      1.41     -0.68
    7   13   13      1.47     -1.33
    7   13   15     -1.79     -0.42
    9   13    1     -0.04      6.29
    9   13    3      6.67      7.04
    9   13    5     -2.74     -6.15
    9   13    7      2.66      2.23
    9   13    9     -5.87     -1.51
    9   13   11      0.53     -3.82
    9   13   13      0.92      1.94
   11   13    1     -4.15      1.06
   11   13    3     -3.99     -1.52
   11   13    5      5.62     -1.33
   11   13    7      2.94      2.74
   11   13    9      0.21      2.99
   11   13   11      0.94      0.08
   11   13   13      2.29     -0.59
   13   13    1     -7.20     -0.19
   13   13    3      7.81     -3.55
   13   13    5      1.94      4.18
   13   13    7     -1.57     -0.33
   13   13    9     -1.17      0.97
   13   13   11      0.64      2.69
   13   13   13      1.26     -0.97
   15   13    1     -1.05      1.16
   15   13    3      0.12      1.53
   15   13    5      2.40      0.53
   15   13    7     -1.31     -3.36
   15   13    9     -0.18      2.01
   15   13   11      2.41     -0.83
   17   13    1     -2.04      0.27
   17   13    3     -2.52      0.07
   17   13    5     -1.47      0.71
   17   13    7     -1.81     -0.34
   17   13    9      0.62     -0.15
   19   13    1     -0.34      2.25
   19   13    3      0.61     -0.49
   19   13    5      0.66     -0.13
   19   13    7     -0.17     -0.16
   21   13    1     -0.88     -0.42
   21   13    3     -0.12      1.48
   21   13    5     -1.82     -0.91
    0   14    2     10.09    -34.69
    0   14    6     -0.85    -12.67
    0   14   10      0.03     -0.59
    0   14   14     -2.42     -0.31
    2   14    0     28.09      0.55
    2   14    2     26.42      7.08
    2   14    4     17.07     -5.67
    2   14    6    -11.52      1.96
    2   14    8      0.69    -11.01
    2   14   10     -4.83      2.22
    2   14   12      2.54     -1.33
    2   14   14     -1.82     -0.79
    2   14   16     -5.45      2.23
    4   14    0    -40.20      1.03
    4   14    2      0.96     -0.50
    4   14    4    -14.75     -3.16
    4   14    6     -4.19    -11.04
    4   14    8     -7.93      5.01
    4   14   10      7.02      4.41
    4   14   12      2.22      0.89
    4   14   14     -0.09     -0.28
    4   14   16     -0.20     -2.07
    6   14    0      1.37      0.95
    6   14    2      0.82      5.26
    6   14    4     -9.69    -12.98
    6   14    6     -2.34     -1.16
    6   14    8     -0.20      2.14
    6   14   10     -0.37      1.34
    6   14   12      0.78      0.70
    6   14   14      0.12      1.72
    6   14   16      1.58      1.37
    8   14    0      3.97      0.53
    8   14    2     -2.20     -6.01
    8   14    4      3.48      4.52
    8   14    6      1.83     -1.20
    8   14    8     -0.20      1.03
    8   14   10      0.24      1.89
    8   14   12      4.56      0.77
    8   14   14     -0.65      0.49
   10   14    0     -0.97      1.94
   10   14    2      6.61      4.30
   10   14    4     -8.31      3.49
   10   14    6      0.22     -0.70
   10   14    8     -5.23      3.23
   10   14   10     -1.61     -3.87
   10   14   12     -1.48      1.08
   10   14   14     -0.33      0.37
   12   14    0     -0.75      0.17
   12   14    2     -0.99      1.56
   12   14    4      1.47     -3.00
   12   14    6      3.72     -3.47
   12   14    8     -1.11      2.93
   12   14   10     -0.19      0.05
   12   14   12     -0.51     -3.44
   14   14    0      4.63     -0.65
   14   14    2     -2.74     -7.07
   14   14    4      2.57     -2.00
   14   14    6     -1.65      6.51
   14   14    8      3.10      1.85
   14   14   10     -2.59     -2.28
   14   14   12      0.75      0.69
   16   14    0      1.59      1.14
   16   14    2      5.08     -0.69
   16   14    4      3.09     -0.22
   16   14    6      0.57     -1.04
   16   14    8     -1.09     -1.59
   16   14   10      0.93     -0.67
   18   14    0      1.33     -0.31
   18   14    2      0.07      0.00
   18   14    4      0.94      2.24
   18   14    6     -0.83     -1.13
   18   14    8     -0.04     -0.90
   18   14   10      0.52     -0.26
   20   14    0     -0.80      0.35
   20   14    2     -1.07      1.65
   20   14    4      1.53      1.28
   20   14    6      1.21      1.69
   20   14    8     -1.59     -2.35
   22   14    0      0.32      2.00
   22   14    2      0.23      0.94
    1   15    1    -22.29     -4.46
    1   15    3      6.19     15.94
    1   15    5     -7.74     29.89
    1   15    7      6.82      1.52
    1   15    9      2.82      8.82
    1   15   11     -0.20     -0.26
    1   15   13      0.09      5.18
    1   15   15      4.84     -0.97
    3   15    1     22.62    -15.60
    3   15    3     -0.94     -7.95
    3   15    5      4.42     28.74
    3   15    7      1.74     -4.82
    3   15    9      0.17     -0.78
    3   15   11     -4.29      1.85
    3   15   13      0.95      2.53
    3   15   15     -2.95      4.30
    5   15    1    -10.99    -12.02
    5   15    3      0.12     23.21
    5   15    5     -9.88     -3.99
    5   15    7     -0.04      3.04
    5   15    9     -0.11     -1.09
    5   15   11     -1.31      2.50
    5   15   13     -0.34     -0.04
    5   15   15     -1.49     -2.72
    7   15    1     -3.54      7.05
    7   15    3     -4.31     -4.17
    7   15    5    -11.54     -7.36
    7   15    7     -1.18     -0.81
    7   15    9      1.14     -1.65
    7   15   11     -2.57     -5.65
    7   15   13     -3.04      1.58
    7   15   15     -0.07     -1.71
    9   15    1      4.15      0.03
    9   15    3      2.00      1.18
    9   15    5     -1.47     -0.10
    9   15    7     -0.35     -4.21
    9   15    9     -0.48     -2.85
    9   15   11      0.66     -0.84
    9   15   13     -0.34      0.35
   11   15    1      9.69     -6.76
   11   15    3     -7.77      7.26
   11   15    5     -5.82      0.60
   11   15    7      2.71      3.84
   11   15    9     -3.93     -5.11
   11   15   11     -2.30      1.53
   11   15   13      0.79      0.87
   13   15    1      1.90      2.03
   13   15    3      4.90      1.87
   13   15    5      1.55     -6.81
   13   15    7      1.41     -2.81
   13   15    9     -2.53      2.55
   13   15   11     -1.88     -1.73
   13   15   13      0.16      1.53
   15   15    1     -2.68      0.36
   15   15    3     -3.56     -4.01
   15   15    5      2.56      2.88
   15   15    7      0.32      2.63
   15   15    9     -0.52      1.96
   15   15   11     -0.05     -3.38
   17   15    1     -1.38     -2.27
   17   15    3     -0.43     -0.57
   17   15    5     -2.52      2.02
   17   15    7      0.31      2.97
   17   15    9     -1.05     -1.51
   19   15    1      1.22     -0.91
   19   15    3      1.12     -1.11
   19   15    5     -2.12     -0.32
   19   15    7     -0.62      1.38
   21   15    1      1.17     -1.56
   21   15    3      1.77     -2.42
   21   15    5     -0.19     -0.72
    0   16    0     40.20      0.19
    0   16    4     20.84    -49.45
    0   16    8     -4.04    -14.87
    0   16   12      1.64     -8.16
    0   16   16     -4.56     -0.32
    2   16    0    -35.13     -2.33
    2   16    2     12.54     14.02
    2   16    4     20.98     10.85
    2   16    6    -21.27     -6.37
    2   16    8      9.61      9.11
    2   16   10     -1.40     -4.09
    2   16   12      1.72     -4.78
    2   16   14      0.03     -3.89
    2   16   16      0.34      0.06
    4   16    0     -3.78      0.99
    4   16    2     -4.52    -11.94
    4   16    4     10.24      6.93
    4   16    6     -4.16      4.48
    4   16    8      0.86     -0.69
    4   16   10      4.94     -0.76
    4   16   12      0.16     -1.18
    4   16   14      1.52      5.15
    4   16   16     -0.39     -3.00
    6   16    0     -0.75      0.01
    6   16    2      7.29      8.15
    6   16    4    -13.73     17.48
    6   16    6      7.30     -3.06
    6   16    8      2.03     -0.60
    6   16   10     -2.13      4.54
    6   16   12      5.85      4.76
    6   16   14      0.15      0.25
    6   16   16      3.16      2.01
    8   16    0     -1.18     -0.57
    8   16    2    -10.30      0.05
    8   16    4     -1.99      3.42
    8   16    6     -2.24     -4.73
    8   16    8      3.81      1.53
    8   16   10      3.28      3.65
    8   16   12      2.69     -0.62
    8   16   14     -0.13     -1.67
   10   16    0    -13.02     -0.35
   10   16    2      6.76      8.17
   10   16    4      3.15     -0.56
   10   16    6     -4.44     -3.20
   10   16    8     -0.79      0.74
   10   16   10      5.80      1.78
   10   16   12      0.07      0.33
   10   16   14      3.29     -1.54
   12   16    0      0.73     -0.10
   12   16    2     -4.45     10.00
   12   16    4    -10.00      4.63
   12   16    6      0.73      1.44
   12   16    8     -0.58      2.97
   12   16   10     -1.16      1.34
   12   16   12      2.59     -1.35
   14   16    0     -3.95      0.65
   14   16    2      4.69      3.92
   14   16    4     -3.34     -0.36
   14   16    6      0.18     -2.23
   14   16    8     -0.60      1.07
   14   16   10     -4.32      1.67
   14   16   12      1.56      1.02
   16   16    0      1.63      2.82
   16   16    2      0.19     -0.05
   16   16    4      5.54     -2.16
   16   16    6      2.13     -3.65
   16   16    8     -1.05      0.93
   16   16   10     -1.45     -1.03
   18   16    0     -1.73     -2.73
   18   16    2      0.89     -1.67
   18   16    4      0.53     -0.76
   18   16    6      2.70     -0.75
   18   16    8     -2.42      0.10
   18   16   10     -1.13     -0.44
   20   16    0     -0.27     -0.08
   20   16    2     -1.63      0.27
   20   16    4      2.02      0.73
   20   16    6      1.83     -0.41
   22   16    0     -2.59     -0.47
   22   16    2     -0.56     -0.13
    1   17    1      9.98      0.19
    1   17    3    -15.90    -36.37
    1   17    5     28.31     -5.05
    1   17    7      5.28    -10.91
    1   17    9     -1.31     -6.49
    1   17   11     -1.26      5.48
    1   17   13      2.18      1.36
    1   17   15     -3.06      1.67
    3   17    1     24.58     -7.86
    3   17    3     25.03     -4.55
    3   17    5      6.41      2.71
    3   17    7      7.67    -10.82
    3   17    9     -3.93      6.08
    3   17   11     -3.03     -2.36
    3   17   13     -1.60     -1.93
    3   17   15     -0.61      0.14
    5   17    1     -2.80     -0.65
    5   17    3     20.02    -15.98
    5   17    5     -2.55     -1.06
    5   17    7     -1.08      4.94
    5   17    9      1.16     -1.41
    5   17   11      3.37     -1.66
    5   17   13     -1.04     -1.84
    5   17   15     -4.89     -2.22
    7   17    1     15.56      3.61
    7   17    3      1.51      6.61
    7   17    5     -7.63     -1.88
    7   17    7      0.70     -0.18
    7   17    9     -1.25      1.55
    7   17   11     -1.84     -2.80
    7   17   13     -0.36      3.68
    7   17   15     -0.22     -0.67
    9   17    1     -0.63     -4.20
    9   17    3     -7.26     -3.73
    9   17    5     -1.41      0.73
    9   17    7      1.95     -3.43
    9   17    9      1.88     -1.11
    9   17   11     -2.20      0.67
    9   17   13     -2.76     -2.26
   11   17    1      2.95     -6.68
   11   17    3      3.17     -4.39
   11   17    5     -3.45      0.18
   11   17    7      0.56     -3.45
   11   17    9      2.30     -2.36
   11   17   11     -1.04      0.37
   11   17   13     -1.89     -1.64
   13   17    1      5.05      1.20
   13   17    3     -7.69      3.83
   13   17    5      1.66     -3.91
   13   17    7      2.72     -2.34
   13   17    9      1.90      1.22
   13   17   11     -0.47     -3.85
   13   17   13      0.29      1.85
   15   17    1      0.66     -4.16
   15   17    3     -4.74      1.79
   15   17    5     -3.54      0.49
   15   17    7      1.83      2.30
   15   17    9      0.40      1.51
   15   17   11      0.92     -0.85
   17   17    1     -2.41      1.48
   17   17    3      1.31     -0.55
   17   17    5     -1.52     -0.94
   17   17    7      1.80      1.67
   17   17    9      0.47     -0.23
   19   17    1     -0.73     -1.91
   19   17    3     -2.87     -0.53
   19   17    5     -0.13     -1.26
   19   17    7      0.57      2.22
   21   17    1      0.56      1.16
   21   17    3      0.25     -4.63
   21   17    5     -0.07     -0.66
    0   18    2    -17.87     13.03
    0   18    6    -31.00     32.94
    0   18   10      0.11      2.53
    0   18   14      2.63      1.70
    2   18    0    -43.08      0.25
    2   18    2    -34.51      0.30
    2   18    4    -12.42    -10.10
    2   18    6      2.56      8.14
    2   18    8     -3.15      7.25
    2   18   10      5.85     -1.79
    2   18   12     -2.35      2.71
    2   18   14      1.01     -0.70
    2   18   16      0.77     -2.11
    4   18    0     22.27      0.07
    4   18    2     -9.93      0.39
    4   18    4     12.31      6.19
    4   18    6      5.67     -2.60
    4   18    8      3.18     -1.03
    4   18   10     -8.82     -1.12
    4   18   12     -3.45      1.26
    4   18   14      1.98      1.54
    4   18   16      0.80      2.15
    6   18    0    -12.26      0.15
    6   18    2     -5.31     -6.83
    6   18    4      8.26      8.05
    6   18    6      6.24     -1.84
    6   18    8     -1.54     -1.59
    6   18   10      1.39     -2.26
    6   18   12      1.42     -0.35
    6   18   14     -2.71      1.11
    8   18    0      5.06     -0.78
    8   18    2      6.47      8.59
    8   18    4      1.71     -0.08
    8   18    6      0.30      1.77
    8   18    8      1.05     -1.14
    8   18   10      1.60     -2.13
    8   18   12      1.48      0.74
    8   18   14      1.77      1.77
   10   18    0     -2.01     -1.31
   10   18    2     -1.07      2.49
   10   18    4      5.54     -3.45
   10   18    6      2.61     -2.01
   10   18    8      3.33     -1.36
   10   18   10      0.69      1.09
   10   18   12      1.43      1.12
   10   18   14      1.71     -0.34
   12   18    0     -3.44     -0.81
   12   18    2     -0.56     -2.33
   12   18    4      2.23      0.76
   12   18    6     -5.00      2.01
   12   18    8      1.42      1.09
   12   18   10      0.67      0.56
   12   18   12      1.07     -0.16
   14   18    0     -5.76      1.35
   14   18    2      2.99      6.93
   14   18    4     -2.04     -2.12
   14   18    6      1.81     -2.74
   14   18    8     -0.02     -1.74
   14   18   10     -1.47      1.17
   14   18   12      2.47     -0.48
   16   18    0     -1.87     -0.73
   16   18    2     -2.46      1.97
   16   18    4      0.51      2.32
   16   18    6      0.12     -1.52
   16   18    8     -0.46      0.32
   16   18   10     -1.86     -0.38
   18   18    0     -1.81      1.03
   18   18    2      3.27     -0.37
   18   18    4     -0.31     -1.47
   18   18    6      0.97      1.24
   18   18    8     -0.73      0.58
   18   18   10      1.06      0.27
   20   18    0      0.97      0.49
   20   18    2     -0.79      0.89
   20   18    4      1.02     -0.10
   20   18    6      0.98     -1.07
   22   18    2     -1.06     -1.53
    1   19    1     16.07     -9.95
    1   19    3     11.18    -13.75
    1   19    5     19.44     -2.46
    1   19    7    -14.43    -15.22
    1   19    9      1.83     -1.45
    1   19   11      1.22     -1.15
    1   19   13      1.28     -1.62
    1   19   15     -2.43      3.88
    3   19    1    -22.72      0.85
    3   19    3    -11.32    -10.51
    3   19    5    -12.55    -18.22
    3   19    7      2.17     10.16
    3   19    9      3.46     -3.68
    3   19   11      7.54      3.13
    3   19   13     -1.63     -3.85
    3   19   15      2.93     -3.38
    5   19    1      7.00     21.25
    5   19    3      1.85    -23.43
    5   19    5      2.39      0.66
    5   19    7     -1.98      0.87
    5   19    9      1.21      4.16
    5   19   11     -0.95     -1.27
    5   19   13      0.87      0.27
    5   19   15      1.86      1.61
    7   19    1     -0.16    -11.58
    7   19    3      0.58      1.87
    7   19    5      1.04      1.28
    7   19    7     -2.24      1.91
    7   19    9     -3.02     -0.24
    7   19   11     -0.79      4.95
    7   19   13      0.47      1.20
    7   19   15     -1.56      1.06
    9   19    1      1.07     -0.75
    9   19    3     -4.64      2.59
    9   19    5     -0.32      2.78
    9   19    7     -6.02      4.04
    9   19    9     -1.58     -0.25
    9   19   11      1.13      1.89
    9   19   13     -2.57     -0.40
   11   19    1      0.42      3.32
   11   19    3      1.16     -5.74
   11   19    5      3.09     -0.34
   11   19    7      0.54     -4.19
   11   19    9     -0.17      2.45
   11   19   11     -0.30     -1.45
   11   19   13     -0.42      1.54
   13   19    1      1.13     -1.81
   13   19    3     -1.81     -2.36
   13   19    5     -0.12      3.76
   13   19    7     -1.92      2.16
   13   19    9     -0.38     -1.42
   13   19   11      0.24     -1.34
   13   19   13     -2.27      1.06
   15   19    1      4.78     -3.82
   15   19    3      0.70     -0.59
   15   19    5     -3.61     -0.25
   15   19    7      0.02      1.47
   15   19    9      1.56      0.50
   15   19   11     -0.06     -0.98
   17   19    1      0.36      0.41
   17   19    3      0.43      1.93
   17   19    5      1.83      1.10
   17   19    7     -0.47     -3.06
   17   19    9     -0.87     -0.12
   19   19    1     -0.74     -0.93
   19   19    3     -1.79      1.51
   19   19    5      2.20      2.35
   19   19    7     -0.49      1.08
   21   19    1     -1.20      3.53
   21   19    5     -0.08      1.48
    0   20    0    -38.73     -0.05
    0   20    4    -39.47     35.83
    0   20    8      7.11     21.64
    0   20   12     -6.87      8.61
    2   20    0      1.47      3.10
    2   20    2      5.65     -3.95
    2   20    4      6.69      7.36
    2   20    6      9.89      9.11
    2   20    8     -6.98     -7.50
    2   20   10     -4.96      7.07
    2   20   12     -1.33      2.32
    2   20   14     -2.03      5.52
    2   20   16     -0.50     -1.01
    4   20    0      5.70     -0.43
    4   20    2    -18.37      1.51
    4   20    4    -13.38      2.90
    4   20    6      4.96     -6.91
    4   20    8     -2.91     -0.85
    4   20   10     -0.49      1.06
    4   20   12     -2.06      3.93
    4   20   14      0.32     -7.51
    4   20   16      1.53      5.16
    6   20    0      2.63     -0.44
    6   20    2    -12.27      1.33
    6   20    4     11.16    -11.00
    6   20    6     -4.66      2.74
    6   20    8      0.73     -0.82
    6   20   10      3.85     -1.54
    6   20   12     -2.87     -6.79
    6   20   14      1.01     -0.08
    8   20    0     -4.25      0.86
    8   20    2     11.45      0.09
    8   20    4     -1.96      0.56
    8   20    6      2.75      2.16
    8   20    8     -1.70     -3.91
    8   20   10      0.59     -1.80
    8   20   12     -2.01      0.76
    8   20   14      1.67     -1.41
   10   20    0      6.08     -0.32
   10   20    2     -2.99      4.04
   10   20    4     -1.33      2.96
   10   20    6      0.27      5.37
   10   20    8     -2.29     -3.84
   10   20   10     -1.56     -1.89
   10   20   12     -1.33      1.34
   12   20    0      2.80     -0.24
   12   20    2      2.00     -2.40
   12   20    4      5.03     -1.56
   12   20    6      0.12     -2.36
   12   20    8      1.38     -1.14
   12   20   10      0.44     -0.11
   12   20   12      1.39     -0.08
   12   20   14      0.78     -0.49
   14   20    0      1.45     -0.46
   14   20    2     -3.11      2.21
   14   20    4      4.10      1.00
   14   20    6      1.86     -0.78
   14   20    8     -2.37     -1.50
   14   20   10      0.34     -1.99
   14   20   12      0.12      1.79
   16   20    0     -0.92     -3.48
   16   20    2     -0.14     -1.04
   16   20    4     -2.61      1.11
   16   20    6     -1.97      2.19
   16   20    8      0.17      2.07
   16   20   10      0.10      2.31
   18   20    0     -0.83      1.40
   18   20    2      1.91      0.72
   18   20    4     -0.14     -2.15
   18   20    6     -4.65      0.16
   18   20    8      1.46     -0.25
   20   20    0      2.41      0.05
   20   20    2     -0.01     -0.61
   20   20    4      0.56     -1.59
   20   20    6     -0.79      0.53
   22   20    2      1.56      0.82
    1   21    1      0.99    -23.11
    1   21    3     14.35     34.47
    1   21    5    -32.25    -20.47
    1   21    7     10.86     11.81
    1   21    9     -1.53      2.29
    1   21   11      4.52     -3.06
    1   21   13     -3.15     -3.45
    1   21   15      1.90     -2.34
    3   21    1     -3.90      9.54
    3   21    3      4.48     -2.52
    3   21    5      0.13      5.26
    3   21    7     -3.85     10.62
    3   21    9      4.74     -1.80
    3   21   11      0.10     -3.30
    3   21   13      1.83      2.11
    3   21   15     -2.18     -1.29
    5   21    1      2.50      9.16
    5   21    3    -16.95      6.35
    5   21    5     -1.69      0.56
    5   21    7      2.02     -4.00
    5   21    9     -2.40      1.91
    5   21   11     -1.51      4.20
    5   21   13     -0.86     -1.04
    5   21   15      5.88      1.86
    7   21    1    -11.57     -3.31
    7   21    3     -2.52     -6.45
    7   21    5      1.93     -1.00
    7   21    7     -1.56      2.92
    7   21    9      3.16     -0.97
    7   21   11     -1.49      4.19
    7   21   13      1.11     -1.51
    7   21   15      0.30      0.39
    9   21    1      0.58     -1.32
    9   21    3      4.63      1.38
    9   21    5      0.02     -2.56
    9   21    7     -3.27      2.78
    9   21    9      3.40      5.00
    9   21   11      3.55      1.75
    9   21   13      0.40     -0.49
   11   21    1      0.49      5.98
   11   21    3     -6.07      3.76
   11   21    5      0.18      3.15
   11   21    7     -4.35      2.43
   11   21    9     -0.62     -0.84
   11   21   11     -1.36      2.47
   11   21   13      0.65      2.05
   13   21    1     -2.12     -0.73
   13   21    3      4.06     -0.16
   13   21    5     -4.22      0.52
   13   21    7     -2.01      2.45
   13   21    9     -0.98     -0.40
   13   21   11      1.81      1.83
   13   21   13     -2.03     -2.53
   15   21    1      2.18      5.32
   15   21    3      3.12     -2.99
   15   21    5     -0.59     -0.94
   15   21    7      1.04     -0.54
   15   21    9      0.61     -2.95
   15   21   11     -1.35     -0.59
   17   21    1      1.88     -2.74
   17   21    3     -1.90      1.09
   17   21    5      4.97      1.22
   17   21    7      1.83     -1.08
   17   21    9     -1.32      1.19
   19   21    1      0.31      0.99
   19   21    3      1.20     -1.51
   19   21    5     -0.61      1.85
   19   21    7      0.46     -2.64
   21   21    1     -1.37     -0.43
   21   21    5      1.25      0.27
    0   22    2      6.47    -13.57
    0   22    6     33.54    -16.21
    0   22   10     -2.19      0.20
    0   22   14     -3.31      0.43
    2   22    0     -5.11      0.77
    2   22    2     33.83      3.15
    2   22    4     -4.33     12.71
    2   22    6     13.26    -21.22
    2   22    8     -1.55      3.86
    2   22   10     -3.55     -1.25
    2   22   12     -1.14      2.57
    2   22   14      0.26      0.31
    4   22    0     12.09      0.01
    4   22    2      6.34     -1.27
    4   22    4      8.33     -3.16
    4   22    6      1.08      6.76
    4   22    8     -0.20      1.83
    4   22   10      3.08     -1.60
    4   22   12      3.11     -1.32
    4   22   14     -2.76      1.47
    4   22   16     -0.01     -1.72
    6   22    0     11.63      0.48
    6   22    2      2.72      8.95
    6   22    4     -1.97     -4.46
    6   22    6     -0.15      0.53
    6   22    8      1.84      1.71
    6   22   10     -1.11      0.09
    6   22   12     -1.30     -3.12
    6   22   14      2.06     -3.38
    8   22    0     -6.15     -0.24
    8   22    2     -5.07    -11.27
    8   22    4     -4.98      0.65
    8   22    6      4.55     -1.75
    8   22    8     -1.46     -2.40
    8   22   10     -2.60     -0.99
    8   22   12     -3.56     -0.55
    8   22   14     -2.67     -4.06
   10   22    0     -2.32      0.46
   10   22    2     -0.77     -3.13
   10   22    4      2.21     -2.49
   10   22    6     -0.64     -0.06
   10   22    8      2.37      0.66
   10   22   10      1.74      1.55
   10   22   12     -0.65     -4.31
   10   22   14     -1.80     -0.53
   12   22    0      4.94      0.68
   12   22    2     -1.04     -0.56
   12   22    4     -3.19     -0.82
   12   22    6      4.48      2.29
   12   22    8      0.58     -3.84
   12   22   10      2.05     -0.45
   12   22   12     -1.24      2.03
   14   22    0      0.53     -1.52
   14   22    2     -2.64     -3.34
   14   22    4      1.70      5.45
   14   22    6      1.40     -2.43
   14   22    8     -3.23     -0.64
   14   22   10      2.27      0.19
   14   22   12     -2.25      2.64
   16   22    0      1.46      0.29
   16   22    2      1.12     -0.40
   16   22    4     -2.70     -2.74
   16   22    6     -2.83     -0.65
   16   22    8      0.53      0.34
   16   22   10      3.20      0.81
   18   22    0     -0.71     -0.76
   18   22    2     -3.89      0.14
   18   22    4      0.56     -1.11
   18   22    6     -0.01     -0.99
   18   22    8      0.38      1.42
   20   22    0     -0.03     -0.13
   20   22    2     -0.16     -1.94
   20   22    4     -0.60     -1.50
   20   22    6     -2.13     -0.66
    1   23    1     -3.94    -15.77
    1   23    3    -16.02     -5.90
    1   23    5    -15.75     -6.96
    1   23    7      5.80     17.93
    1   23    9     -5.03     -3.46
    1   23   11     -1.27      1.12
    1   23   13     -0.49     -2.79
    1   23   15     -1.88     -5.14
    3   23    1      0.51     -7.70
    3   23    3      3.77      7.36
    3   23    5     -1.27      0.36
    3   23    7      0.23     -2.98
    3   23    9     -6.81      1.69
    3   23   11     -4.13     -2.96
    3   23   13     -1.04     -0.76
    3   23   15     -1.10     -0.42
    5   23    1      1.92     -9.05
    5   23    3     -0.57      8.53
    5   23    5      6.05      1.48
    5   23    7     -0.49     -0.84
    5   23    9     -3.64     -2.76
    5   23   11      1.48      0.23
    5   23   13     -0.19      3.18
    5   23   15     -1.10      0.39
    7   23    1      1.00     11.91
    7   23    3      5.48     -0.09
    7   23    5      4.56     -1.56
    7   23    7      5.00      0.01
    7   23    9      0.80      1.02
    7   23   11      2.03     -2.59
    7   23   13      1.64      0.05
    7   23   15      2.71      2.51
    9   23    1     -2.66     -1.14
    9   23    3      2.05     -0.78
    9   23    5      0.57     -3.27
    9   23    7      4.82     -0.65
    9   23    9     -0.71     -0.98
    9   23   11     -1.62     -1.35
    9   23   13      1.57      3.25
   11   23    1     -4.76      1.59
   11   23    3      3.38      0.17
   11   23    5      1.55     -1.04
   11   23    7     -1.57      1.21
   11   23    9     -0.23      1.09
   11   23   11     -0.33      0.72
   11   23   13      1.60     -1.05
   13   23    1     -2.13      0.31
   13   23    3      1.46     -1.41
   13   23    5     -0.89     -1.87
   13   23    7     -1.08      2.71
   13   23    9      4.19      0.08
   13   23   11      2.54      1.45
   15   23    1     -3.15      1.06
   15   23    3      0.74      2.41
   15   23    5      2.01      1.24
   15   23    7      1.42     -1.74
   15   23    9     -1.59     -3.64
   15   23   11      0.18      3.64
   17   23    1      1.25      1.21
   17   23    3      0.92      1.71
   17   23    5     -0.41     -1.17
   17   23    7      0.10      1.05
   17   23    9      2.49     -1.42
   19   23    1      0.64      1.68
   19   23    3      2.58     -1.72
   19   23    5     -1.08     -0.06
   19   23    7      2.24     -0.74
   21   23    1      0.60     -4.39
    0   24    0    -23.95     -0.11
    0   24    4     37.50     -3.54
    0   24    8      6.42     -9.11
    0   24   12      6.69     -1.79
    2   24    0     -9.61     -1.59
    2   24    2     -5.33      4.54
    2   24    4     -1.59     -9.11
    2   24    6      1.55     -2.49
    2   24    8     -2.31      1.38
    2   24   10      8.99     -2.04
    2   24   12     -0.77      0.73
    2   24   14      3.55     -0.18
    4   24    0    -16.34     -0.04
    4   24    2      8.17     -4.57
    4   24    4      2.36     -5.98
    4   24    6     -7.94      6.63
    4   24    8      2.68      1.63
    4   24   10     -2.71     -0.87
    4   24   12      0.67     -2.01
    4   24   14     -0.54      2.31
    4   24   16     -0.59     -2.67
    6   24    0     -1.24     -0.35
    6   24    2      7.46     -1.66
    6   24    4     -8.72      3.64
    6   24    6     -3.70     -0.44
    6   24    8     -4.72      3.58
    6   24   10     -1.71     -0.74
    6   24   12     -0.30      4.33
    6   24   14     -2.33     -0.84
    8   24    0     11.38     -1.04
    8   24    2     -4.84     -3.74
    8   24    4      2.49     -1.68
    8   24    6     -0.70     -1.83
    8   24    8     -0.71      2.70
    8   24   10     -1.98      1.31
    8   24   12      1.60     -0.79
    8   24   14     -2.29      1.45
   10   24    0      1.43      0.23
   10   24    2      0.83     -5.79
   10   24    4     -2.80     -2.52
   10   24    6      1.00     -3.06
   10   24    8      1.43      3.08
   10   24   10     -1.08     -1.02
   10   24   12      1.58     -2.28
   10   24   14     -3.01      1.75
   12   24    0      2.07     -0.18
   12   24    2     -1.73     -1.99
   12   24    4     -0.93      2.03
   12   24    6      0.95      1.57
   12   24    8     -1.90     -0.35
   12   24   10     -2.95     -2.13
   12   24   12     -2.74      1.73
   14   24    0     -1.72      0.16
   14   24    2      2.49     -2.78
   14   24    4      0.07     -1.55
   14   24    6     -2.39      3.21
   14   24    8      0.42      0.98
   14   24   10      2.50      2.17
   16   24    0      0.78      0.97
   16   24    2      1.65     -1.10
   16   24    4     -1.83      0.46
   16   24    6      0.33     -0.37
   16   24    8     -1.27     -1.20
   16   24   10      1.62     -1.35
   18   24    0      2.97     -0.58
   18   24    2     -2.14      1.47
   18   24    4     -0.48      3.68
   18   24    6      2.39      1.02
   18   24    8     -2.23     -1.04
   20   24    0     -2.93     -0.64
   20   24    2      2.43      1.00
   20   24    4     -0.71      3.59
    1   25    1     -0.99     -5.51
    1   25    3     -8.17    -21.90
    1   25    5     12.32     24.85
    1   25    7     -7.36     -8.99
    1   25    9      0.24      5.64
    1   25   11     -3.11     -3.87
    1   25   13      1.03      1.85
    1   25   15     -0.84     -1.54
    3   25    1      2.17     -5.06
    3   25    3    -10.58      2.56
    3   25    5      5.67      0.34
    3   25    7     -3.39     -3.98
    3   25    9      2.09     -4.60
    3   25   11      1.65      6.00
    3   25   13     -0.06     -4.00
    3   25   15      1.72      2.02
    5   25    1     -6.85    -13.27
    5   25    3      7.39     -1.11
    5   25    5      3.24      5.20
    5   25    7     -0.49     -2.58
    5   25    9      2.33      0.41
    5   25   11     -0.76     -2.47
    5   25   13      1.99      2.53
    5   25   15     -1.37     -1.97
    7   25    1     -0.93      7.36
    7   25    3     -1.09     11.24
    7   25    5     -4.09      4.18
    7   25    7      0.59     -0.43
    7   25    9     -2.13      0.36
    7   25   11      2.33     -1.39
    7   25   13     -1.99     -1.21
    9   25    1     -0.78      5.34
    9   25    3     -0.78      3.67
    9   25    5      1.57      3.36
    9   25    7      0.20     -2.11
    9   25    9     -1.73     -2.65
    9   25   11     -3.83      0.01
    9   25   13      2.57      2.50
   11   25    1     -2.08      0.51
   11   25    3      5.62     -0.12
   11   25    5     -0.56     -4.22
   11   25    7      4.17     -1.34
   11   25    9     -1.96      2.29
   11   25   11      2.14     -2.04
   11   25   13      0.86     -0.17
   13   25    1      2.55      0.67
   13   25    3     -1.58     -1.11
   13   25    5      1.49      0.68
   13   25    7      1.14     -1.54
   13   25    9     -0.60      0.34
   13   25   11     -1.10     -0.31
   15   25    1     -2.12     -3.25
   15   25    3     -0.96      1.63
   15   25    5      4.01      0.94
   15   25    7     -2.31      0.19
   15   25    9     -0.93      1.05
   15   25   11     -2.22      3.78
   17   25    1     -0.67      1.67
   17   25    3      2.52      0.06
   17   25    5     -4.56     -3.45
   17   25    7     -2.58     -0.28
   17   25    9      1.11     -0.78
   19   25    1      1.00      0.70
   19   25    3     -0.71      1.20
   19   25    5      0.29     -2.05
   19   25    7     -1.73      1.75
   21   25    1      0.90     -1.78
    0   26    2     15.58     31.72
    0   26    6    -13.09      5.26
    0   26   10      0.11     -4.58
    0   26   14      3.14      0.28
    2   26    0      6.93     -0.85
    2   26    2    -13.07      3.80
    2   26    4     19.30     -7.04
    2   26    6    -13.82     10.80
    2   26    8      1.62     -3.45
    2   26   10     -3.08      0.17
    2   26   12      4.14     -4.60
    2   26   14     -0.78      0.61
    4   26    0    -10.29     -0.23
    4   26    2      1.41      2.94
    4   26    4    -10.29     -3.43
    4   26    6     -3.86      2.20
    4   26    8     -0.58     -6.38
    4   26   10      2.95      2.11
    4   26   12     -1.02     -2.36
    4   26   14      1.39     -2.40
    6   26    0     -5.18     -1.35
    6   26    2      4.33    -14.83
    6   26    4      4.28     -1.09
    6   26    6     -5.41     -2.46
    6   26    8      1.56     -0.83
    6   26   10      0.60      1.34
    6   26   12      0.87      3.28
    6   26   14     -1.22      2.04
    8   26    0      7.23     -0.30
    8   26    2      1.34      4.69
    8   26    4     -1.66     -3.06
    8   26    6     -4.83      1.60
    8   26    8      2.28      2.98
    8   26   10      1.97      2.62
    8   26   12      0.69     -1.02
    8   26   14      2.63      1.76
   10   26    0      3.73     -0.08
   10   26    2     -0.05      0.41
   10   26    4     -3.60      3.91
   10   26    6     -2.99      1.97
   10   26    8     -2.26     -1.44
   10   26   10     -0.39      0.38
   10   26   12      0.02      1.01
   10   26   14     -0.36      0.79
   12   26    0     -3.63     -0.51
   12   26    2     -0.40      0.51
   12   26    4      0.60      2.69
   12   26    6     -0.60     -4.25
   12   26    8     -1.36      2.51
   12   26   10     -3.23      0.30
   12   26   12      0.91     -0.70
   14   26    0     -0.06      1.22
   14   26    2      1.52      2.72
   14   26    4     -0.85     -4.03
   14   26    6     -3.17      1.75
   14   26    8      4.97      2.08
   14   26   10     -0.28     -0.32
   16   26    0      0.98     -0.01
   16   26    2     -2.28     -2.20
   16   26    4      0.70      0.68
   16   26    6      4.18      4.67
   16   26    8      0.25      0.89
   16   26   10     -0.60      1.08
   18   26    0      1.99      0.48
   18   26    2      2.04     -0.19
   18   26    4     -1.61      1.76
   18   26    6      0.09     -0.24
   18   26    8      1.72     -2.43
   20   26    0     -0.54      0.18
   20   26    2      1.31      0.74
   20   26    4     -2.42     -0.88
    1   27    1     16.91      5.20
    1   27    3     -7.32      9.09
    1   27    5      4.79      9.36
    1   27    7      0.21     -0.42
    1   27    9      2.01     -0.54
    1   27   11      1.05      0.88
    1   27   13     -1.92      2.96
    1   27   15      2.01      3.32
    3   27    1      7.50     13.27
    3   27    3      9.34     -1.09
    3   27    5     12.14      6.31
    3   27    7     -1.60     -0.71
    3   27    9      2.41      1.43
    3   27   11     -0.85     -1.79
    3   27   13      2.16      6.79
    3   27   15      0.86      1.23
    5   27    1     -2.75      0.47
    5   27    3     -4.38      4.91
    5   27    5      0.32      1.79
    5   27    7      1.57     -1.96
    5   27    9      3.11     -0.41
    5   27   11     -1.51     -1.32
    5   27   13      0.96     -3.00
    5   27   15     -1.69      0.05
    7   27    1     -5.54     -7.40
    7   27    3      1.71     -0.82
    7   27    5      0.73      3.06
    7   27    7     -2.82     -1.09
    7   27    9      0.98     -2.03
    7   27   11      0.26      0.65
    7   27   13     -2.86     -0.88
    9   27    1      0.05      2.30
    9   27    3     -2.36     -2.81
    9   27    5      2.84      1.20
    9   27    7      1.10     -0.44
    9   27    9      2.83      3.40
    9   27   11     -0.16      0.43
    9   27   13      1.90     -4.48
   11   27    1      0.16     -2.43
   11   27    3     -0.47     -0.31
   11   27    5     -2.28      1.22
   11   27    7      0.23      1.70
   11   27    9      4.66     -1.46
   11   27   11      0.75     -1.03
   11   27   13     -1.48      0.42
   13   27    1      0.56     -2.89
   13   27    3     -2.51      1.18
   13   27    5      0.88      0.38
   13   27    7      1.90     -4.02
   13   27    9     -3.62     -0.01
   13   27   11     -1.54      1.03
   15   27    1     -0.60      2.70
   15   27    3      1.66     -1.02
   15   27    5     -0.37     -2.54
   15   27    7     -1.01     -3.11
   15   27    9      0.30      1.97
   15   27   11     -2.52     -1.45
   17   27    1     -3.41     -0.23
   17   27    3     -1.38     -4.16
   17   27    5      1.23     -0.49
   17   27    7     -1.35      0.85
   17   27    9     -1.80      2.32
   19   27    1     -0.76     -1.14
   19   27    3     -2.45      1.98
   19   27    5     -0.36     -1.54
   19   27    7     -2.63     -1.28
   21   27    1     -0.36      2.63
   21   27    3      0.53      0.62
    0   28    0     -6.57     -0.09
    0   28    4     -5.13    -14.27
    0   28    8    -15.39     -6.46
    0   28   12     -1.67     -5.69
    2   28    0     15.50      0.44
    2   28    2     -5.06     -3.79
    2   28    4    -12.98     -0.85
    2   28    6     -5.53      0.99
    2   28    8     -2.73      0.58
    2   28   10     -3.17     -2.48
    2   28   12      1.26     -0.14
    2   28   14     -2.53     -6.81
    4   28    0     16.11     -0.27
    4   28    2      6.52      3.61
    4   28    4      4.63      1.29
    4   28    6      2.00     -0.85
    4   28    8     -1.18     -0.11
    4   28   10      1.27     -0.36
    4   28   12      2.66     -0.47
    4   28   14     -1.34      3.55
    6   28    0      4.52      1.15
    6   28    2     -0.47      0.62
    6   28    4      1.84     -3.10
    6   28    6      5.44     -2.17
    6   28    8      3.24     -3.21
    6   28   10     -0.93      0.59
    6   28   12      2.18     -0.49
    6   28   14      1.03      2.68
    8   28    0     -7.40      0.57
    8   28    2      1.57     -0.48
    8   28    4      2.02     -0.28
    8   28    6     -0.40      4.30
    8   28    8     -2.39     -3.72
    8   28   10      0.47     -3.96
    8   28   12     -2.68      3.52
    8   28   14      0.86      0.70
   10   28    0      0.79      0.44
   10   28    2     -1.55      1.44
   10   28    4      6.34     -1.13
   10   28    6      0.45     -1.06
   10   28    8     -0.36      0.20
   10   28   10     -0.90      2.13
   10   28   12     -0.55      0.16
   12   28    0     -7.18      0.20
   12   28    2      3.48      0.31
   12   28    4      0.79     -3.38
   12   28    6      0.08      1.60
   12   28    8      1.25     -1.59
   12   28   10      2.38      2.42
   12   28   12      1.18     -1.75
   14   28    0      0.59     -0.06
   14   28    2     -2.72     -1.00
   14   28    4     -2.09      1.20
   14   28    6      0.55     -1.96
   14   28    8      0.72      0.77
   14   28   10      1.59     -1.77
   16   28    0      1.56      1.21
   16   28    2     -1.66      0.99
   16   28    4      3.02      1.45
   16   28    6     -0.15      0.81
   16   28    8      2.68     -2.13
   16   28   10     -0.55      0.34
   18   28    0     -3.48      0.30
   18   28    2      0.95     -1.63
   18   28    4      2.76     -1.46
   18   28    6      0.17      0.21
   18   28    8      3.24      1.19
   20   28    0      1.74      0.18
   20   28    2     -1.56     -1.09
   20   28    4     -1.34     -2.74
    1   29    1     -6.12      9.40
    1   29    3      3.02      4.94
    1   29    5      4.22     -7.87
    1   29    7     -0.56      6.21
    1   29    9      5.06     -8.97
    1   29   11     -1.58      5.93
    1   29   13      2.17      1.00
    3   29    1    -10.88      7.52
    3   29    3     -3.60      1.63
    3   29    5    -10.92     -6.24
    3   29    7      1.30     -1.62
    3   29    9     -5.64      3.14
    3   29   11     -0.32     -1.27
    3   29   13     -2.56      2.91
    3   29   15      2.47     -2.20
    5   29    1      6.21      5.39
    5   29    3     -1.54      6.11
    5   29    5     -3.55     -3.09
    5   29    7     -3.70      3.05
    5   29    9     -1.17     -1.95
    5   29   11      0.50      0.18
    5   29   13     -0.11     -0.46
    5   29   15     -2.59      0.36
    7   29    1      3.86     -1.06
    7   29    3      1.95     -5.05
    7   29    5      3.49     -7.79
    7   29    7     -0.06     -0.76
    7   29    9      1.38      1.72
    7   29   11      2.18     -0.96
    7   29   13      0.48      0.60
    9   29    1      0.36     -3.88
    9   29    3     -2.44     -6.21
    9   29    5     -0.21      3.78
    9   29    7      0.08      1.86
    9   29    9     -3.25     -2.97
    9   29   11      3.52      0.19
    9   29   13     -2.72     -2.10
   11   29    1      1.13     -1.22
   11   29    3     -2.55      0.07
   11   29    5      1.38      2.81
   11   29    7     -1.52      2.27
   11   29    9      1.73      0.07
   11   29   11     -0.27     -1.37
   11   29   13     -1.17     -0.98
   13   29    1     -0.65     -1.91
   13   29    3      0.80      1.29
   13   29    5      2.64      0.31
   13   29    7     -1.67      1.85
   13   29    9      0.94     -0.61
   13   29   11     -2.01      0.80
   15   29    1     -0.08      1.79
   15   29    3      1.35     -1.33
   15   29    5     -3.93     -1.06
   15   29    7      1.13     -0.12
   15   29    9     -0.84     -0.45
   17   29    1      1.67      0.30
   17   29    3     -1.81     -1.74
   17   29    5      1.50      4.50
   17   29    7     -1.62     -0.65
   17   29    9     -0.32     -0.22
   19   29    1     -0.66     -1.30
   19   29    3      3.24      0.58
   19   29    5      0.25      2.17
   19   29    7      1.98     -1.48
    0   30    2     -9.89    -11.61
    0   30    6      1.98     -9.94
    0   30   10      2.71      2.33
    0   30   14     -1.85     -2.81
    2   30    0     16.99      0.24
    2   30    2      0.95     -9.33
    2   30    4    -10.10      5.10
    2   30    6      6.79      1.10
    2   30    8      3.06     -2.68
    2   30   10      6.77      3.94
    2   30   12     -2.93     -0.72
    2   30   14      0.08      0.62
    4   30    0     -1.68     -1.02
    4   30    2     -5.18     -2.00
    4   30    4     -5.74      3.14
    4   30    6      0.50     -5.68
    4   30    8      4.22      7.26
    4   30   10     -1.99     -0.47
    4   30   12     -0.79      3.49
    4   30   14      0.13     -0.82
    6   30    0      1.12      0.35
    6   30    2     -2.32     10.51
    6   30    4    -11.57      6.63
    6   30    6      3.01      5.47
    6   30    8     -4.23     -1.27
    6   30   10     -0.59     -0.50
    6   30   12     -1.27     -0.12
    6   30   14      1.59     -0.25
    8   30    0     -4.44      0.61
    8   30    2     -0.48      4.20
    8   30    4      4.97      1.33
    8   30    6     -0.25     -3.28
    8   30    8     -0.71      0.25
    8   30   10      0.11     -1.77
    8   30   12      0.18      2.40
   10   30    0      0.07      0.28
   10   30    2     -0.45     -0.63
   10   30    4      2.75     -2.17
   10   30    6      1.02     -1.78
   10   30    8     -2.58      1.76
   10   30   10     -2.46     -2.21
   10   30   12     -1.94      4.67
   12   30    0      0.75      0.43
   12   30    2      2.57      0.99
   12   30    4     -0.56     -3.16
   12   30    6     -0.35      2.44
   12   30    8      0.67     -0.24
   12   30   10     -0.10     -0.70
   12   30   12     -1.00      0.53
   14   30    0      3.46     -0.45
   14   30    2     -0.83     -1.18
   14   30    4      0.80      0.44
   14   30    6      1.66      0.94
   14   30    8     -4.25     -0.35
   14   30   10      0.29      0.90
   16   30    0     -2.48     -0.02
   16   30    2      1.36      1.62
   16   30    4      0.66      0.42
   16   30    6     -1.62     -4.62
   16   30    8      0.06     -0.77
   18   30    0     -1.01     -0.10
   18   30    2     -2.89      1.22
   18   30    4      1.71     -1.09
   18   30    6     -1.46      0.92
   18   30    8     -2.38      1.65
   20   30    0     -0.01     -0.88
   20   30    2     -1.38     -0.05
    1   31    1    -14.53     19.16
    1   31    3     13.21      0.38
    1   31    5     -4.05    -10.36
    1   31    7      4.02     -6.42
    1   31    9     -0.45      0.65
    1   31   11      0.69     -1.51
    1   31   13      2.16      0.29
    3   31    1      1.18     -1.28
    3   31    3     -1.72      3.66
    3   31    5     -3.14     -4.90
    3   31    7     -0.10     -7.74
    3   31    9      3.46      1.13
    3   31   11     -0.25      1.82
    3   31   13      1.27     -5.02
    3   31   15     -2.54      2.31
    5   31    1     -1.28     -3.41
    5   31    3      4.68     -3.78
    5   31    5     -4.36     -8.28
    5   31    7      3.92      1.56
    5   31    9     -0.70      1.05
    5   31   11      1.65      1.91
    5   31   13     -2.37     -0.57
    7   31    1      6.44      1.57
    7   31    3     -6.89      1.78
    7   31    5     -3.92     -2.06
    7   31    7     -0.11      1.63
    7   31    9     -0.03      1.43
    7   31   11     -0.93     -0.63
    7   31   13      2.35     -1.38
    9   31    1      0.11     -0.83
    9   31    3      1.26      1.11
    9   31    5     -3.33      2.81
    9   31    7     -0.32     -1.93
    9   31    9     -0.63     -2.54
    9   31   11      3.24     -0.64
    9   31   13     -2.29     -0.43
   11   31    1     -0.12      0.64
   11   31    3     -1.20      2.69
   11   31    5      0.78     -0.91
   11   31    7      0.52     -1.09
   11   31    9     -4.97      1.20
   11   31   11      2.07      1.67
   13   31    1     -0.62      2.39
   13   31    3      0.66      0.27
   13   31    5      0.25      1.65
   13   31    7      2.55      1.78
   13   31    9     -0.50      0.53
   13   31   11     -1.44     -1.16
   15   31    1      1.58     -0.52
   15   31    3     -3.00     -0.58
   15   31    5      0.59      1.72
   15   31    7     -0.96      5.62
   15   31    9      1.17      0.40
   17   31    1      3.86     -2.16
   17   31    3      0.57      1.04
   17   31    5     -1.82      0.02
   17   31    7      2.80     -1.20
   19   31    1      0.87      1.94
   19   31    3      1.15     -3.69
   19   31    5      0.01     -0.89
    0   32    0     43.55      0.48
    0   32    4    -10.34     11.87
    0   32    8      5.11      8.13
    0   32   12     -4.21      7.32
    2   32    0      6.71     -0.78
    2   32    2     -0.30     -0.60
    2   32    4      4.84      4.67
    2   32    6      3.35     -2.13
    2   32    8      8.28      2.62
    2   32   10     -2.69      1.52
    2   32   12      0.28     -0.22
    2   32   14     -0.91      5.65
    4   32    0     -2.61      0.16
    4   32    2     -1.12      2.95
    4   32    4     -4.00      1.52
    4   32    6      1.16     -1.66
    4   32    8      3.80     -1.10
    4   32   10     -1.27      2.53
    4   32   12     -1.62     -0.60
    4   32   14      1.99     -1.16
    6   32    0     -9.37     -0.55
    6   32    2     -0.31     -4.43
    6   32    4      1.55      2.61
    6   32    6      2.77      0.20
    6   32    8     -1.80      2.43
    6   32   10      1.19     -0.66
    6   32   12     -2.57      1.10
    6   32   14      0.53     -2.81
    8   32    0      0.59     -0.55
    8   32    2     -2.35      5.40
    8   32    4     -1.08     -1.62
    8   32    6     -0.97     -2.67
    8   32    8      4.98      4.26
    8   32   10     -0.88      4.08
    8   32   12      2.25     -4.09
    8   32   14      0.92      0.05
   10   32    0     -4.46     -0.17
   10   32    2      1.80     -2.42
   10   32    4     -4.82      1.73
   10   32    6     -1.21      1.40
   10   32    8      1.02     -1.58
   10   32   10      1.82     -1.85
   10   32   12     -0.82      2.00
   12   32    0      2.96      0.29
   12   32    2     -2.92      0.55
   12   32    4     -0.80      1.57
   12   32    6     -3.14     -4.30
   12   32    8     -0.97      3.17
   12   32   10      2.07     -2.18
   14   32    0     -0.59      0.35
   14   32    2      1.46      0.43
   14   32    4      2.28     -0.36
   14   32    6      1.29     -0.80
   14   32    8      0.27     -0.42
   14   32   10     -5.13      1.19
   16   32    0     -4.66     -0.18
   16   32    2     -0.25      1.52
   16   32    4     -1.47     -2.19
   16   32    6      0.57      0.37
   16   32    8     -2.02      1.71
   18   32    0      1.87     -0.58
   18   32    2     -1.51      0.20
   18   32    4     -3.18      0.86
   18   32    6     -0.34     -2.02
   18   32    8     -2.83      0.15
   20   32    0      0.36      0.66
   20   32    2     -0.51      0.29
    1   33    1      6.18     13.15
    1   33    3      0.87      0.25
    1   33    5     -8.76     -1.04
    1   33    7      0.82     -3.34
    1   33    9     -3.79      2.12
    1   33   11      3.44     -0.20
    1   33   13     -3.13     -2.81
    3   33    1      6.24     -3.03
    3   33    3      7.38      0.17
    3   33    5      8.23      0.45
    3   33    7      0.54     -0.95
    3   33    9      2.89      2.52
    3   33   11     -1.93     -3.21
    3   33   13      2.05      1.49
    3   33   15     -3.74      0.83
    5   33    1      1.30      1.80
    5   33    3      1.34     -3.26
    5   33    5      0.51     -2.09
    5   33    7      5.76     -0.08
    5   33    9      0.33      1.90
    5   33   11      0.79     -0.30
    5   33   13     -1.79     -1.11
    7   33    1     -0.08     -7.07
    7   33    3     -0.11     -4.33
    7   33    5      1.69      6.00
    7   33    7     -0.71      0.13
    7   33    9     -2.35     -2.84
    7   33   11     -3.83      0.86
    7   33   13      0.34      0.88
    9   33    1      2.31      1.97
    9   33    3      1.48      3.37
    9   33    5      0.38     -5.16
    9   33    7      1.77     -2.04
    9   33    9      4.36      3.96
    9   33   11     -2.19     -3.23
    9   33   13      1.65      0.95
   11   33    1      0.52     -1.84
   11   33    3      2.47      0.09
   11   33    5     -0.84     -1.55
   11   33    7      0.76     -2.37
   11   33    9     -0.57     -2.24
   11   33   11     -0.99      1.83
   13   33    1     -1.30      2.00
   13   33    3     -0.88     -1.81
   13   33    5     -4.58      0.68
   13   33    7      1.55     -3.26
   13   33    9     -0.77     -1.89
   13   33   11      4.30     -0.72
   15   33    1      0.58     -2.46
   15   33    3      0.05      2.00
   15   33    5      2.88      0.23
   15   33    7     -0.71     -0.79
   15   33    9      2.08      2.10
   17   33    1     -2.07     -0.79
   17   33    3      2.23      2.32
   17   33    5     -0.14     -1.81
   17   33    7      3.92      1.90
   19   33    1     -0.47      0.99
   19   33    3     -3.21      0.13
    0   34    2    -10.79     -8.96
    0   34    6     -0.10      2.46
    0   34   10     -2.26      4.26
    0   34   14     -0.41      3.19
    2   34    0     -3.14     -0.24
    2   34    2     -5.30      0.08
    2   34    4     -8.74     -1.76
    2   34    6     -5.26      1.98
    2   34    8     -1.78      0.09
    2   34   10     -1.75     -1.89
    2   34   12      0.37      3.24
    2   34   14      1.75     -3.34
    4   34    0     -1.72      0.99
    4   34    2      3.17      0.26
    4   34    4      6.98     -1.29
    4   34    6      0.05      0.64
    4   34    8     -5.27     -3.81
    4   34   10     -1.86     -0.58
    4   34   12      1.07     -0.55
    4   34   14      0.02      1.92
    6   34    0      0.01      0.77
    6   34    2     -2.15      1.36
    6   34    4      8.56     -3.31
    6   34    6      0.89     -5.90
    6   34    8      3.08      2.68
    6   34   10      0.91      0.21
    6   34   12      0.62     -0.85
    6   34   14     -0.75     -0.62
    8   34    0     -2.36      0.05
    8   34    2      0.84     -3.15
    8   34    4     -0.55     -0.12
    8   34    6      0.31      4.38
    8   34    8     -1.79     -2.32
    8   34   10     -3.17      2.63
    8   34   12      0.90     -1.48
   10   34    0      1.20     -1.13
   10   34    2      0.43      2.22
   10   34    4     -4.42      2.59
   10   34    6      2.33      0.97
   10   34    8      3.44     -1.03
   10   34   10      2.25      1.62
   10   34   12      4.13     -4.45
   12   34    0      1.65     -0.54
   12   34    2      0.05      1.54
   12   34    4      2.33      2.64
   12   34    6     -1.69     -0.50
   12   34    8      0.70      0.92
   12   34   10      2.22      0.84
   14   34    0     -1.21     -0.32
   14   34    2      0.74     -1.40
   14   34    4     -2.88      1.42
   14   34    6     -0.55     -0.42
   14   34    8      1.47     -1.71
   14   34   10     -0.92     -1.99
   16   34    0      2.03     -0.12
   16   34    2      1.54     -0.45
   16   34    4     -0.80     -0.22
   16   34    6     -0.94      1.42
   16   34    8      0.22     -1.55
   18   34    0     -0.04     -0.42
   18   34    2      4.79     -2.27
   18   34    4     -0.48      1.76
   18   34    6      2.45     -2.10
   20   34    0     -0.10      1.04
   20   34    2      1.50      0.76
    1   35    1     -5.24     -5.57
    1   35    3      3.08     -2.59
    1   35    5      8.07      2.56
    1   35    7     -3.17     -2.11
    1   35    9      2.65      4.28
    1   35   11     -4.38     -0.82
    1   35   13     -0.82     -0.17
    3   35    1     -5.07     -5.59
    3   35    3     -6.91     -3.23
    3   35    5     -4.09      3.21
    3   35    7      0.12      9.93
    3   35    9     -0.63     -2.57
    3   35   11      2.19      2.03
    3   35   13     -2.88     -2.05
    3   35   15      1.72     -3.53
    5   35    1      1.99      2.41
    5   35    3     -2.00     -2.80
    5   35    5     -1.03      7.40
    5   35    7     -5.11      1.72
    5   35    9     -1.20     -0.95
    5   35   11     -0.67     -1.03
    5   35   13      1.27      1.13
    7   35    1     -1.19      0.66
    7   35    3      1.77     -1.87
    7   35    5      0.95      0.52
    7   35    7      0.41     -1.57
    7   35    9      1.54      1.09
    7   35   11     -0.72      0.75
    7   35   13     -0.74      0.25
    9   35    1      0.34     -0.66
    9   35    3      2.24      2.01
    9   35    5      0.03     -4.13
    9   35    7     -3.12      2.08
    9   35    9     -1.66      1.72
    9   35   11     -6.15      0.37
    9   35   13      0.47      5.17
   11   35    1      3.90      0.60
   11   35    3     -2.42     -2.53
   11   35    5     -0.84     -0.23
   11   35    7     -0.04     -0.37
   11   35    9      0.49     -1.20
   11   35   11     -3.75     -0.95
   13   35    1      1.92      2.10
   13   35    3      1.81      1.27
   13   35    5     -0.87     -2.55
   13   35    7     -5.09     -1.11
   13   35    9      2.75      0.21
   13   35   11      1.13     -0.43
   15   35    1     -0.86     -1.97
   15   35    3      1.10      2.11
   15   35    5     -0.71     -2.41
   15   35    7      0.45     -1.91
   15   35    9     -1.44      1.28
   17   35    1     -2.40      2.69
   17   35    3     -0.98      1.48
   17   35    5     -0.28      0.57
   17   35    7     -1.49      0.69
   19   35    1     -1.28     -3.77
   19   35    3     -0.08      4.61
    0   36    0     -9.33     -0.58
    0   36    4     -0.57     -2.74
    0   36    8      1.78     -1.02
    0   36   12      7.42     -3.09
    2   36    0    -12.91      0.90
    2   36    2      6.02     -1.24
    2   36    4      7.70     -2.29
    2   36    6      0.28      1.84
    2   36    8     -1.21     -3.43
    2   36   10     -0.50      1.19
    2   36   12     -0.25     -1.97
    2   36   14      2.26      2.71
    4   36    0     -7.89      0.62
    4   36    2     -6.26     -4.51
    4   36    4      3.59     -0.61
    4   36    6      3.34     -0.06
    4   36    8     -5.34      1.74
    4   36   10      3.78     -2.87
    4   36   12     -2.16      1.91
    4   36   14     -0.97     -2.64
    6   36    0      6.30      0.42
    6   36    2     -1.91      4.47
    6   36    4      1.51     -0.55
    6   36    6     -4.45      2.94
    6   36    8      1.76     -3.25
    6   36   10     -0.66      0.09
    6   36   12      1.27     -2.35
    6   36   14      0.49      0.73
    8   36    0     -0.84      1.26
    8   36    2      1.69     -3.59
    8   36    4     -2.35      2.85
    8   36    6      1.63     -0.55
    8   36    8     -1.56     -2.15
    8   36   10      3.53      0.29
    8   36   12      0.15     -0.66
   10   36    0      0.98     -0.21
   10   36    2     -0.20      3.23
   10   36    4      1.83      2.44
   10   36    6      0.82     -0.82
   10   36    8     -0.40      1.26
   10   36   10     -0.62      2.04
   10   36   12      2.56     -2.22
   12   36    0      1.79     -0.63
   12   36    2     -1.10      0.77
   12   36    4     -0.20     -0.12
   12   36    6      5.07      4.83
   12   36    8      1.29     -1.47
   12   36   10     -4.23      1.91
   14   36    0      2.96     -0.31
   14   36    2      0.27      1.43
   14   36    4     -3.19      0.43
   14   36    6     -0.63      2.28
   14   36    8      0.27     -2.99
   14   36   10      2.41     -0.44
   16   36    0      4.37     -1.88
   16   36    2      1.56     -2.10
   16   36    4     -0.13     -0.52
   16   36    6      0.88     -2.25
   16   36    8      0.30      1.76
   18   36    0     -0.55      0.49
   18   36    2      1.97      0.52
   18   36    4      0.55     -3.00
   18   36    6      0.08      1.17
   20   36    0     -2.77     -0.26
    1   37    1     -3.58    -11.83
    1   37    3     -1.12      1.43
    1   37    5      5.85     -1.84
    1   37    7     -0.93      0.99
    1   37    9     -3.24      3.09
    1   37   11     -1.73     -3.72
    1   37   13      1.15      2.98
    3   37    1      1.65     -4.33
    3   37    3      1.47     -4.55
    3   37    5     -1.24      5.30
    3   37    7      0.17      2.36
    3   37    9     -2.55     -1.47
    3   37   11      1.45      1.39
    3   37   13      1.77     -2.02
    5   37    1     -5.77     -1.86
    5   37    3     -2.66     -5.82
    5   37    5      1.66      1.23
    5   37    7     -3.89      2.28
    5   37    9     -1.56     -1.77
    5   37   11      0.25      2.10
    5   37   13      0.27      0.33
    7   37    1     -0.08      4.57
    7   37    3      0.28      3.17
    7   37    5     -1.38     -0.48
    7   37    7     -0.12     -0.53
    7   37    9      2.21      0.08
    7   37   11     -0.15     -0.29
    7   37   13      0.87     -0.48
    9   37    1     -3.23     -2.04
    9   37    3      1.10     -0.26
    9   37    5     -2.95     -0.88
    9   37    7     -0.66      1.75
    9   37    9     -1.61     -1.93
    9   37   11     -0.21      3.18
    9   37   13     -0.97      0.30
   11   37    1     -0.74      0.64
   11   37    3     -1.21     -2.21
   11   37    5     -1.10      0.88
   11   37    7     -2.95     -0.43
   11   37    9      0.80      1.67
   11   37   11      1.90     -0.30
   13   37    1     -0.63     -0.38
   13   37    3      1.07      1.22
   13   37    5      4.51     -2.47
   13   37    7     -0.88      4.01
   13   37    9      1.09      4.01
   13   37   11     -3.45     -0.29
   15   37    1     -0.04      3.46
   15   37    3     -1.87     -0.17
   15   37    5     -2.34      1.38
   15   37    7      0.39      0.46
   15   37    9     -0.57     -2.42
   17   37    1      1.72     -0.52
   17   37    3     -3.36     -1.37
   17   37    5      0.49     -0.46
   17   37    7     -1.80     -0.42
   19   37    1      1.24     -1.54
    0   38    2     12.88     -0.37
    0   38    6     -1.97      9.04
    0   38   10      2.81     -5.23
    0   38   14      2.72     -2.68
    2   38    0    -16.65     -0.09
    2   38    2      5.05      4.85
    2   38    4      9.55     -3.13
    2   38    6      4.20     -2.34
    2   38    8     -0.51      5.36
    2   38   10     -3.55     -4.43
    2   38   12     -0.05      0.00
    2   38   14     -2.33      3.01
    4   38    0      4.26      0.72
    4   38    2      1.05      0.76
    4   38    4      6.43      3.45
    4   38    6      1.84      1.52
    4   38    8      1.88      1.90
    4   38   10      1.77     -0.97
    4   38   12     -0.11     -1.38
    4   38   14     -0.80      1.09
    6   38    0     -0.83     -0.27
    6   38    2     -1.95     -2.87
    6   38    4     -2.07     -2.68
    6   38    6     -0.12      4.55
    6   38    8     -1.80     -2.12
    6   38   10     -0.29     -0.80
    6   38   12      0.41      0.50
    6   38   14     -0.85      1.04
    8   38    0      4.54      0.14
    8   38    2      0.71     -1.42
    8   38    4     -1.22      2.80
    8   38    6      1.41     -2.59
    8   38    8      0.94      0.74
    8   38   10      5.04     -3.98
    8   38   12      0.09     -0.91
   10   38    0     -3.82      1.52
   10   38    2      1.48      0.53
   10   38    4      3.13     -1.48
   10   38    6     -0.74     -0.38
   10   38    8      0.07     -0.08
   10   38   10     -0.86     -1.52
   10   38   12     -2.71      1.09
   12   38    0     -1.36      0.87
   12   38    2     -2.13     -3.77
   12   38    4     -1.44     -1.18
   12   38    6      0.18      0.03
   12   38    8     -2.35     -3.84
   12   38   10      0.80     -0.97
   14   38    0     -1.26     -0.08
   14   38    2     -0.25      0.21
   14   38    4      3.53     -0.94
   14   38    6      0.79     -1.26
   14   38    8      0.73      0.71
   14   38   10     -0.13      2.34
   16   38    0     -1.19      0.18
   16   38    2     -1.43      2.42
   16   38    4      1.68      1.12
   16   38    6      0.01     -0.41
   18   38    0     -0.07     -0.13
   18   38    2     -2.90      3.19
   18   38    4     -0.14     -1.91
   18   38    6     -1.81      3.52
    1   39    1      8.93    -15.08
    1   39    3     -5.98     -0.45
    1   39    5     -3.42      5.39
    1   39    7     -3.21      2.09
    1   39    9     -3.18     -3.98
    1   39   11      5.28      2.40
    1   39   13      0.70     -3.69
    3   39    1      0.40     -1.21
    3   39    3     -0.99     -3.36
    3   39    5      0.07     -2.28
    3   39    7      0.79     -2.02
    3   39    9     -6.56      0.42
    3   39   11      0.62     -2.58
    3   39   13      0.06      3.51
    5   39    1      1.84      1.13
    5   39    3      4.59      1.42
    5   39    5      2.59     -1.51
    5   39    7     -0.39     -1.61
    5   39    9      1.68      2.15
    5   39   11     -0.69     -0.13
    5   39   13      1.19      0.42
    7   39    1     -0.72      1.69
    7   39    3     -0.66      0.25
    7   39    5      0.35     -1.48
    7   39    7      0.26      0.27
    7   39    9     -5.08     -1.29
    7   39   11      0.64      0.64
    7   39   13     -0.32      3.75
    9   39    1      1.56     -1.11
    9   39    3     -2.68     -1.84
    9   39    5      0.34      2.23
    9   39    7      1.26      0.14
    9   39    9      0.33     -2.88
    9   39   11      5.85      0.91
   11   39    1     -1.21     -0.75
   11   39    3      2.98      2.59
   11   39    5      1.56      0.91
   11   39    7      0.19      0.95
   11   39    9      1.87      0.78
   11   39   11      1.48     -0.54
   13   39    1     -1.60     -1.75
   13   39    3     -1.05     -1.92
   13   39    5     -0.05      2.19
   13   39    7      2.09      2.25
   13   39    9     -1.04     -2.57
   15   39    1      1.39      0.20
   15   39    3      0.21     -3.34
   15   39    5     -0.67      4.15
   15   39    7      1.95     -2.88
   17   39    1      1.38     -1.41
   17   39    3      1.53      0.18
   17   39    5      1.46      0.20
   19   39    1      1.36      3.56
    0   40    0    -22.98      0.27
    0   40    4      7.66     -3.25
    0   40    8      3.43      1.42
    0   40   12     -6.59      0.43
    2   40    0     -2.55      0.33
    2   40    2      2.95      1.28
    2   40    4     -3.76      1.69
    2   40    6     -1.46      1.25
    2   40    8     -1.27      0.46
    2   40   10      3.93     -2.03
    2   40   12     -1.15      1.44
    2   40   14     -0.24     -6.13
    4   40    0      3.26     -0.29
    4   40    2     -0.70      3.37
    4   40    4     -3.60     -0.10
    4   40    6     -1.44      0.45
    4   40    8      0.69     -1.65
    4   40   10     -3.81     -1.08
    4   40   12      2.14      0.13
    6   40    0     -1.64     -1.07
    6   40    2      1.57     -0.59
    6   40    4     -0.69      2.55
    6   40    6     -0.73     -1.17
    6   40    8      1.13      2.81
    6   40   10      0.43      1.61
    6   40   12      0.58     -1.17
    8   40    0      0.89     -1.33
    8   40    2     -1.01      2.57
    8   40    4      1.74     -1.12
    8   40    6      0.34     -1.46
    8   40    8     -1.31      2.63
    8   40   10     -4.47     -3.36
    8   40   12     -0.75      3.61
   10   40    0     -0.11     -0.23
   10   40    2     -1.69      0.06
   10   40    4     -1.40     -5.37
   10   40    6      0.69      2.34
   10   40    8     -1.77     -1.41
   10   40   10      0.44     -1.46
   10   40   12     -3.13      1.59
   12   40    0     -0.50      0.84
   12   40    2      3.16     -0.75
   12   40    4     -0.01     -0.64
   12   40    6     -3.57     -3.85
   12   40    8     -1.65      0.42
   12   40   10      1.73     -0.12
   14   40    0     -2.80     -0.26
   14   40    2     -1.39     -0.20
   14   40    4      3.29     -1.72
   14   40    6     -1.19     -1.95
   14   40    8     -2.74      5.31
   16   40    0     -1.69      2.06
   16   40    2     -1.52      0.13
   16   40    4      1.03      1.36
   16   40    6     -2.48      0.70
   18   40    0      0.49      0.28
   18   40    2     -0.58     -0.46
    1   41    1     -1.69     -2.35
    1   41    3     -0.44      1.41
    1   41    5      2.08      1.62
    1   41    7      1.07     -1.05
    1   41    9      2.88      1.59
    1   41   11     -0.22      2.34
    1   41   13      0.14     -0.28
    3   41    1      0.94     -1.89
    3   41    3     -1.10      3.11
    3   41    5     -3.11     -2.24
    3   41    7      0.80      1.92
    3   41    9      4.78     -1.26
    3   41   11      1.41      1.68
    3   41   13     -3.55     -1.38
    5   41    1      4.80      0.71
    5   41    3      1.43      2.79
    5   41    5     -0.30     -0.99
    5   41    7      0.25     -2.72
    5   41    9      2.18     -0.04
    5   41   11     -1.28     -1.97
    5   41   13      1.35      0.66
    7   41    1     -0.81     -0.86
    7   41    3     -0.57     -0.67
    7   41    5     -3.14      0.89
    7   41    7      2.07      0.54
    7   41    9     -0.37      3.81
    7   41   11      2.28     -0.37
    7   41   13     -0.56      0.15
    9   41    1      1.10      0.03
    9   41    3     -0.75     -0.36
    9   41    5      2.62      0.80
    9   41    7     -0.67     -0.20
    9   41    9     -1.43      1.88
    9   41   11      1.67     -0.68
   11   41    1     -0.90      1.09
   11   41    3     -3.90      1.81
   11   41    5      4.34     -0.07
   11   41    7      4.26      3.09
   11   41    9     -0.73     -1.18
   11   41   11     -3.18      0.52
   13   41    1      1.37     -0.29
   13   41    3     -1.09      0.05
   13   41    5     -1.87      2.38
   13   41    7      2.43     -2.98
   13   41    9     -1.31     -2.72
   15   41    1     -0.35     -2.74
   15   41    3      0.63     -2.59
   15   41    5      1.71     -1.19
   15   41    7      0.49      2.22
   17   41    1     -2.42      1.35
   17   41    3      2.32     -0.41
   17   41    5     -0.24      0.06
    0   42    2     -0.12      1.86
    0   42    6     -0.66     -3.63
    0   42   10     -3.33      0.66
    2   42    0      3.97      0.83
    2   42    2      0.49      2.21
    2   42    4     -1.35      2.04
    2   42    6     -0.30     -3.22
    2   42    8     -1.92     -4.86
    2   42   10      0.77      4.15
    2   42   12      0.17     -0.68
    2   42   14     -0.07      0.53
    4   42    0     -3.60     -0.34
    4   42    2     -1.69     -0.30
    4   42    4     -8.89      0.56
    4   42    6     -0.61     -0.52
    4   42    8     -1.45     -2.69
    4   42   10      1.14      2.22
    4   42   12     -1.25      0.95
    6   42    0      2.37     -0.20
    6   42    2      5.24     -1.27
    6   42    4      3.58      1.91
    6   42    6     -1.08     -2.39
    6   42    8      1.16     -1.39
    6   42   10     -0.47      0.19
    6   42   12     -0.18     -1.40
    8   42    0     -1.78     -1.26
    8   42    2     -1.17      1.28
    8   42    4      0.04     -2.09
    8   42    6      0.38      0.82
    8   42    8      2.49      1.43
    8   42   10     -3.43      1.87
    8   42   12     -0.95      1.74
   10   42    0     -0.66     -0.79
   10   42    2     -0.26     -3.94
   10   42    4      0.71     -1.35
   10   42    6     -2.01     -1.01
   10   42    8     -2.26      0.67
   10   42   10      1.77      2.11
   12   42    0      0.52     -0.90
   12   42    2      0.05      1.70
   12   42    4     -0.81     -2.14
   12   42    6      1.84      0.22
   12   42    8      2.34      4.78
   12   42   10     -2.92      1.81
   14   42    0     -1.09      0.80
   14   42    2     -0.28      2.56
   14   42    4     -1.06      0.09
   14   42    6     -0.10      0.72
   14   42    8     -0.39      0.90
   16   42    0      0.81     -0.01
   16   42    2     -0.53     -3.91
   16   42    4     -1.63     -1.59
   16   42    6      1.36      2.03
   18   42    0      1.14      1.00
   18   42    2     -0.12     -3.57
   18   42    4     -0.33      0.13
    1   43    1      0.17      6.45
    1   43    3     -1.45      1.50
    1   43    5     -2.63     -2.42
    1   43    7      2.29      4.01
    1   43    9      2.01      0.79
    1   43   11     -1.76     -0.14
    1   43   13     -0.07      3.67
    3   43    1      3.29      2.85
    3   43    3      6.51      4.90
    3   43    5     -0.14     -0.67
    3   43    7      0.43     -0.11
    3   43    9      7.31     -0.30
    3   43   11     -1.95      0.64
    3   43   13      1.41      1.13
    5   43    1     -4.46     -0.16
    5   43    3     -7.74      3.25
    5   43    5     -1.56      1.34
    5   43    7      1.25     -0.46
    5   43    9     -0.45     -2.87
    5   43   11      0.62      1.55
    5   43   13     -1.68     -0.12
    7   43    1     -0.91     -2.81
    7   43    3      4.14      0.67
    7   43    5      0.74      3.34
    7   43    7     -1.97     -0.56
    7   43    9      4.38     -1.43
    7   43   11      0.08     -1.47
    9   43    1     -1.06      2.86
    9   43    3      0.34      1.62
    9   43    5      0.85     -0.44
    9   43    7      1.90      0.48
    9   43    9      1.23      2.05
    9   43   11     -2.22     -0.68
   11   43    1     -3.26      0.13
   11   43    3      1.58     -1.80
   11   43    5     -1.48      0.44
   11   43    7     -0.53     -2.41
   11   43    9      0.19     -1.03
   13   43    1      1.23     -2.02
   13   43    3     -1.30      0.44
   13   43    5      0.49     -1.51
   13   43    7      0.45     -3.02
   13   43    9     -0.36      4.06
   15   43    1     -1.48      1.37
   15   43    3      0.57      3.20
   15   43    5      1.41     -3.73
   15   43    7     -1.65      3.03
   17   43    1     -1.01      0.79
   17   43    3     -0.26     -1.01
   17   43    5      0.19      0.17
    0   44    0     10.71      0.07
    0   44    4     -2.96      1.54
    0   44    8     -3.49     -6.82
    0   44   12      2.53     -3.94
    2   44    0      4.78     -1.64
    2   44    2     -6.77      3.93
    2   44    4     -3.33     -0.91
    2   44    6      1.28     -4.31
    2   44    8     -5.57      0.23
    2   44   10     -1.10      1.18
    2   44   12      0.34      1.40
    4   44    0      3.58     -0.35
    4   44    2      9.09     -2.94
    4   44    4      2.98     -0.66
    4   44    6     -3.97     -2.40
    4   44    8      2.55      1.17
    4   44   10      2.10      4.36
    4   44   12      0.87     -2.23
    6   44    0      2.33      0.47
    6   44    2     -0.86     -0.23
    6   44    4     -3.01     -5.93
    6   44    6     -0.10     -1.18
    6   44    8     -3.19     -0.80
    6   44   10      0.44     -1.14
    6   44   12     -0.99      3.58
    8   44    0      2.09      0.52
    8   44    2      1.49     -4.74
    8   44    4      0.31      0.54
    8   44    6     -1.49      3.77
    8   44    8     -1.07     -5.59
    8   44   10      2.64      2.47
   10   44    0      4.92      0.29
   10   44    2      2.01     -1.41
   10   44    4      0.39      3.65
   10   44    6     -1.10     -2.26
   10   44    8      1.46      2.16
   10   44   10     -0.89     -0.32
   12   44    0     -1.11     -0.95
   12   44    2     -0.66     -0.11
   12   44    4      1.27      2.16
   12   44    6     -0.31      1.92
   12   44    8      2.71     -1.42
   12   44   10      1.33     -1.01
   14   44    0     -0.06      0.46
   14   44    2      1.80     -0.70
   14   44    4     -2.22      2.45
   14   44    6      1.47      0.83
   14   44    8      4.27     -3.75
   16   44    0     -0.23     -0.59
   16   44    2      1.06      1.37
   16   44    4     -1.42      0.39
   16   44    6      2.28      0.95
    1   45    1      6.26      0.55
    1   45    3     -0.01     -3.95
    1   45    5     -5.34      0.83
    1   45    7      1.37      2.04
    1   45    9      3.65     -4.93
    1   45   11      0.21     -1.55
    1   45   13      2.03     -2.90
    3   45    1     -3.54      7.80
    3   45    3     -8.17      0.65
    3   45    5      1.21      0.27
    3   45    7      0.41     -1.74
    3   45    9     -3.65     -2.82
    3   45   11     -2.40     -0.66
    3   45   13      1.02      1.77
    5   45    1     -4.11     -1.61
    5   45    3      1.39      5.66
    5   45    5      0.31      4.97
    5   45    7      3.17     -2.34
    5   45    9     -0.06      2.84
    5   45   11     -0.52     -0.54
    7   45    1     -2.41      3.33
    7   45    3     -1.44      2.35
    7   45    5      4.22     -4.52
    7   45    7     -1.43      1.30
    7   45    9     -0.03     -3.54
    7   45   11     -0.73      1.14
    9   45    1     -0.93      3.00
    9   45    3     -0.30     -0.64
    9   45    5      1.46      2.76
    9   45    7     -0.62     -0.62
    9   45    9      2.66     -2.41
    9   45   11     -0.92      0.35
   11   45    1      0.96      0.30
   11   45    3      4.93      0.22
   11   45    5     -4.46     -0.72
   11   45    7     -2.09     -2.08
   11   45    9     -1.54      1.73
   13   45    1      0.62     -0.50
   13   45    3      1.42     -1.13
   13   45    5     -1.62     -1.85
   13   45    7     -4.53      0.63
   13   45    9      0.74      1.36
   15   45    1      1.00     -0.11
   15   45    3      0.58      1.52
   15   45    5     -0.75     -0.71
   15   45    7     -0.01     -3.50
   17   45    1      2.30     -0.83
   17   45    3     -0.13      0.85
    0   46    2     -3.97     11.99
    0   46    6      3.62     -3.44
    0   46   10     -0.05      1.56
    2   46    0      7.62     -0.58
    2   46    2      1.83     -4.33
    2   46    4      2.87      1.72
    2   46    6     -0.69      0.60
    2   46    8      1.46      2.54
    2   46   10      3.19      1.24
    2   46   12      0.96     -1.97
    4   46    0      8.30     -1.33
    4   46    2     -0.39      0.16
    4   46    4      1.22     -9.72
    4   46    6     -2.26      0.64
    4   46    8      2.18      2.00
    4   46   10     -1.34     -0.53
    4   46   12      1.43      0.01
    6   46    0     -2.29     -0.78
    6   46    2     -0.06     -2.73
    6   46    4     -4.96      0.68
    6   46    6     -1.54     -0.10
    6   46    8      1.20      4.33
    6   46   10     -0.15      1.08
    6   46   12      0.04      1.46
    8   46    0      0.18      1.79
    8   46    2     -1.80     -0.91
    8   46    4     -2.06     -2.79
    8   46    6     -1.15     -1.15
    8   46    8     -3.87     -1.45
    8   46   10      0.52      1.34
   10   46    0      5.50      0.08
   10   46    2     -3.93      1.86
   10   46    4     -0.62      0.28
   10   46    6      1.54      2.84
   10   46    8      1.75     -0.71
   10   46   10     -2.48     -1.59
   12   46    0     -1.91      0.38
   12   46    2      0.58      0.04
   12   46    4      1.20      4.36
   12   46    6      1.56      0.58
   12   46    8     -0.23     -2.30
   14   46    0      0.55     -0.28
   14   46    2     -0.21     -1.85
   14   46    4     -0.30      0.62
   14   46    6     -1.31      0.85
   16   46    0     -1.05     -0.21
   16   46    2      0.19      1.72
   16   46    4      0.29     -0.45
    1   47    1     -0.78      6.80
    1   47    3     -1.86     -0.62
    1   47    5      0.15     -2.35
    1   47    7      1.29     -1.58
    1   47    9     -1.35     -1.50
    1   47   11     -0.40     -2.98
    1   47   13     -1.59      0.92
    3   47    1     -2.74      1.20
    3   47    3     -0.92      0.13
    3   47    5      3.32      5.58
    3   47    7     -0.74     -3.01
    3   47    9     -2.32      1.12
    3   47   11     -1.05     -1.11
    5   47    1      3.14      2.01
    5   47    3      2.55     -0.39
    5   47    5      4.95     -3.34
    5   47    7      1.95     -0.94
    5   47    9     -0.32      1.51
    5   47   11     -0.33     -1.95
    7   47    1      0.55      0.56
    7   47    3     -0.24      1.04
    7   47    5     -0.43     -1.32
    7   47    7      4.37      1.89
    7   47    9     -0.18      2.41
    7   47   11      1.54      0.67
    9   47    1     -2.13     -0.13
    9   47    3      0.77     -1.61
    9   47    5     -0.04     -0.60
    9   47    7     -1.89     -3.19
    9   47    9      0.36      0.76
   11   47    1      2.03      1.20
   11   47    3     -3.23     -1.44
   11   47    5      1.28     -1.84
   11   47    7     -1.55      2.86
   11   47    9     -2.07      1.84
   13   47    1     -1.16      1.63
   13   47    3      2.13     -0.50
   13   47    5      0.32      0.34
   13   47    7      0.41      2.84
   15   47    1      0.17     -0.53
   15   47    3     -0.76     -1.38
   15   47    5     -0.84      2.80
   17   47    1      0.40     -0.81
    0   48    0      3.78     -0.11
    0   48    4     -1.00      3.09
    0   48    8     -1.60      4.94
    0   48   12      1.43      6.87
    2   48    0      4.16      1.25
    2   48    2     -2.08     -1.78
    2   48    4      1.82     -2.27
    2   48    6     -1.81      2.47
    2   48    8      4.69      1.11
    2   48   10     -1.57     -0.23
    2   48   12      2.29     -0.25
    4   48    0     -0.18     -0.78
    4   48    2     -5.37     -0.02
    4   48    4     -2.55      0.80
    4   48    6     -0.29      5.79
    4   48    8     -0.15     -0.99
    4   48   10     -2.29     -1.91
    6   48    0     -0.31      0.19
    6   48    2      1.23      0.35
    6   48    4     -0.74      3.83
    6   48    6      3.06     -1.21
    6   48    8      0.50     -0.39
    6   48   10     -1.87     -0.82
    6   48   12     -0.37     -0.41
    8   48    0      0.05     -0.24
    8   48    2     -0.11      2.82
    8   48    4     -0.70      0.06
    8   48    6     -0.39     -0.55
    8   48    8      3.11      4.66
    8   48   10     -0.48     -1.26
   10   48    0     -3.20      0.24
   10   48    2     -0.57      0.21
   10   48    4      1.20     -0.22
   10   48    6     -1.36     -0.18
   10   48    8      2.19     -2.98
   10   48   10      0.55      1.45
   12   48    0      0.81      0.66
   12   48    2     -1.94      0.23
   12   48    4     -1.44     -1.22
   12   48    6      2.33      0.30
   12   48    8     -3.41      0.89
   14   48    0      1.07     -0.17
   14   48    2     -1.06      0.02
   14   48    4      1.59     -1.47
   14   48    6     -0.09     -0.56
   16   48    2     -0.24     -0.69
   16   48    4      1.03     -0.14
    1   49    1     -1.25      4.55
    1   49    3      1.92      0.69
    1   49    5      0.09     -0.19
    1   49    7     -0.49     -1.44
    1   49    9     -4.16      1.08
    1   49   11      1.74      1.57
    3   49    1     -0.32      0.21
    3   49    3      6.89     -1.19
    3   49    5      3.50     -3.14
    3   49    7     -3.10     -2.79
    3   49    9      1.38      5.84
    3   49   11      0.54     -1.93
    5   49    1      3.06      2.29
    5   49    3     -0.72     -3.44
    5   49    5     -0.91     -4.63
    5   49    7     -3.56      3.71
    5   49    9     -1.15     -1.70
    5   49   11      1.65      0.72
    7   49    1      4.39     -2.96
    7   49    3      1.57      0.33
    7   49    5     -2.27      1.21
    7   49    7      0.00     -2.69
    7   49    9     -1.99      0.58
    7   49   11      0.57     -1.03
    9   49    1      1.57     -2.04
    9   49    3     -0.26      1.75
    9   49    5     -2.69      0.10
    9   49    7      0.72      0.08
    9   49    9     -2.08      1.30
   11   49    1      1.34      0.12
   11   49    3      0.12     -0.66
   11   49    5      0.01      0.72
   11   49    7     -0.73     -1.08
   11   49    9      3.60     -0.47
   13   49    1     -0.47      0.61
   13   49    3     -1.15      1.33
   13   49    5      1.85      1.74
   13   49    7      3.29      1.78
   15   49    1     -1.46      2.20
   15   49    3      0.34      1.38
   15   49    5      0.32      0.96
    0   50    2     -3.64    -10.22
    0   50    6      0.33     -0.10
    0   50   10      1.89     -0.43
    2   50    0      2.46     -0.10
    2   50    2     -5.65     -0.62
    2   50    4     -5.37     -1.04
    2   50    6     -0.51      4.01
    2   50    8      2.64     -1.67
    2   50   10     -1.35     -2.16
    4   50    0     -8.02      0.77
    4   50    2     -0.54     -1.82
    4   50    4     -0.72      7.22
    4   50    6      2.60      0.19
    4   50    8      1.00      0.32
    4   50   10     -0.80     -0.66
    6   50    0      0.31      1.38
    6   50    2     -3.41      5.56
    6   50    4      0.06      0.11
    6   50    6      3.75      1.99
    6   50    8     -1.95     -1.52
    6   50   10      0.17     -1.18
    8   50    0      0.67     -1.09
    8   50    2      4.18      2.21
    8   50    4      3.22      2.27
    8   50    6      0.32      0.56
    8   50    8      1.88      0.94
    8   50   10      0.07     -2.25
   10   50    0     -3.59      0.16
   10   50    2      3.34      0.40
   10   50    4     -0.80      2.57
   10   50    6      0.28     -1.99
   10   50    8     -0.93      0.41
   12   50    0      2.87      0.22
   12   50    2      0.18      0.51
   12   50    4      0.17     -2.70
   12   50    6     -4.62     -2.62
   14   50    0      3.01     -0.24
   14   50    2      1.02     -1.03
   14   50    4     -0.83     -1.59
   16   50    2      0.88      0.10
    1   51    1     -3.27     -1.90
    1   51    3      5.73     -1.49
    1   51    5      2.27      0.07
    1   51    7      0.61     -1.77
    1   51    9      0.16      2.55
    1   51   11     -1.15      2.72
    3   51    1      1.86      1.50
    3   51    3     -1.60     -1.90
    3   51    5      0.67     -6.39
    3   51    7     -0.81     -0.04
    3   51    9     -0.25     -0.31
    3   51   11      1.47      2.97
    5   51    1     -1.50     -5.34
    5   51    3      3.94     -3.92
    5   51    5     -5.18     -1.15
    5   51    7     -0.80      1.60
    5   51    9     -0.52      0.10
    7   51    1     -0.94      0.03
    7   51    3     -5.86     -1.38
    7   51    5     -0.31     -2.35
    7   51    7     -3.64     -0.64
    7   51    9     -1.51     -0.28
    9   51    1      2.03     -2.33
    9   51    3     -0.68     -0.29
    9   51    5     -0.11      0.74
    9   51    7      1.03      3.43
    9   51    9     -2.62     -1.47
   11   51    1     -0.08     -1.70
   11   51    3      0.83      1.76
   11   51    5     -1.04      2.12
   11   51    7      3.83     -0.20
   13   51    1     -0.76      1.11
   13   51    3     -1.17      1.39
   13   51    5     -0.81      0.62
   15   51    1      0.15     -0.29
   15   51    3     -0.21     -0.71
    0   52    0      0.40     -0.13
    0   52    4      1.49     -1.47
    0   52    8      0.53      0.10
    2   52    0     -3.67      0.10
    2   52    2      4.58     -3.76
    2   52    4     -0.36      3.11
    2   52    6      1.09      0.66
    2   52    8      2.49      0.92
    2   52   10      1.31      0.60
    4   52    0     -1.56      1.68
    4   52    2     -2.13      3.27
    4   52    4     -0.51      1.03
    4   52    6      4.96     -3.00
    4   52    8     -1.16      0.33
    4   52   10      2.87     -0.79
    6   52    0     -4.20      0.51
    6   52    2      0.47     -1.89
    6   52    4      5.20      0.41
    6   52    6     -0.65      3.13
    6   52    8      1.99      0.26
    6   52   10      2.21      0.25
    8   52    0     -4.62      0.64
    8   52    2     -0.74      1.52
    8   52    4     -0.49     -1.36
    8   52    6      1.61     -2.65
    8   52    8     -1.36     -0.64
   10   52    0     -2.77     -0.33
   10   52    2     -0.70      0.27
   10   52    4      0.23     -1.12
   10   52    6      2.68      0.37
   10   52    8     -4.40      3.05
   12   52    0     -0.79     -0.35
   12   52    2      1.31     -0.25
   12   52    4      0.66     -1.20
   12   52    6     -1.18     -1.47
   14   52    0     -0.25      0.36
   14   52    2      0.30      0.16
   14   52    4     -1.33      0.54
    1   53    1     -4.58     -0.39
    1   53    3     -2.36      1.19
    1   53    5      2.30      0.70
    1   53    7     -2.94      0.49
    1   53    9     -0.38      0.58
    1   53   11     -3.31      0.20
    3   53    1      1.96     -5.55
    3   53    3      2.91      1.17
    3   53    5     -4.16      1.91
    3   53    7      2.64      1.75
    3   53    9     -1.69     -1.56
    5   53    1      0.30     -0.69
    5   53    3     -2.16     -1.13
    5   53    5     -0.97     -0.50
    5   53    7     -0.12     -0.60
    5   53    9     -0.20     -1.82
    7   53    1     -1.06     -2.19
    7   53    3      1.00     -4.25
    7   53    5      1.26      4.11
    7   53    7     -0.96      1.86
    7   53    9      2.80     -0.32
    9   53    1      1.06     -1.19
    9   53    3      0.62     -0.94
    9   53    5     -1.41     -3.41
    9   53    7      1.67     -0.10
    9   53    9      1.32     -0.13
   11   53    1     -1.09     -2.26
   11   53    3     -2.75      0.94
   11   53    5      2.46      0.18
   13   53    1     -1.00     -0.04
   13   53    3     -0.58      0.12
   13   53    5     -0.16     -0.72
   15   53    3     -0.53     -0.99
    0   54    2      7.77     -1.96
    0   54    6     -1.29     -0.38
    0   54   10      1.43      0.22
    2   54    0     -7.23     -0.08
    2   54    2      1.70      0.97
    2   54    4      0.65     -1.55
    2   54    6     -0.51      0.03
    2   54    8     -2.86      0.44
    2   54   10     -1.02     -0.36
    4   54    0      0.53      0.49
    4   54    2      2.81      1.00
    4   54    4      4.10      3.20
    4   54    6     -0.10     -1.41
    4   54    8     -2.12      0.01
    6   54    0     -0.75     -0.13
    6   54    2      0.07      0.50
    6   54    4      2.32     -0.65
    6   54    6     -1.70     -1.64
    6   54    8     -1.18     -3.11
    6   54   10      1.51      0.35
    8   54    0     -3.04      0.08
    8   54    2     -3.37     -1.55
    8   54    4      0.38      2.60
    8   54    6     -0.58      1.53
    8   54    8     -0.34     -1.10
   10   54    0     -0.78     -0.41
   10   54    2      1.43      1.74
   10   54    4     -1.07     -1.84
   10   54    6     -1.42     -1.17
   12   54    0     -1.20     -0.31
   12   54    2      2.39      0.29
   12   54    4     -1.02     -0.15
   14   54    0     -1.92     -0.35
   14   54    2     -0.85      2.01
   14   54    4      0.98      1.58
    1   55    1      1.72     -4.97
    1   55    3      0.15      2.67
    1   55    5      0.70      1.64
    1   55    7     -0.40     -1.15
    1   55    9      1.21     -0.74
    1   55   11      2.22     -0.07
    3   55    1     -3.38     -4.51
    3   55    3     -1.40     -0.73
    3   55    5     -4.04      1.39
    3   55    7     -0.21      4.58
    3   55    9     -0.62      0.47
    5   55    1      1.11      1.66
    5   55    3     -1.32      0.12
    5   55    5      0.28      5.37
    5   55    7     -1.74      2.34
    5   55    9     -0.05      0.54
    7   55    1      2.78      1.28
    7   55    3      4.12     -1.91
    7   55    5      0.20      1.52
    7   55    7     -0.22     -0.79
    7   55    9     -0.05     -1.90
    9   55    1      0.39     -0.34
    9   55    3      0.83      0.50
    9   55    5     -0.02      0.41
    9   55    7     -0.57     -1.40
   11   55    1      0.95     -0.42
   11   55    3     -0.85      1.46
   11   55    5      0.31     -2.13
   13   55    1      2.57     -1.63
   13   55    3     -0.13     -0.21
    0   56    0     -4.24      0.39
    0   56    4     -2.24     -2.36
    0   56    8      1.58      0.34
    2   56    0      0.26     -0.46
    2   56    2      2.62      0.44
    2   56    4      2.82     -0.81
    2   56    6      1.17     -0.47
    2   56    8     -1.98     -4.27
    2   56   10     -1.29     -1.45
    4   56    0     -4.35     -0.28
    4   56    2      1.68     -2.80
    4   56    4      3.65     -2.05
    4   56    6      0.23     -2.61
    4   56    8     -0.17      0.02
    6   56    0      1.77     -0.48
    6   56    2     -3.07      0.39
    6   56    4     -0.26     -0.20
    6   56    6     -0.60     -0.12
    6   56    8     -0.68      0.61
    8   56    0      2.37     -0.53
    8   56    2     -2.06     -1.04
    8   56    4      1.77      0.41
    8   56    6     -0.41      1.12
    8   56    8     -0.85     -1.01
   10   56    0     -0.01      0.24
   10   56    2      0.81     -0.25
   10   56    4     -1.92     -0.14
   10   56    6     -0.56      1.71
   12   56    0     -0.34      0.30
   12   56    2      0.45      0.69
   12   56    4     -0.59      0.29
   14   56    2     -0.40     -0.18
    1   57    1      0.12     -2.16
    1   57    3      0.43      1.95
    1   57    5      0.56     -2.08
    1   57    7      2.11     -0.12
    1   57    9      1.70      2.17
    3   57    1      0.49      0.10
    3   57    3     -3.58     -1.67
    3   57    5      1.07      2.79
    3   57    7     -2.37      1.59
    3   57    9      1.66     -1.54
    5   57    1     -2.12     -1.07
    5   57    3      1.59     -1.78
    5   57    5      0.68      1.75
    5   57    7      2.43     -0.14
    5   57    9      0.27      1.83
    7   57    1     -1.49      2.83
    7   57    3     -0.86      0.86
    7   57    5     -1.51     -1.62
    7   57    7      1.88      0.38
    9   57    1     -1.96      1.66
    9   57    3     -0.99     -0.52
    9   57    5      4.10      0.68
   11   57    1     -1.82      0.59
   11   57    3      0.34     -1.28
   13   57    1      0.36      0.32
   13   57    3      1.41     -1.02
    0   58    2     -2.63      1.37
    0   58    6     -4.39      6.22
    2   58    0     -1.72      0.44
    2   58    2      2.13      1.11
    2   58    4      1.21      1.38
    2   58    6      1.37     -3.10
    2   58    8      0.81      0.96
    2   58   10      0.03      0.45
    4   58    0      0.95      0.06
    4   58    2     -1.38      1.85
    4   58    4     -0.49     -3.34
    4   58    6     -1.85      1.00
    4   58    8     -1.07     -2.49
    6   58    0      3.18     -0.76
    6   58    2      1.59     -2.83
    6   58    4      1.32     -0.26
    6   58    6     -0.73     -1.56
    6   58    8      2.53      2.55
    8   58    0      3.41      0.07
    8   58    2      2.25      0.06
    8   58    4     -2.32     -2.31
    8   58    6     -0.15     -1.28
    8   58    8      1.49      0.70
   10   58    0      2.88      0.23
   10   58    2     -1.67     -1.67
   10   58    4      2.01     -0.55
   12   58    0     -0.56     -0.05
   12   58    2     -4.50     -2.21
    1   59    1      1.28      1.06
    1   59    3     -2.77     -1.68
    1   59    5     -0.19      1.80
    1   59    7     -4.39      1.92
    1   59    9     -1.25     -0.58
    3   59    1      3.55      0.10
    3   59    3      2.00      0.34
    3   59    5      0.57      1.65
    3   59    7      2.53     -2.30
    3   59    9      0.12     -1.08
    5   59    1     -0.94      1.25
    5   59    3     -3.71      3.47
    5   59    5      0.31     -1.08
    5   59    7      0.47     -3.67
    7   59    1     -1.54     -0.25
    7   59    3     -0.91      2.78
    7   59    5      0.01      1.39
    7   59    7      2.33     -0.74
    9   59    1     -0.53      2.20
    9   59    3     -0.96      1.74
    9   59    5     -1.73     -0.23
   11   59    1     -0.47      3.05
   11   59    3      3.13     -1.53
   13   59    1     -1.99      1.01
    0   60    0     -0.80     -0.42
    0   60    4      1.98      0.74
    0   60    8      1.07     -1.95
    2   60    0     -3.77      0.11
    2   60    2     -4.94      3.40
    2   60    4     -2.54     -0.16
    2   60    6     -1.85      1.62
    2   60    8     -2.30      3.25
    4   60    0      4.60     -0.64
    4   60    2      1.91      1.22
    4   60    4     -0.44      0.55
    4   60    6     -3.70      1.65
    4   60    8     -0.37      1.11
    6   60    0      1.03     -0.20
    6   60    2      2.98      2.76
    6   60    4     -4.26     -1.43
    6   60    6     -2.47     -2.63
    6   60    8     -1.21     -1.41
    8   60    0      2.57     -0.14
    8   60    2      3.24     -0.92
    8   60    4     -0.37      0.16
    8   60    6      0.07      0.60
   10   60    0      5.88     -0.37
   10   60    2     -0.81     -0.61
   10   60    4      0.34      1.69
   12   60    0      2.64     -0.01
   12   60    2     -0.75     -1.16
    1   61    1      5.01     -0.81
    1   61    3      1.82     -2.90
    1   61    5      0.26     -0.30
    1   61    7      0.23     -1.48
    3   61    1     -0.99      1.97
    3   61    3     -2.21      0.01
    3   61    5     -0.25     -2.45
    3   61    7      3.15      0.21
    3   61    9      0.18     -0.49
    5   61    1      1.92     -0.55
    5   61    3      0.37      2.84
    5   61    5      2.21      0.78
    5   61    7      0.25     -0.28
    7   61    1      0.23      0.05
    7   61    3     -2.24      3.53
    7   61    5      0.51     -2.43
    7   61    7     -1.15     -2.10
    9   61    1     -1.84      0.72
    9   61    3      2.04     -0.31
   11   61    1      1.65      2.77
    0   62    2     -2.04      4.00
    0   62    6      4.75     -3.12
    2   62    0      5.49     -0.39
    2   62    2     -0.01      0.83
    2   62    4      2.01      0.26
    2   62    6      0.34     -0.84
    2   62    8     -0.80     -1.61
    4   62    0      1.36     -0.73
    4   62    2     -1.27      0.17
    4   62    4     -3.93     -1.80
    4   62    6      0.99     -1.22
    4   62    8      1.12      2.15
    6   62    0     -3.27     -0.47
    6   62    2      1.45     -0.93
    6   62    4     -3.14     -0.15
    6   62    6      0.39      3.56
    8   62    0     -0.03      0.13
    8   62    2     -2.15     -0.09
    8   62    4     -0.68     -0.68
   10   62    0     -2.41      0.36
   10   62    2     -2.32     -2.50
   12   62    0      1.01      0.15
    1   63    1     -1.40      2.80
    1   63    3     -1.94      1.07
    1   63    5     -4.05     -2.85
    1   63    7      4.20      1.69
    3   63    1      0.53      3.03
    3   63    3     -0.57      1.72
    3   63    5      1.01     -0.30
    3   63    7     -1.64     -0.94
    5   63    1      2.25      2.35
    5   63    3      1.52      0.80
    5   63    5      2.14     -3.60
    5   63    7      1.06     -0.17
    7   63    1     -0.28     -1.60
    7   63    3      2.55      0.70
    7   63    5     -0.14     -1.10
    9   63    1     -0.14      0.94
    9   63    3      1.07     -1.72
   11   63    1     -1.71     -2.65
    0   64    0      5.24      0.24
    0   64    4      0.87      0.51
    2   64    0      5.49     -0.14
    2   64    2      0.80      0.33
    2   64    4     -0.60      0.00
    2   64    6      1.11     -4.63
    4   64    0      1.13     -0.70
    4   64    2     -0.72     -0.68
    4   64    4     -3.96      0.00
    4   64    6     -0.08      1.65
    6   64    0      3.18     -1.03
    6   64    2     -1.88     -1.53
    6   64    4      0.37      0.00
    6   64    6      3.06      1.13
    8   64    0     -2.01      0.42
    8   64    2     -0.29     -1.19
    8   64    4     -2.37      2.21
   10   64    0     -3.22      0.26
   10   64    2      0.76      2.01
    1   65    1     -2.10      1.87
    1   65    3     -2.55     -0.69
    1   65    5     -2.73      2.75
    3   65    1     -0.10      2.27
    3   65    3      1.03      2.38
    3   65    5      1.02     -0.89
    5   65    1     -2.08      2.90
    5   65    3      0.10      1.88
    5   65    5     -1.63     -0.80
    7   65    1      0.24      1.80
    7   65    3      3.05     -1.93
    7   65    5      1.93      0.03
    9   65    1      3.24     -2.32
    9   65    3     -1.36      1.64
    0   66    2      0.77      0.40
    2   66    0     -0.52      0.31
    2   66    2     -1.46     -2.27
    2   66    4     -1.93     -1.00
    4   66    0      1.72      0.13
    4   66    2      1.45     -3.34
    4   66    4      1.21     -1.20
    4   66    6      0.16      1.30
    6   66    0      2.90      1.42
    6   66    2     -2.91     -0.26
    6   66    4      0.31      1.34
    8   66    0     -1.58      0.21
    8   66    2      1.05      0.23
    8   66    4      2.42     -0.46
    1   67    1      1.33      0.81
    1   67    3      2.40     -0.82
    1   67    5      3.15     -0.45
    3   67    1     -3.22     -0.63
    3   67    3     -0.29      0.59
    3   67    5      1.50      0.53
    5   67    1     -4.10     -2.26
    5   67    3      1.88     -3.57
    7   67    1     -1.42      1.58
    0   68    0     -2.80     -0.14
    0   68    4     -3.10      2.39
    2   68    0     -0.45     -0.01
    2   68    2      0.72     -2.16
    2   68    4      1.22     -1.63
    4   68    0     -0.84      1.54
    4   68    2     -0.92      0.03
    4   68    4      2.00      1.39
    6   68    0     -3.68      2.47
    6   68    2      1.59     -2.18
    1   69    1     -1.14      0.06
    1   69    3      1.93      2.55
    3   69    1     -0.37     -2.79
    3   69    3      2.80     -2.48
    5   69    1      0.82     -1.24
    0   70    2      0.74     -5.92
    2   70    0     -1.71     -0.15
    2   70    2     -0.78      0.35
    4   70    0     -4.09      0.42
    4   70    2     -0.83      0.30
    1   71    1     -1.77     -3.79
    1   71    3      2.22     -0.76
    3   71    1      1.04     -0.23
    3   71    3      1.09     -3.24
   22   18    0      0.99     -0.17
   22   20    0      1.92      0.45
   22   22    0     -1.63      0.38
   22   24    0     -1.82     -0.10
   22   26    0      0.48     -1.10
   20   38    0      1.18     -0.52
   18   44    0     -0.39     -0.57
   18   46    0     -1.81     -0.45
   16   48    0      0.99     -0.53
   16   50    0      1.26      0.30
   16   52    0     -0.79      0.22
   16   54    0     -0.82     -0.22
   14   56    0      0.12     -0.98
   14   58    0     -0.86      0.43
   10   66    0      0.45     -0.24
    8   68    0     -0.63     -0.15
    6   70    0     -3.70     -0.29
    0   72    0     -1.28      0.25
    2   72    0     -3.21      0.37
    4   72    0     -2.54     -0.57
   23    1    1      0.81      0.99
   23    3    1     -2.05     -1.01
   23    5    1     -1.80     -0.92
   23    7    1      2.64      1.79
   23    9    1      1.96      0.94
   23   11    1     -1.94     -0.74
   23   13    1     -1.51     -0.06
   23   15    1      0.55      0.14
   21   29    1      0.53      2.28
   21   31    1     -0.13     -0.46
   21   33    1     -0.32     -0.98
   19   41    1     -1.73      2.15
   19   43    1     -0.63     -1.32
   17   49    1     -0.59      0.70
   15   53    1      1.33     -1.08
   15   55    1      0.79      0.55
   13   61    1      0.43     -0.54
    9   67    1     -0.31     -2.80
    7   69    1      0.42     -4.56
    5   71    1      2.85     -2.36
   22   22    2      1.95      1.58
   22   24    2      0.80     -0.54
   20   36    2      0.64      0.35
   20   38    2     -1.07     -0.83
   18   44    2     -0.84      0.55
   18   46    2      0.18      1.92
   16   52    2     -0.72     -0.31
   14   58    2      0.05     -0.72
   12   62    2      1.86      1.80
   10   66    2      3.09      3.37
    8   68    2     -1.06      2.63
    6   70    2      0.95      3.29
    2   72    2      0.81     -1.71
    4   72    2     -1.25      0.10
   23    1    3     -2.22     -1.28
   23    3    3     -0.02      2.34
   23    5    3      0.54      0.39
   23    7    3     -1.81     -1.82
   23    9    3      1.06      0.44
   23   11    3      1.41      0.78
   21   19    3     -0.26      2.21
   21   21    3     -1.97      3.10
   21   23    3     -0.97     -0.36
   21   25    3      2.24      2.31
   21   29    3     -0.59     -3.46
   21   31    3     -0.19     -1.71
   19   37    3      0.08     -1.64
   19   39    3     -0.53     -2.38
   19   41    3      0.92      1.10
   17   47    3     -0.90     -0.58
   17   49    3     -0.56      0.38
   15   55    3      0.60      0.88
   13   59    3      0.66     -1.37
   11   61    3      1.60      0.17
   11   63    3     -2.42     -1.45
    7   67    3     -2.97     -1.80
    5   69    3     -0.31     -2.77
    7   69    3     -1.00     -0.42
   22   10    4      2.01     -0.06
   22   12    4      0.21     -1.98
   22   14    4     -0.99      2.17
   22   16    4      0.11      1.90
   22   18    4      0.53     -1.39
   22   20    4     -0.29     -1.51
   20   30    4      2.90      3.86
   20   32    4      1.39     -0.36
   20   34    4     -1.02     -3.39
   18   40    4      1.08      2.45
   18   44    4     -0.35      0.24
   16   50    4      0.31      1.90
   14   56    4      0.55     -0.64
   12   58    4      0.20      0.87
   12   60    4      0.79      1.53
   10   62    4      0.50      1.01
   10   64    4      1.31     -1.48
    6   68    4      2.29      0.82
    2   70    4     -0.94      1.27
    4   70    4      2.17      4.52
   21   23    5      0.85     -1.25
   21   25    5     -0.29      0.84
   19   33    5     -0.56     -0.85
   19   35    5      1.27      1.76
   19   37    5      0.69     -0.89
   17   45    5     -0.15      0.07
   15   51    5      0.60     -2.76
   13   55    5      0.48     -0.40
   11   57    5     -0.54     -0.63
   13   57    5      0.36     -0.74
   11   59    5      0.33      0.90
    9   61    5     -1.27      1.54
   11   61    5     -0.85      0.26
    9   63    5      1.77     -1.64
    5   67    5     -0.55      0.88
    7   67    5     -0.10     -0.01
    1   69    5      0.58     -0.99
    3   69    5      0.74      0.46
   22    0    6      0.09      0.52
   22    2    6     -0.16     -1.79
   22    4    6      0.50      0.39
   22    6    6      0.46      1.16
   22    8    6     -1.04     -0.76
   22   10    6     -0.90     -0.77
   20   24    6     -0.49      0.31
   20   26    6      1.42      0.69
   20   28    6      0.06      0.30
   20   30    6      0.26     -0.28
   18   40    6     -0.30      0.43
   16   46    6     -0.70     -2.19
   16   48    6     -1.77      0.41
   14   50    6      1.86     -0.58
   14   52    6     -0.83      0.81
   12   54    6      2.06      2.51
   12   56    6      0.06      0.76
   10   58    6      1.67      1.64
   12   58    6      0.65      0.13
   10   60    6     -1.03     -1.63
    8   62    6      1.00     -1.03
    8   64    6     -0.73      0.66
    0   66    6      0.12     -4.44
    2   66    6     -1.38      2.26
    6   66    6     -0.07     -1.23
    2   68    6     -1.02      2.83
    4   68    6      1.17     -0.08
   21    1    7      0.82     -0.70
   21    3    7      0.12      0.70
   21    5    7     -1.12      0.94
   21    7    7     -0.36     -0.43
   21   11    7      1.29     -0.67
   21   13    7      0.66      0.61
   21   15    7     -1.44      1.04
   19   31    7      1.91      2.09
   17   39    7     -0.05     -0.52
   17   41    7     -0.24     -1.00
   15   47    7     -0.96     -0.52
   13   51    7     -1.08     -1.43
   11   53    7      1.21      1.97
   13   53    7     -0.19     -2.57
   11   55    7     -2.07     -1.94
    9   57    7     -2.69      0.02
   11   57    7     -0.41     -0.17
    9   59    7     -0.28      0.18
    9   61    7      1.08      0.80
    7   63    7     -1.13      2.15
    1   65    7      0.40      2.82
    3   65    7     -0.66     -2.23
    5   65    7     -2.34     -0.58
    1   67    7      0.66     -2.75
   20   16    8     -1.32     -1.42
   20   18    8      0.72      1.71
   20   20    8     -0.18      1.56
   18   34    8      0.92     -0.35
   16   38    8     -0.74      2.01
   16   40    8      0.76     -2.66
   16   42    8     -1.03     -0.13
   14   46    8     -0.97     -0.06
   14   48    8     -3.32      0.83
   12   50    8     -1.10     -0.25
   12   52    8      1.93      0.69
   10   54    8      1.15      0.44
   10   56    8      2.54     -1.86
    8   60    8      1.16      0.13
    6   62    8     -0.04      0.47
    0   64    8     -2.09      0.15
    2   64    8      1.46      0.12
    4   64    8      1.24     -1.64
   19   13    9      0.62      0.79
   19   15    9      2.40     -0.29
   19   17    9     -0.37      0.02
   19   19    9     -2.16     -0.38
   19   21    9      0.74      0.14
   17   31    9     -0.15      0.02
   17   33    9     -0.13      0.33
   15   39    9      1.37     -2.31
   15   41    9     -1.74      0.89
   13   47    9     -0.95     -2.97
   11   51    9      1.03     -1.33
   11   53    9     -2.60     -1.27
    9   55    9      2.18      0.25
    7   57    9     -0.53      1.98
    5   59    9      2.03     -1.82
    7   59    9      0.95      1.96
    1   61    9     -0.51     -2.38
    5   61    9      1.68      0.08
    1   63    9      0.51      0.37
   18   20   10      0.61     -0.02
   18   22   10     -2.08     -0.03
   16   30   10     -2.48     -1.78
   16   32   10     -1.06     -1.41
   16   34   10      0.94      0.09
   14   40   10      1.11     -0.33
   12   46   10      0.34     -2.45
   10   50   10      0.19      0.42
    8   52   10     -0.14      1.57
    4   54   10      0.58     -1.22
    8   54   10      0.67      1.64
    4   56   10     -1.28     -1.25
    6   56   10     -0.92      1.14
    0   58   10     -3.89     -1.40
    4   58   10      1.09      2.11
    2   60   10      1.20      0.64
   17   11   11     -1.18     -0.30
   17   13   11      0.33      0.14
   17   15   11      1.03      0.54
   17   17   11      0.37      0.53
   17   19   11     -1.08     -0.90
   17   21   11     -2.02      0.10
   15   29   11      2.65     -2.97
   15   31   11      3.01     -1.04
   15   33   11      0.10     -0.73
   13   39   11      1.51      0.84
   11   43   11      0.90      1.85
   11   45   11      2.35     -0.81
    9   47   11     -0.32     -0.51
    9   49   11     -0.38     -1.06
    5   51   11      1.33      0.32
    7   51   11     -2.48     -0.26
    3   53   11      0.28      2.17
    5   53   11     -0.15      1.95
    7   53   11     -1.43      0.26
    3   55   11      1.42     -2.41
    5   55   11     -1.67      0.57
    1   57   11      2.18     -0.51
   16   10   12     -2.06      0.39
   16   12   12      0.85      2.84
   16   14   12      1.45      1.00
   16   16   12     -1.84     -0.75
   16   18   12      0.08      0.14
   16   20   12      1.25     -1.00
   14   24   12     -3.08     -3.08
   14   26   12      0.12     -3.90
   14   28   12      3.28      0.49
   14   30   12      0.07      0.86
   12   32   12     -0.26      0.92
   12   34   12      0.76     -1.80
   12   36   12      0.19     -0.35
   12   38   12      0.32      2.24
   10   42   12     -0.13     -0.35
    8   44   12     -0.79     -1.64
    8   46   12     -0.53     -0.67
    4   48   12     -1.32      0.51
    2   50   12     -0.98      2.34
    4   50   12      0.09     -0.97
    6   50   12     -0.49     -0.12
    0   52   12     -1.67     -3.50
    2   52   12     -3.04     -2.80
    4   52   12     -0.94      2.00
   15    1   13     -1.02     -1.55
   15    3   13     -0.79     -0.63
   15    5   13      1.15      2.07
   15    7   13      2.31      0.99
   15   11   13     -0.63     -0.28
   15   13   13     -1.49     -0.27
   15   15   13     -1.71     -1.04
   13   23   13      0.87     -3.69
   13   25   13      1.19      2.33
   13   27   13      0.62      2.31
   11   31   13     -0.28     -2.64
   11   33   13      0.44      0.48
   11   35   13      0.45      4.15
    9   39   13     -0.12     -3.22
    7   43   13      0.55     -2.91
    5   45   13      0.09     -0.55
    3   47   13      0.07     -3.33
    1   49   13     -3.93      2.24
   14    0   14     -1.29     -0.84
   12    2   14     -2.43      1.12
   14    2   14      3.66      1.03
   12    4   14      2.60      1.50
   14    4   14      1.55      0.42
   12    6   14      3.69     -2.36
   14    6   14     -1.53     -1.91
   12    8   14     -2.21     -1.72
   14    8   14     -1.16     -0.13
   12   10   14     -0.40      0.40
   12   12   14      0.68      1.12
   12   14   14     -1.89      1.93
   12   16   14     -0.27     -0.54
   12   18   14      0.50     -1.26
   10   20   14     -0.57     -0.56
   12   22   14      1.22      0.07
   12   24   14     -1.35      1.99
   10   28   14      2.64      0.27
    8   30   14     -0.98      0.22
   10   30   14      2.31      0.53
    8   34   14     -0.23      1.61
    8   36   14     -0.33     -2.02
    4   40   14      0.58     -0.15
    6   40   14     -1.15      0.46
    0   42   14     -2.55      1.13
    4   42   14      0.39     -3.01
   11    1   15     -1.05     -1.08
   11    3   15     -0.10     -0.21
   11    5   15      1.21      0.17
   11    7   15     -1.60      1.22
   11    9   15      0.14      0.75
    9   11   15     -1.23     -3.20
   11   11   15      1.37     -0.96
    9   13   15     -0.55     -0.26
   11   13   15     -1.01     -0.50
    9   15   15      0.99      2.83
   11   15   15      0.65     -0.40
    9   17   15     -1.62      0.21
   11   17   15      0.35      0.16
    9   19   15     -0.97      0.62
    9   21   15      3.09      1.25
    9   23   15      1.26     -2.01
    7   25   15      1.49     -0.02
    9   25   15     -1.22     -2.07
    7   27   15     -1.92     -3.81
    1   29   15      0.21      3.57
    7   29   15     -1.05     -0.21
    1   31   15      1.33     -1.20
    5   31   15      2.56     -0.86
    7   31   15      1.00      1.15
    1   33   15      1.70     -0.92
    5   33   15      1.33      1.71
    1   35   15     -2.80      1.36
    1   37   15     -2.50     -1.83
    3   37   15     -0.55      0.79
    8    0   16      2.79      0.95
    8    2   16      2.90     -3.85
    8    4   16     -2.09     -2.12
    8    6   16     -2.95      0.52
    8    8   16      0.56      2.85
    8   10   16      1.99      0.94
    8   12   16      0.62     -0.73
    8   14   16     -0.42      0.49
    8   16   16     -0.57     -1.89
    6   18   16     -0.11     -0.45
    0   20   16     -1.27     -3.00
    6   20   16     -1.66     -2.89
    2   22   16      1.90      1.51
    6   22   16     -1.79      0.48
    0   24   16      4.92      4.25
    2   24   16      1.87      0.74
    2   26   16      0.36     -0.21
    4   26   16     -2.54      1.36
    0   28   16     -1.05     -3.48
    2   28   16     -1.44      1.76
    3    1   17     -2.07      1.12
    5    1   17     -1.53      0.03
    3    3   17     -0.91     -0.51
    5    3   17      0.66      0.27
    1    5   17     -4.15     -2.14
    3    5   17      3.22     -0.75
    5    5   17      0.55      1.78
    1    7   17      1.76     -1.63
    3    7   17     -0.77     -1.07
    5    7   17     -0.67      0.58
    3    9   17     -3.45      0.41
    5    9   17      0.82     -2.02
    1   11   17     -2.08      1.34
    3   11   17      0.88      1.98
    1   13   17     -0.02      1.77
    3   13   17      2.45     -0.27
    1   15   17      0.23     -0.64
    3   15   17      1.30     -2.60
    1   17   17      0.29     -1.95
    0    0    0      0.00      0.00
# SQUEEZE RESULTS (Version =  31017)
# Note: Data are Listed for all Voids in the P1 Unit Cell
# i.e. Centre of Gravity, Solvent Accessible Volume,
# Recovered number of Electrons in the Void and
# Details about the Squeezed Material
loop_
  _platon_squeeze_void_nr
  _platon_squeeze_void_average_x
  _platon_squeeze_void_average_y
  _platon_squeeze_void_average_z
  _platon_squeeze_void_volume
  _platon_squeeze_void_count_electrons
  _platon_squeeze_void_content
   1  0.591  0.125 -0.114       647       197 ' '
   2  0.710  0.375  0.085       646       197 ' '
   3  0.091  0.625 -0.114       647       197 ' '
   4  0.210  0.875  0.085       646       197 ' '
_platon_squeeze_void_probe_radius                  1.20
_platon_squeeze_details
)
TITL SIR97 run in space group F d d 2
CELL   18.0990   56.2820   13.4350     90.00     90.00     90.00
SPGR Fdd2
# Solvent Accessible Volume =      2594
# Electrons Found in S.A.V. =       791
# Note: Atoms in Void are Labelled as Cxxx and Qxxx for all Others
C101 0.054 0.101 0.393 !       1.39 eA-3
C102 0.399 0.414 0.324 !       1.23 eA-3
C103 0.428 0.378 0.423 !       1.10 eA-3
C104 0.871 0.126 0.221 !       1.08 eA-3
C105 0.029 0.134 0.466 !       0.95 eA-3
Q106 0.467 0.421 0.468 !       0.94 eA-3
Q107 0.807 0.187 0.187 !       0.79 eA-3
Q108 0.401 0.442 0.386 !       0.79 eA-3
Q109 0.477 0.431 0.404 !       0.78 eA-3
Q110 0.197 0.124 0.487 !       0.74 eA-3
Q111 0.581 0.308 0.158 !       0.70 eA-3
Q112 0.955 0.067 0.279 !       0.69 eA-3
Q113 0.336 0.368 0.344 !       0.67 eA-3
Q114 0.570 0.367 0.026 !       0.64 eA-3
Q115 0.596 0.161 0.016 !       0.64 eA-3
Q116 0.709 0.172 0.242 !       0.60 eA-3
Q117 0.271 0.441 0.355 !       0.60 eA-3
Q118 0.250 0.250 0.187 !       0.60 eA-3
Q119 0.558 0.406 0.433 !       0.58 eA-3
Q120 0.072 0.306 0.466 !       0.58 eA-3
C121 0.737 0.165 0.019 !       0.58 eA-3
Q122 0.880 0.107 0.114 !       0.57 eA-3
Q123 0.335 0.422 0.457 !       0.57 eA-3
Q124 0.951 0.178 0.187 !       0.56 eA-3
Q125 0.557 0.391 0.154 !       0.55 eA-3
Q126 0.128 0.113 0.234 !       0.55 eA-3
Q127 0.083 0.064 0.097 !       0.55 eA-3
C128 0.697 0.167 0.063 !       0.55 eA-3
Q129 0.596 0.142 0.051 !       0.52 eA-3
Q130 0.849 0.488 0.472 !       0.51 eA-3
Q131 0.948 0.101 0.124 !       0.51 eA-3
Q132 0.609 0.108 0.049 !       0.51 eA-3
)
;
_shelx_fab_checksum              20634
loop_
_space_group_symop_operation_xyz
'x, y, z'
'-x, -y, z'
'-x+1/4, y+1/4, z+1/4'
'x+1/4, -y+1/4, z+1/4'
'x, y+1/2, z+1/2'
'-x, -y+1/2, z+1/2'
'-x+1/4, y+3/4, z+3/4'
'x+1/4, -y+3/4, z+3/4'
'x+1/2, y, z+1/2'
'-x+1/2, -y, z+1/2'
'-x+3/4, y+1/4, z+3/4'
'x+3/4, -y+1/4, z+3/4'
'x+1/2, y+1/2, z'
'-x+1/2, -y+1/2, z'
'-x+3/4, y+3/4, z+1/4'
'x+3/4, -y+3/4, z+1/4'
loop_
_atom_site_label
_atom_site_type_symbol
_atom_site_fract_x
_atom_site_fract_y
_atom_site_fract_z
_atom_site_U_iso_or_equiv
_atom_site_adp_type
_atom_site_occupancy
_atom_site_site_symmetry_order
_atom_site_calc_flag
_atom_site_refinement_flags_posn
_atom_site_refinement_flags_adp
_atom_site_refinement_flags_occupancy
C38 C 0.3644(9) 0.1227(4) 0.3368(17) 0.160(5) Uani 1 1 d D U .
H38 H 0.363000 0.135376 0.292288 0.192 Uiso 1 1 calc R U .
C40 C 0.4366(11) 0.0939(3) 0.4297(14) 0.146(4) Uani 1 1 d D U .
H40 H 0.481484 0.086468 0.442689 0.175 Uiso 1 1 calc R U .
C39 C 0.4293(9) 0.1114(3) 0.3591(12) 0.135(4) Uani 1 1 d D U .
Co1 Co 0.66910(4) 0.01145(2) -0.07146(12) 0.0402(3) Uani 1 1 d . U .
O1 O 0.6908(6) 0.04402(18) 0.0481(8) 0.117(3) Uani 1 1 d D . .
N4 N 0.9810(4) 0.02791(15) 0.0042(7) 0.0797(19) Uani 1 1 d . . .
N5 N 1.0504(4) 0.02830(16) 0.1474(7) 0.085(2) Uani 1 1 d . . .
O2 O 0.5798(4) 0.02996(14) 0.0213(6) 0.0896(16) Uani 1 1 d D U .
C21 C 0.9948(6) 0.0315(2) 0.2113(10) 0.104(4) Uani 1 1 d . . .
H21 H 0.946242 0.035157 0.194567 0.125 Uiso 1 1 calc DR U .
N3 N 0.9021(4) 0.02501(14) -0.1314(6) 0.0771(18) Uani 1 1 d . . .
N6 N 1.0971(5) 0.02295(18) 0.2968(8) 0.090(2) Uani 1 1 d . . .
N2 N 0.7842(5) 0.01825(17) -0.1310(7) 0.085(2) Uani 1 1 d . U .
N1 N 0.4926(8) 0.1183(2) 0.2968(12) 0.132(4) Uani 1 1 d . U .
C2 C 0.5122(7) 0.0669(2) 0.1276(11) 0.102(3) Uani 1 1 d . . .
H2 H 0.481948 0.056521 0.092283 0.122 Uiso 1 1 calc R U .
C25 C 0.9739(5) 0.02871(16) -0.0972(7) 0.073(2) Uani 1 1 d . . .
C26 C 0.8827(6) 0.0200(2) -0.2282(8) 0.091(3) Uani 1 1 d . . .
H26 H 0.913763 0.019682 -0.283306 0.109 Uiso 1 1 calc R U .
C3 C 0.5476(6) 0.18937(16) 0.2423(9) 0.084(2) Uani 1 1 d . . .
C4 C 0.5870(6) 0.0642(2) 0.1234(9) 0.088(2) Uani 1 1 d . U .
C19 C 0.6233(6) 0.04447(17) 0.0621(8) 0.0799(17) Uani 1 1 d . U .
C27 C 1.1019(8) 0.0360(2) -0.1175(12) 0.103(3) Uani 1 1 d . . .
H27 H 1.142274 0.038968 -0.158569 0.123 Uiso 1 1 calc R U .
C28 C 0.8099(7) 0.0158(2) -0.2265(9) 0.089(3) Uani 1 1 d . . .
H28 H 0.781274 0.011725 -0.281496 0.107 Uiso 1 1 calc R U .
C5 C 0.5312(10) 0.14872(16) 0.1849(9) 0.133(5) Uani 1 1 d D U .
H5 H 0.537667 0.137365 0.135389 0.160 Uiso 1 1 calc R U .
C6 C 0.5461(7) 0.17179(15) 0.1629(10) 0.105(4) Uani 1 1 d D . .
H6 H 0.555257 0.176314 0.097526 0.126 Uiso 1 1 calc R U .
C29 C 1.1096(6) 0.02310(19) 0.2010(9) 0.090(3) Uani 1 1 d . . .
H29 H 1.155598 0.019879 0.173248 0.108 Uiso 1 1 calc R U .
C30 C 1.0467(5) 0.03124(17) 0.0408(9) 0.078(2) Uani 1 1 d . . .
C7 C 0.5073(8) 0.1414(2) 0.2761(9) 0.110(4) Uani 1 1 d D U .
C8 C 0.6314(9) 0.07990(19) 0.1745(12) 0.111(3) Uani 1 1 d . . .
H8 H 0.682572 0.078874 0.169732 0.133 Uiso 1 1 calc R U .
C31 C 1.0213(6) 0.0286(3) 0.3048(9) 0.102(3) Uani 1 1 d . . .
H31 H 0.994466 0.029976 0.363548 0.122 Uiso 1 1 calc R U .
C9 C 0.5235(7) 0.09948(18) 0.2389(10) 0.109(4) Uani 1 1 d D U .
C32 C 0.8411(4) 0.02372(16) -0.0788(8) 0.0719(19) Uani 1 1 d . . .
H32 H 0.839341 0.026491 -0.010615 0.086 Uiso 1 1 calc R U .
C10 C 0.4810(6) 0.08472(19) 0.1837(12) 0.110(4) Uani 1 1 d D . .
H10 H 0.429997 0.086651 0.183759 0.133 Uiso 1 1 calc R U .
C33 C 1.1102(7) 0.0345(2) -0.0145(11) 0.096(3) Uani 1 1 d . . .
H33 H 1.156314 0.035617 0.015581 0.116 Uiso 1 1 calc R U .
C11 C 0.5039(8) 0.15885(19) 0.3540(10) 0.105(4) Uani 1 1 d . . .
H11 H 0.488190 0.154375 0.417147 0.126 Uiso 1 1 calc R U .
C34 C 1.0331(6) 0.0331(2) -0.1562(10) 0.096(3) Uani 1 1 d . . .
H34 H 1.026482 0.034167 -0.224694 0.115 Uiso 1 1 calc R U .
C13 C 0.5232(6) 0.18175(17) 0.3366(9) 0.087(3) Uani 1 1 d . . .
H13 H 0.520367 0.192703 0.388274 0.105 Uiso 1 1 calc R U .
C15 C 0.5983(7) 0.0974(2) 0.2339(16) 0.133(5) Uani 1 1 d D . .
H15 H 0.627804 0.107808 0.270285 0.159 Uiso 1 1 calc R U .
O3 O 0.5885(6) 0.22058(17) 0.1367(8) 0.114(3) Uani 1 1 d . U .
C35 C 0.5607(6) 0.21513(19) 0.2205(9) 0.084(3) Uani 1 1 d . . .
O4 O 0.5498(7) 0.22982(15) 0.2872(7) 0.113(3) Uani 1 1 d . . .
C42 C 0.3071(13) 0.0982(4) 0.457(2) 0.184(5) Uani 1 1 d D U .
H42 H 0.265075 0.093805 0.492120 0.221 Uiso 1 1 calc R U .
C41 C 0.3735(10) 0.0882(4) 0.4793(18) 0.172(5) Uani 1 1 d D U .
H41 H 0.375776 0.077027 0.530376 0.207 Uiso 1 1 calc R U .
C43 C 0.3019(12) 0.1147(4) 0.3823(18) 0.183(5) Uani 1 1 d D U .
H43 H 0.255860 0.120398 0.362895 0.219 Uiso 1 1 calc R U .
O1W O 0.500000 0.000000 0.1183(16) 0.123(8) Uani 0.5 2 d DS TU P
H1WA H 0.522488 0.011148 0.148575 0.184 Uiso 0.5 1 d DR U P
O2W O 0.8112(6) 0.0326(4) 0.1733(13) 0.156(6) Uani 0.75 1 d D U P
H2WA H 0.803684 0.042336 0.125928 0.234 Uiso 0.75 1 d DR U P
H2WB H 0.827545 0.040322 0.223123 0.234 Uiso 0.75 1 d DR U P
loop_
_atom_site_aniso_label
_atom_site_aniso_U_11
_atom_site_aniso_U_22
_atom_site_aniso_U_33
_atom_site_aniso_U_23
_atom_site_aniso_U_13
_atom_site_aniso_U_12
C38 0.166(8) 0.155(8) 0.159(9) 0.006(8) 0.024(8) -0.024(7)
C40 0.161(8) 0.128(7) 0.149(8) 0.003(7) 0.028(7) -0.018(7)
C39 0.143(7) 0.128(7) 0.133(8) -0.011(6) 0.036(7) -0.022(6)
Co1 0.0359(4) 0.0408(4) 0.0438(4) -0.0034(3) -0.0120(3) 0.0035(2)
O1 0.132(7) 0.110(6) 0.108(6) -0.009(5) 0.012(6) 0.030(5)
N4 0.066(4) 0.093(5) 0.080(5) 0.012(4) -0.008(3) 0.002(3)
N5 0.066(4) 0.098(5) 0.090(6) -0.001(4) -0.009(4) 0.000(4)
O2 0.091(3) 0.092(3) 0.086(3) -0.018(3) 0.005(2) 0.017(2)
C21 0.068(6) 0.145(10) 0.101(8) 0.007(6) -0.021(5) 0.008(6)
N3 0.069(4) 0.084(4) 0.079(5) 0.010(4) 0.001(3) 0.002(3)
N6 0.071(5) 0.106(6) 0.093(7) 0.006(5) -0.018(4) 0.006(4)
N2 0.068(4) 0.096(5) 0.091(6) 0.004(4) -0.014(4) 0.001(4)
N1 0.156(9) 0.095(6) 0.144(9) -0.019(6) 0.044(7) -0.013(6)
C2 0.106(8) 0.093(7) 0.107(8) -0.001(6) 0.017(6) -0.003(6)
C25 0.062(4) 0.076(4) 0.081(6) 0.003(4) 0.001(4) 0.012(3)
C26 0.074(6) 0.127(8) 0.072(6) 0.018(5) -0.005(4) 0.001(5)
C3 0.085(6) 0.070(5) 0.099(7) -0.001(4) 0.013(5) 0.005(4)
C4 0.095(4) 0.086(4) 0.084(4) -0.001(4) 0.003(4) 0.008(4)
C19 0.083(4) 0.080(3) 0.077(4) -0.007(3) -0.006(3) 0.008(3)
C27 0.087(7) 0.110(8) 0.111(9) 0.005(7) 0.009(6) -0.003(6)
C28 0.080(6) 0.117(8) 0.071(6) 0.004(5) -0.021(5) 0.001(5)
C5 0.178(11) 0.098(6) 0.124(9) -0.039(7) 0.035(9) 0.010(7)
C6 0.136(9) 0.071(5) 0.107(9) -0.003(5) 0.033(8) 0.018(5)
C29 0.074(5) 0.097(6) 0.098(8) -0.003(5) -0.019(5) 0.011(4)
C30 0.059(4) 0.082(5) 0.094(7) -0.007(4) -0.011(4) 0.006(4)
C7 0.119(8) 0.092(6) 0.119(8) -0.011(6) 0.052(7) -0.011(5)
C8 0.139(10) 0.079(5) 0.114(8) -0.017(6) 0.014(9) -0.003(6)
C31 0.074(6) 0.151(10) 0.080(7) 0.004(6) -0.017(5) -0.006(6)
C9 0.126(8) 0.071(5) 0.129(8) -0.003(5) 0.035(7) 0.008(5)
C32 0.062(4) 0.083(5) 0.071(5) -0.004(5) -0.012(4) -0.001(3)
C10 0.093(7) 0.084(6) 0.154(11) 0.007(8) 0.023(8) 0.007(5)
C33 0.078(6) 0.102(7) 0.109(9) 0.011(6) -0.013(6) -0.001(5)
C11 0.141(10) 0.081(6) 0.093(7) 0.004(5) 0.032(7) 0.002(6)
C34 0.084(6) 0.113(8) 0.091(7) 0.025(6) -0.001(6) -0.012(6)
C13 0.097(6) 0.076(5) 0.089(6) -0.006(4) 0.009(5) 0.019(4)
C15 0.151(12) 0.071(6) 0.177(15) -0.017(8) 0.014(11) -0.006(7)
O3 0.142(7) 0.085(5) 0.115(6) 0.004(4) 0.054(5) -0.014(4)
C35 0.073(5) 0.091(6) 0.088(7) -0.008(5) -0.005(5) 0.012(4)
O4 0.172(9) 0.081(4) 0.087(5) -0.009(4) -0.010(6) -0.014(5)
C42 0.186(9) 0.185(9) 0.183(9) 0.005(8) 0.011(9) -0.010(8)
C41 0.188(9) 0.163(8) 0.165(9) 0.003(8) 0.016(8) -0.006(8)
C43 0.178(10) 0.182(10) 0.189(11) 0.012(9) 0.022(10) -0.026(9)
O1W 0.122(17) 0.143(17) 0.105(15) 0.000 0.000 -0.033(14)
O2W 0.080(6) 0.263(17) 0.125(10) 0.036(11) 0.003(7) 0.030(8)
loop_
_atom_type_symbol
_atom_type_description
_atom_type_scat_dispersion_real
_atom_type_scat_dispersion_imag
_atom_type_scat_source
C C 0.0033 0.0016 'International Tables Vol C Tables 4.2.6.8 and 6.1.1.4'
H H 0.0000 0.0000 'International Tables Vol C Tables 4.2.6.8 and 6.1.1.4'
N N 0.0061 0.0033 'International Tables Vol C Tables 4.2.6.8 and 6.1.1.4'
O O 0.0106 0.0060 'International Tables Vol C Tables 4.2.6.8 and 6.1.1.4'
Co Co 0.3494 0.9721 'International Tables Vol C Tables 4.2.6.8 and 6.1.1.4'
loop_
_geom_angle_atom_site_label_1
_geom_angle_atom_site_label_2
_geom_angle_atom_site_label_3
_geom_angle
_geom_angle_site_symmetry_1
_geom_angle_site_symmetry_3
C43 C38 C39 117(2) . .
C43 C38 H38 121.3 . .
C39 C38 H38 121.3 . .
C41 C40 C39 115.3(19) . .
C41 C40 H40 122.3 . .
C39 C40 H40 122.3 . .
C38 C39 C40 124.5(17) . .
C38 C39 N1 115.0(14) . .
C40 C39 N1 120.4(15) . .
N2 Co1 N6 101.7(3) . 9_454
N2 Co1 O2 139.8(3) . .
N6 Co1 O2 83.7(3) 9_454 .
N2 Co1 O4 97.2(4) . 7_644
N6 Co1 O4 145.4(4) 9_454 7_644
O2 Co1 O4 100.0(3) . 7_644
N2 Co1 O3 97.7(4) . 7_644
N6 Co1 O3 93.3(3) 9_454 7_644
O2 Co1 O3 122.0(4) . 7_644
O4 Co1 O3 55.3(3) 7_644 7_644
C30 N4 C25 117.2(9) . .
C29 N5 C21 106.9(10) . .
C29 N5 C30 127.1(9) . .
C21 N5 C30 126.0(9) . .
C19 O2 Co1 95.2(6) . .
N5 C21 C31 108.2(10) . .
N5 C21 H21 125.9 . .
C31 C21 H21 125.9 . .
C32 N3 C26 106.5(8) . .
C32 N3 C25 127.9(9) . .
C26 N3 C25 125.4(8) . .
C29 N6 C31 104.0(9) . .
C29 N6 Co1 131.6(7) . 9
C31 N6 Co1 123.8(8) . 9
C32 N2 C28 105.3(9) . .
C32 N2 Co1 125.9(8) . .
C28 N2 Co1 128.7(7) . .
C7 N1 C9 121.5(12) . .
C7 N1 C39 121.3(12) . .
C9 N1 C39 115.0(11) . .
C4 C2 C10 120.6(12) . .
C4 C2 H2 119.7 . .
C10 C2 H2 119.7 . .
C34 C25 N4 120.9(9) . .
C34 C25 N3 124.8(10) . .
N4 C25 N3 114.3(8) . .
C28 C26 N3 105.8(9) . .
C28 C26 H26 127.1 . .
N3 C26 H26 127.1 . .
C13 C3 C6 116.5(9) . .
C13 C3 C35 121.3(9) . .
C6 C3 C35 121.2(10) . .
C2 C4 C8 119.3(11) . .
C2 C4 C19 121.8(11) . .
C8 C4 C19 118.8(10) . .
O1 C19 O2 122.5(9) . .
O1 C19 C4 121.4(9) . .
O2 C19 C4 115.9(9) . .
C34 C27 C33 118.0(13) . .
C34 C27 H27 121.0 . .
C33 C27 H27 121.0 . .
C26 C28 N2 109.3(9) . .
C26 C28 H28 125.4 . .
N2 C28 H28 125.4 . .
C6 C5 C7 123.1(11) . .
C6 C5 H5 118.4 . .
C7 C5 H5 118.5 . .
C5 C6 C3 119.6(11) . .
C5 C6 H6 120.2 . .
C3 C6 H6 120.2 . .
N6 C29 N5 113.4(10) . .
N6 C29 H29 123.3 . .
N5 C29 H29 123.3 . .
N4 C30 C33 125.2(11) . .
N4 C30 N5 113.6(9) . .
C33 C30 N5 120.7(9) . .
N1 C7 C5 122.3(11) . .
N1 C7 C11 119.9(11) . .
C5 C7 C11 117.6(10) . .
C4 C8 C15 118.9(13) . .
C4 C8 H8 120.5 . .
C15 C8 H8 120.5 . .
C21 C31 N6 107.5(11) . .
C21 C31 H31 126.2 . .
N6 C31 H31 126.2 . .
C10 C9 C15 119.2(12) . .
C10 C9 N1 122.1(12) . .
C15 C9 N1 118.6(12) . .
N2 C32 N3 113.2(10) . .
N2 C32 H32 123.4 . .
N3 C32 H32 123.4 . .
C9 C10 C2 121.0(12) . .
C9 C10 H10 119.5 . .
C2 C10 H10 119.5 . .
C30 C33 C27 117.0(12) . .
C30 C33 H33 121.5 . .
C27 C33 H33 121.5 . .
C13 C11 C7 120.9(11) . .
C13 C11 H11 119.6 . .
C7 C11 H11 119.6 . .
C25 C34 C27 121.5(12) . .
C25 C34 H34 119.2 . .
C27 C34 H34 119.2 . .
C11 C13 C3 121.7(10) . .
C11 C13 H13 119.2 . .
C3 C13 H13 119.2 . .
C9 C15 C8 120.8(13) . .
C9 C15 H15 119.6 . .
C8 C15 H15 119.6 . .
C35 O3 Co1 90.1(7) . 3_655
O4 C35 O3 123.0(11) . .
O4 C35 C3 118.7(11) . .
O3 C35 C3 118.0(10) . .
C35 O4 Co1 91.0(8) . 3_655
C41 C42 C43 120(3) . .
C41 C42 H42 119.8 . .
C43 C42 H42 119.8 . .
C40 C41 C42 122(2) . .
C40 C41 H41 118.9 . .
C42 C41 H41 118.9 . .
C38 C43 C42 120(2) . .
C38 C43 H43 120.1 . .
C42 C43 H43 120.1 . .
H1WA O1W H1WA 123.0 . 2_655
H2WA O2W H2WB 108.3 . .
loop_
_geom_bond_atom_site_label_1
_geom_bond_atom_site_label_2
_geom_bond_distance
_geom_bond_site_symmetry_2
C38 C43 1.364(7) .
C38 C39 1.370(7) .
C38 H38 0.9300 .
C40 C41 1.361(7) .
C40 C39 1.375(7) .
C40 H40 0.9300 .
C39 N1 1.47(2) .
Co1 N2 2.264(9) .
Co1 N6 2.291(9) 9_454
Co1 O2 2.291(7) .
Co1 O4 2.370(9) 7_644
Co1 O3 2.372(9) 7_644
O1 C19 1.238(15) .
N4 C30 1.301(12) .
N4 C25 1.369(14) .
N5 C29 1.324(12) .
N5 C21 1.335(15) .
N5 C30 1.443(15) .
O2 C19 1.260(13) .
C21 C31 1.355(17) .
C21 H21 0.9300 .
N3 C32 1.312(12) .
N3 C26 1.375(14) .
N3 C25 1.394(11) .
N6 C29 1.306(16) .
N6 C31 1.412(14) .
N2 C32 1.284(12) .
N2 C28 1.373(16) .
N1 C7 1.360(15) .
N1 C9 1.427(16) .
C2 C4 1.362(17) .
C2 C10 1.377(17) .
C2 H2 0.9300 .
C25 C34 1.356(15) .
C26 C28 1.340(15) .
C26 H26 0.9300 .
C3 C13 1.409(15) .
C3 C6 1.454(16) .
C3 C35 1.498(15) .
C4 C8 1.377(18) .
C4 C19 1.532(15) .
C27 C34 1.359(18) .
C27 C33 1.396(19) .
C27 H27 0.9300 .
C28 H28 0.9300 .
C5 C6 1.358(7) .
C5 C7 1.363(7) .
C5 H5 0.9300 .
C6 H6 0.9300 .
C29 H29 0.9300 .
C30 C33 1.380(18) .
C7 C11 1.434(17) .
C8 C15 1.405(19) .
C8 H8 0.9300 .
C31 H31 0.9300 .
C9 C10 1.353(7) .
C9 C15 1.359(7) .
C32 H32 0.9300 .
C10 H10 0.9300 .
C33 H33 0.9300 .
C11 C13 1.356(14) .
C11 H11 0.9300 .
C34 H34 0.9300 .
C13 H13 0.9300 .
C15 H15 0.9300 .
O3 C35 1.271(14) .
C35 O4 1.235(14) .
C42 C41 1.362(7) .
C42 C43 1.367(7) .
C42 H42 0.9300 .
C41 H41 0.9300 .
C43 H43 0.9300 .
O1W H1WA 0.8511 .
O1W H1WA 0.8511 2_655
O2W H2WA 0.8513 .
O2W H2WB 0.8514 .
loop_
_geom_torsion_atom_site_label_1
_geom_torsion_atom_site_label_2
_geom_torsion_atom_site_label_3
_geom_torsion_atom_site_label_4
_geom_torsion
_geom_torsion_site_symmetry_1
_geom_torsion_site_symmetry_4
C43 C38 C39 C40 -5(3) . .
C43 C38 C39 N1 170.9(19) . .
C41 C40 C39 C38 -1(3) . .
C41 C40 C39 N1 -176.7(18) . .
C29 N5 C21 C31 0.9(14) . .
C30 N5 C21 C31 -176.1(10) . .
C38 C39 N1 C7 46(3) . .
C40 C39 N1 C7 -138.0(19) . .
C38 C39 N1 C9 -117.7(19) . .
C40 C39 N1 C9 59(2) . .
C30 N4 C25 C34 -0.8(15) . .
C30 N4 C25 N3 -180.0(8) . .
C32 N3 C25 C34 -170.4(10) . .
C26 N3 C25 C34 15.3(16) . .
C32 N3 C25 N4 8.7(14) . .
C26 N3 C25 N4 -165.6(10) . .
C32 N3 C26 C28 -0.6(12) . .
C25 N3 C26 C28 174.7(9) . .
C10 C2 C4 C8 -1(2) . .
C10 C2 C4 C19 179.7(12) . .
Co1 O2 C19 O1 -3.6(12) . .
Co1 O2 C19 C4 171.2(8) . .
C2 C4 C19 O1 170.4(12) . .
C8 C4 C19 O1 -8.7(17) . .
C2 C4 C19 O2 -4.4(16) . .
C8 C4 C19 O2 176.5(12) . .
N3 C26 C28 N2 0.6(14) . .
C32 N2 C28 C26 -0.3(13) . .
Co1 N2 C28 C26 -175.7(8) . .
C7 C5 C6 C3 9(2) . .
C13 C3 C6 C5 -8.5(18) . .
C35 C3 C6 C5 -177.5(13) . .
C31 N6 C29 N5 0.3(14) . .
Co1 N6 C29 N5 171.9(7) 9 .
C21 N5 C29 N6 -0.8(14) . .
C30 N5 C29 N6 176.2(10) . .
C25 N4 C30 C33 -2.9(15) . .
C25 N4 C30 N5 -175.5(8) . .
C29 N5 C30 N4 156.9(10) . .
C21 N5 C30 N4 -26.7(15) . .
C29 N5 C30 C33 -16.1(16) . .
C21 N5 C30 C33 160.4(12) . .
C9 N1 C7 C5 21(3) . .
C39 N1 C7 C5 -140.9(17) . .
C9 N1 C7 C11 -153.3(15) . .
C39 N1 C7 C11 45(2) . .
C6 C5 C7 N1 -180.0(16) . .
C6 C5 C7 C11 -5(3) . .
C2 C4 C8 C15 3(2) . .
C19 C4 C8 C15 -177.5(13) . .
N5 C21 C31 N6 -0.8(15) . .
C29 N6 C31 C21 0.3(14) . .
Co1 N6 C31 C21 -172.2(8) 9 .
C7 N1 C9 C10 -115.4(18) . .
C39 N1 C9 C10 48(2) . .
C7 N1 C9 C15 60(2) . .
C39 N1 C9 C15 -136.7(16) . .
C28 N2 C32 N3 -0.1(12) . .
Co1 N2 C32 N3 175.4(6) . .
C26 N3 C32 N2 0.5(12) . .
C25 N3 C32 N2 -174.7(9) . .
C15 C9 C10 C2 4(2) . .
N1 C9 C10 C2 179.4(14) . .
C4 C2 C10 C9 -2(2) . .
N4 C30 C33 C27 4.9(18) . .
N5 C30 C33 C27 177.0(11) . .
C34 C27 C33 C30 -3.0(19) . .
N1 C7 C11 C13 175.3(14) . .
C5 C7 C11 C13 1(2) . .
N4 C25 C34 C27 2.4(17) . .
N3 C25 C34 C27 -178.5(10) . .
C33 C27 C34 C25 0(2) . .
C7 C11 C13 C3 0(2) . .
C6 C3 C13 C11 4.0(17) . .
C35 C3 C13 C11 173.0(12) . .
C10 C9 C15 C8 -2(2) . .
N1 C9 C15 C8 -177.3(15) . .
C4 C8 C15 C9 -2(2) . .
Co1 O3 C35 O4 -7.7(12) 3_655 .
Co1 O3 C35 C3 178.2(8) 3_655 .
C13 C3 C35 O4 -0.1(16) . .
C6 C3 C35 O4 168.4(12) . .
C13 C3 C35 O3 174.3(11) . .
C6 C3 C35 O3 -17.2(16) . .
O3 C35 O4 Co1 7.7(12) . 3_655
C3 C35 O4 Co1 -178.3(8) . 3_655
C39 C40 C41 C42 3(3) . .
C43 C42 C41 C40 0(4) . .
C39 C38 C43 C42 9(4) . .
C41 C42 C43 C38 -6(4) . .
