#------------------------------------------------------------------------------
#$Date: 2019-11-07 23:50:44 +0200 (Thu, 07 Nov 2019) $
#$Revision: 224117 $
#$URL: file:///home/coder/svn-repositories/cod/cif/7/04/95/7049550.cif $
#------------------------------------------------------------------------------
#
# This file is available in the Crystallography Open Database (COD),
# http://www.crystallography.net/
#
# All data on this site have been placed in the public domain by the
# contributors.
#
data_7049550
loop_
_publ_author_name
'Li, Feng-Cai'
'Tan, Li-Kun'
'Li, Xi-Li'
'Kong, Hua-Jie'
'Ge, Li-Ming'
'Yue, Ling-Yu'
'Han, Li-Feng'
_publ_section_title
;
 Syntheses, structures and catalytic properties of Evans-Showell-type
 polyoxometalate-based 3D metal-organic complexes constructed from the
 semi-rigid bis(pyridylformyl)piperazine ligand and transition metals.
;
_journal_issue                   17
_journal_name_full
'Dalton transactions (Cambridge, England : 2003)'
_journal_page_first              5831
_journal_page_last               5841
_journal_paper_doi               10.1039/c9dt00499h
_journal_volume                  48
_journal_year                    2019
_chemical_formula_moiety
'0.5(C32 H56 Co4 Mo20 N8 O96 Zn4), C16 H16 N4 O2'
_chemical_formula_sum            'C32 H44 Co2 Mo10 N8 O50 Zn2'
_chemical_formula_weight         2548.75
_space_group_crystal_system      monoclinic
_space_group_IT_number           15
_space_group_name_Hall           '-C 2yc'
_space_group_name_H-M_alt        'C 1 2/c 1'
_symmetry_space_group_name_Hall  '-C 2yc'
_symmetry_space_group_name_H-M   'C 1 2/c 1'
_atom_sites_solution_hydrogens   mixed
_atom_sites_solution_primary     dual
_audit_creation_date             2018-12-05
_audit_creation_method
;
Olex2 1.2
(compiled 2018.05.29 svn.r3508 for OlexSys, GUI svn.r5506)
;
_audit_update_record
;
2018-12-14 deposited with the CCDC.    2019-04-01 downloaded from the CCDC.
;
_cell_angle_alpha                90
_cell_angle_beta                 104.817(10)
_cell_angle_gamma                90
_cell_formula_units_Z            4
_cell_length_a                   21.544(2)
_cell_length_b                   14.2328(12)
_cell_length_c                   24.246(3)
_cell_measurement_reflns_used    8085
_cell_measurement_temperature    298.15
_cell_measurement_theta_max      29.3350
_cell_measurement_theta_min      4.0170
_cell_volume                     7187.4(13)
_computing_molecular_graphics    'Olex2 (Dolomanov et al., 2009)'
_computing_publication_material  'Olex2 (Dolomanov et al., 2009)'
_computing_structure_refinement  'ShelXL (Sheldrick, 2015)'
_computing_structure_solution    'ShelXT (Sheldrick, 2015)'
_diffrn_ambient_temperature      298.15
_diffrn_measured_fraction_theta_full 0.995
_diffrn_measured_fraction_theta_max 0.995
_diffrn_measurement_device_type  'Xcalibur, Eos, Gemini'
_diffrn_measurement_method       'phi and omega scans'
_diffrn_radiation_monochromator  graphite
_diffrn_radiation_type           MoK\a
_diffrn_radiation_wavelength     0.71073
_diffrn_reflns_av_R_equivalents  0.0637
_diffrn_reflns_av_unetI/netI     0.0649
_diffrn_reflns_Laue_measured_fraction_full 0.995
_diffrn_reflns_Laue_measured_fraction_max 0.995
_diffrn_reflns_limit_h_max       26
_diffrn_reflns_limit_h_min       -26
_diffrn_reflns_limit_k_max       17
_diffrn_reflns_limit_k_min       -15
_diffrn_reflns_limit_l_max       29
_diffrn_reflns_limit_l_min       -28
_diffrn_reflns_number            17793
_diffrn_reflns_point_group_measured_fraction_full 0.995
_diffrn_reflns_point_group_measured_fraction_max 0.995
_diffrn_reflns_theta_full        25.242
_diffrn_reflns_theta_max         25.994
_diffrn_reflns_theta_min         3.648
_exptl_absorpt_coefficient_mu    2.889
_exptl_absorpt_correction_T_max  1.00000
_exptl_absorpt_correction_T_min  0.46922
_exptl_absorpt_correction_type   multi-scan
_exptl_crystal_colour            'clear dark green'
_exptl_crystal_colour_lustre     clear
_exptl_crystal_colour_modifier   dark
_exptl_crystal_colour_primary    green
_exptl_crystal_density_diffrn    2.355
_exptl_crystal_description       block
_exptl_crystal_F_000             4904
_exptl_crystal_size_max          0.3
_exptl_crystal_size_mid          0.25
_exptl_crystal_size_min          0.2
_refine_diff_density_max         3.009
_refine_diff_density_min         -2.305
_refine_diff_density_rms         0.272
_refine_ls_extinction_method     none
_refine_ls_goodness_of_fit_ref   1.091
_refine_ls_hydrogen_treatment    constr
_refine_ls_matrix_type           full
_refine_ls_number_parameters     472
_refine_ls_number_reflns         7033
_refine_ls_number_restraints     24
_refine_ls_restrained_S_all      1.090
_refine_ls_R_factor_all          0.1109
_refine_ls_R_factor_gt           0.0921
_refine_ls_shift/su_max          0.001
_refine_ls_shift/su_mean         0.000
_refine_ls_structure_factor_coef Fsqd
_refine_ls_weighting_details
'w=1/[\s^2^(Fo^2^)+(0.0456P)^2^+642.2031P] where P=(Fo^2^+2Fc^2^)/3'
_refine_ls_weighting_scheme      calc
_refine_ls_wR_factor_gt          0.2025
_refine_ls_wR_factor_ref         0.2129
_reflns_Friedel_coverage         0.000
_reflns_number_gt                5513
_reflns_number_total             7033
_reflns_threshold_expression     'I > 2\s(I)'
_iucr_refine_instructions_details
;

    1.res created by SHELXL-2014/7

TITL 1_a.res in C2/c
REM Old TITL 1 in C2/c
REM SHELXT solution in C2/c
REM R1 0.195, Rweak 0.011, Alpha 0.073, Orientation as input
REM Formula found by SHELXT: C21 N5 O21 Zn Mo6
CELL 0.71073 21.5443 14.2328 24.2463 90 104.817 90
ZERR 4 0.002 0.0012 0.0027 0 0.01 0
LATT 7
SYMM -X,+Y,0.5-Z
SFAC C H Co Mo N O Zn
UNIT 128 176 8 40 32 200 8
ISOR 0.001 0.002 O13
ISOR 0.001 0.002 O11
ISOR 0.001 0.002 O19
ISOR 0.001 0.002 O25
 
L.S. 30 0 0
PLAN  5
list 4
ABIN
omit-2 52
fmap 2 53
acta
OMIT -9 7 8
OMIT -6 2 9
REM <olex2.extras>
REM <HklSrc "%.\\1.hkl">
REM </olex2.extras>
 
WGHT    0.045600  642.203125
FVAR       0.06910
C1    1    0.672837    0.160911    0.496357    11.00000    0.03263    0.06462 =
         0.05467    0.01021    0.01272    0.01688
AFIX  43
H1    2    0.709900    0.128947    0.494507    11.00000   -1.20000
AFIX   0
C2    1    0.670032    0.200773    0.546969    11.00000    0.04933    0.10065 =
         0.04211   -0.00151   -0.00356    0.03831
AFIX  43
H2    2    0.703242    0.191184    0.579529    11.00000   -1.20000
AFIX   0
C3    1    0.618103    0.255045    0.549726    11.00000    0.03337    0.06696 =
         0.04275   -0.01880   -0.00486    0.00794
AFIX  43
H3    2    0.616994    0.286520    0.583074    11.00000   -1.20000
AFIX   0
C4    1    0.567768    0.261397    0.501608    11.00000    0.03318    0.03633 =
         0.03805    0.02078    0.00740    0.00034
C5    1    0.573308    0.216399    0.452923    11.00000    0.03355    0.05438 =
         0.04042    0.02307    0.01244    0.00687
AFIX  43
H5    2    0.539626    0.220913    0.420228    11.00000   -1.20000
AFIX   0
C6    1    0.505318    0.311487    0.500821    11.00000    0.04126    0.04070 =
         0.03478    0.01595    0.00810   -0.00460
C7    1    0.564034    0.464643    0.521921    11.00000    0.02357    0.04296 =
         0.04038   -0.00112    0.00311    0.00246
AFIX  23
H7A   2    0.600236    0.429383    0.515829    11.00000   -1.20000
H7B   2    0.575048    0.486459    0.561124    11.00000   -1.20000
AFIX   0
C8    1    0.448943    0.451818    0.517956    11.00000    0.04042    0.03520 =
         0.04410    0.00364    0.01843    0.00927
AFIX  23
H8A   2    0.454234    0.472573    0.556992    11.00000   -1.20000
H8B   2    0.413009    0.408528    0.508388    11.00000   -1.20000
AFIX   0
CO1   3    0.433322    0.537551    0.232113    11.00000    0.01642    0.01405 =
         0.01995    0.00096    0.00750    0.00228
MO1   4    0.491141    0.694551    0.179725    11.00000    0.03081    0.02447 =
         0.02748    0.00321    0.01290   -0.00259
MO2   4    0.647536    0.699935    0.224427    11.00000    0.02870    0.03138 =
         0.03749    0.00149    0.01475   -0.01143
MO3   4    0.724520    0.536911    0.311820    11.00000    0.01941    0.03191 =
         0.03001   -0.00693    0.00972   -0.00746
MO4   4    0.639233    0.374372    0.357447    11.00000    0.01719    0.02787 =
         0.02359    0.00200    0.00606    0.00400
MO5   4    0.482659    0.384551    0.313359    11.00000    0.01704    0.01917 =
         0.02334    0.00336    0.00732   -0.00004
N1    5    0.625487    0.166078    0.450641    11.00000    0.03730    0.04017 =
         0.03205    0.01092    0.01104    0.01065
N2    5    0.508277    0.404092    0.512281    11.00000    0.02153    0.04056 =
         0.05080   -0.00214    0.01475    0.00384
O1    6    0.434773    0.666871    0.118201    11.00000    0.03879    0.03744 =
         0.04419    0.00574    0.01438    0.00691
O2    6    0.486407    0.814096    0.184083    11.00000    0.06330    0.04655 =
         0.03889    0.00672    0.02641   -0.00186
O3    6    0.571509    0.683145    0.162411    11.00000    0.02316    0.03886 =
         0.03451    0.00117    0.01194   -0.00018
O4    6    0.643499    0.819234    0.236236    11.00000    0.03736    0.05637 =
         0.05761    0.00195    0.00932   -0.00684
O5    6    0.702108    0.691483    0.184621    11.00000    0.04248    0.04776 =
         0.03358   -0.00199    0.00609   -0.01489
O6    6    0.700445    0.666033    0.299298    11.00000    0.03492    0.03226 =
         0.02233   -0.00523    0.01331   -0.02224
O7    6    0.774835    0.523809    0.268273    11.00000    0.02605    0.04570 =
         0.05304   -0.01731    0.01762   -0.01167
O8    6    0.772745    0.547231    0.377909    11.00000    0.03374    0.06820 =
         0.03777   -0.02700    0.00352   -0.01833
O9    6    0.699141    0.407366    0.313762    11.00000    0.02756    0.02788 =
         0.02686   -0.01194    0.01462    0.00033
O10   6    0.685463    0.384964    0.425227    11.00000    0.02049    0.05269 =
         0.02977    0.00245   -0.00071   -0.00362
O11   6    0.633840    0.256843    0.342766    11.00000    0.03256    0.03196 =
         0.03259    0.00060    0.00823    0.00057
O12   6    0.558461    0.397319    0.373165    11.00000    0.02146    0.02807 =
         0.02024    0.01179    0.00749    0.00843
O13   6    0.480890    0.265744    0.306804    11.00000    0.02640    0.02292 =
         0.02753    0.00135    0.00705   -0.00041
O14   6    0.423909    0.413019    0.346070    11.00000    0.03178    0.03276 =
         0.02667    0.00978    0.01412    0.00270
O15   6    0.496744    0.536307    0.299961    11.00000    0.02252    0.02983 =
         0.01414   -0.00964    0.00903    0.00257
O16   6    0.437847    0.406488    0.232312    11.00000    0.02309    0.02160 =
         0.03258    0.00633    0.00767    0.00243
O17   6    0.363403    0.544624    0.266844    11.00000    0.01861    0.03927 =
         0.03058   -0.00358    0.01690    0.00440
O18   6    0.367076    0.526847    0.159292    11.00000    0.01879    0.02013 =
         0.02490    0.00968    0.00815    0.00624
O19   6    0.437138    0.670283    0.234109    11.00000    0.01999    0.01923 =
         0.02005   -0.00016    0.00546    0.00062
O20   6    0.455301    0.267005    0.490138    11.00000    0.02844    0.04731 =
         0.07048   -0.00725    0.00558   -0.00831
O22   6    0.537289    0.101906    0.335851    11.00000    0.06017    0.04525 =
         0.10498   -0.00480   -0.01258    0.00258
AFIX   7
H22A  2    0.528731    0.085415    0.298769    11.00000   -1.50000
H22B  2    0.517007    0.157944    0.333715    11.00000   -1.50000
AFIX   0
O23   6    0.636761    0.056005    0.291710    11.00000    0.08166    0.09547 =
         0.13052   -0.01157    0.05058    0.01146
AFIX   7
H23A  2    0.600150    0.021769    0.273296    11.00000   -1.50000
H23B  2    0.668433    0.009813    0.293194    11.00000   -1.50000
AFIX   0
O24   6    0.728698    0.105836    0.387475    11.00000    0.04833    0.05175 =
         0.11488    0.03932    0.04610    0.03179
AFIX   7
H24A  2    0.741954    0.105812    0.355158    11.00000   -1.50000
H24B  2    0.745282    0.051497    0.403559    11.00000   -1.50000
AFIX   0
O25   6    0.628265   -0.030667    0.399609    11.00000    0.08896    0.08886 =
         0.08990    0.00192    0.02309    0.00098
ZN1   7    0.632619    0.110532    0.372938    11.00000    0.03798    0.04320 =
         0.05576    0.01413    0.02256    0.01550
 
C9    1    0.660707    0.237833    0.212010    11.00000    0.03197    0.05696 =
         0.04418    0.01364    0.01973    0.02132
AFIX  43
H9    2    0.648345    0.211845    0.242752    11.00000   -1.20000
AFIX   0
C10   1    0.639853    0.197033    0.158114    11.00000    0.03540    0.03744 =
         0.03678    0.00168    0.01279    0.00865
AFIX  43
H10   2    0.614222    0.143534    0.151835    11.00000   -1.20000
AFIX   0
C11   1    0.659213    0.240105    0.115328    11.00000    0.03133    0.04523 =
         0.02820   -0.01742    0.00179    0.00723
AFIX  43
H11   2    0.644511    0.216402    0.078549    11.00000   -1.20000
AFIX   0
C12   1    0.699745    0.317568    0.123515    11.00000    0.01617    0.03581 =
         0.02678    0.00136    0.00418    0.00649
C13   1    0.718686    0.350348    0.176943    11.00000    0.02848    0.04045 =
         0.03815   -0.01748    0.00459   -0.01167
AFIX  43
H13   2    0.747211    0.400582    0.184556    11.00000   -1.20000
AFIX   0
C14   1    0.719956    0.365037    0.076678    11.00000    0.03042    0.02555 =
         0.04005   -0.00157    0.01086    0.00777
C15   1    0.774877    0.220599    0.056964    11.00000    0.06246    0.04164 =
         0.03870    0.00093    0.02865    0.01439
AFIX  23
H15A  2    0.768705    0.199558    0.093242    11.00000   -1.20000
H15B  2    0.820657    0.226074    0.060762    11.00000   -1.20000
AFIX   0
C16   1    0.753693    0.351093   -0.010953    11.00000    0.07370    0.02603 =
         0.03895    0.00493    0.03113    0.01846
AFIX  23
H16A  2    0.798958    0.360428   -0.008320    11.00000   -1.20000
H16B  2    0.731766    0.410942   -0.019318    11.00000   -1.20000
AFIX   0
N3    5    0.698012    0.313364    0.219797    11.00000    0.03808    0.04774 =
         0.02615    0.01300    0.00880    0.02736
N4    5    0.744635    0.311623    0.042693    11.00000    0.05478    0.03254 =
         0.03422    0.00090    0.02146    0.01059
O21   6    0.707649    0.447888    0.068909    11.00000    0.04834    0.03524 =
         0.03800   -0.00758    0.01012   -0.00013
HKLF 4
 
REM  1_a.res in C2/c
REM R1 =  0.0921 for    5513 Fo > 4sig(Fo)  and  0.1109 for all    7033 data
REM    472 parameters refined using     24 restraints
 
END  
     
WGHT      0.0443    641.3291 

REM Highest difference peak  3.009,  deepest hole -2.305,  1-sigma level  0.272
Q1    1   0.6411 -0.1603  0.3458  11.00000  0.05    3.01
Q2    1   0.6461  0.7590  0.2234  11.00000  0.05    1.81
Q3    1   0.5303 -0.0266  0.2326  11.00000  0.05    1.71
Q4    1   0.4977  0.7597  0.1775  11.00000  0.05    1.62
Q5    1   0.5626  0.1082  0.3001  11.00000  0.05    1.45

  REM The information below was added by Olex2.
  REM
  REM R1 = 0.0921 for 5513 Fo > 4sig(Fo) and 0.1109 for all 20887 data
  REM n/a parameters refined using n/a restraints
  REM Highest difference peak 3.01, deepest hole -2.31
  REM Mean Shift 0, Max Shift -0.001.

  REM +++ Tabular Listing of Refinement Information +++
  REM R1_all = 0.1109
  REM R1_gt = 0.0921
  REM wR_ref = 0.2129
  REM GOOF = 1.091
  REM Shift_max = -0.001
  REM Shift_mean = 0
  REM Reflections_all = 20887
  REM Reflections_gt = 5513
  REM Parameters = n/a
  REM Hole = -2.31
  REM Peak = 3.01
  REM Flack = n/a

  
;
_cod_data_source_file            c9dt00499h2.cif
_cod_data_source_block           1_CCDC1
_cod_depositor_comments
'Adding full bibliography for 7049549--7049550.cif.'
_cod_original_cell_volume        7187.6(12)
_cod_database_code               7049550
_shelx_shelxl_version_number     2014/7
_shelx_space_group_comment
;
The symmetry employed for this shelxl refinement is uniquely defined
by the following loop, which should always be used as a source of
symmetry information in preference to the above space-group names.
They are only intended as comments.
;
_olex2_refinement_description
;
1. Fixed Uiso
 At 1.2 times of:
  All C(H) groups, All C(H,H) groups
 At 1.5 times of:
  All O(H,H) groups
2. Uiso/Uaniso restraints and constraints
Uanis(O13) \\sim Ueq: with sigma of 0.001 and sigma for terminal atoms of 0.002
Uanis(O11) \\sim Ueq: with sigma of 0.001 and sigma for terminal atoms of 0.002
Uanis(O19) \\sim Ueq: with sigma of 0.001 and sigma for terminal atoms of 0.002
Uanis(O25) \\sim Ueq: with sigma of 0.001 and sigma for terminal atoms of 0.002
3.a Rotating group:
 O22(H22A,H22B), O23(H23A,H23B), O24(H24A,H24B)
3.b Secondary CH2 refined with riding coordinates:
 C7(H7A,H7B), C8(H8A,H8B), C15(H15A,H15B), C16(H16A,H16B)
3.c Aromatic/amide H refined with riding coordinates:
 C1(H1), C2(H2), C3(H3), C5(H5), C9(H9), C10(H10), C11(H11), C13(H13)
;
_shelx_fab_file
;
-29 1 9 0.0093 0.1856
-29 1 10 9.2512 0.0595
-29 3 9 4.4726 0.0975
-29 3 10 3.7019 -0.3544
-29 3 11 4.1445 0.0902
-29 3 12 0.1939 -0.4160
-29 3 13 -1.4852 0.0492
-29 5 10 1.1858 -0.7995
-29 5 11 6.3315 -0.0323
-28 0 6 9.1492 0.4220
-28 0 8 -6.1893 -0.2730
-28 2 6 7.4315 0.1753
-28 2 7 2.3878 -0.1253
-28 2 8 -4.1057 -0.3351
-28 2 9 -3.6538 -0.0845
-28 2 10 -7.8586 0.2067
-28 2 11 -1.1879 0.0599
-28 2 12 -1.7081 0.1869
-28 4 6 6.1556 -0.2131
-28 4 7 -0.9814 -0.0463
-28 4 8 2.4668 0.1195
-28 4 9 -10.0237 -0.1654
-28 4 10 -4.0915 0.6886
-28 4 11 -5.4237 -0.1197
-28 4 12 0.5689 0.2716
-28 4 13 3.6155 -0.3973
-28 6 8 6.0764 0.3031
-28 6 9 -2.0517 0.0160
-28 6 10 -0.6838 0.6190
-28 6 11 -5.8650 -0.0070
-28 6 12 -0.1770 0.4346
-27 1 2 10.8865 1.2652
-27 1 3 -3.1180 -0.0283
-27 1 4 -7.4750 0.2351
-27 1 5 -3.0849 0.0285
-27 1 6 -4.8798 -0.3439
-27 1 7 -1.7094 0.2496
-27 1 8 8.8900 0.3727
-27 1 9 0.9290 0.0093
-27 1 10 10.1253 -0.1967
-27 1 11 -0.9384 -0.1664
-27 1 12 5.0423 0.0581
-27 1 13 -0.0492 -0.0534
-27 3 3 -3.5441 0.0624
-27 3 4 -5.7498 0.0041
-27 3 5 -4.8435 -0.1500
-27 3 6 -3.6499 0.0578
-27 3 7 1.7468 -0.0159
-27 3 8 4.9969 0.1805
-27 3 9 8.9591 0.0779
-27 3 10 6.2640 -0.3919
-27 3 11 -0.1027 -0.0602
-27 3 12 -0.4599 0.0320
-27 3 13 -3.4288 0.0197
-27 3 14 -1.7513 0.2968
-27 5 4 0.4874 0.2794
-27 5 5 -0.8150 -0.1585
-27 5 6 -8.0263 0.0917
-27 5 7 1.6654 0.2798
-27 5 8 -4.3974 -0.3464
-27 5 9 9.4260 0.0773
-27 5 10 4.0977 -0.6307
-27 5 11 3.5000 0.1816
-27 5 12 -1.8320 -0.1416
-27 5 13 -5.4095 0.8216
-27 7 6 -2.1549 0.0289
-27 7 7 -6.8443 0.3155
-27 7 8 -6.3798 0.1309
-27 7 9 -2.5307 -0.2928
-27 7 10 -1.0900 -0.3165
-27 7 11 3.6117 0.1705
-26 0 2 -5.2369 -1.7179
-26 0 4 8.6185 0.0594
-26 0 6 1.9018 0.3475
-26 0 8 -8.5533 -0.2237
-26 0 10 -9.7884 0.2108
-26 0 12 -6.5107 -0.2528
-26 0 14 -0.5095 -0.1186
-26 0 16 -1.7702 0.0754
-26 0 18 -1.8928 -0.1237
-26 0 20 2.0518 -0.1514
-26 0 22 -1.6604 0.1304
-26 2 1 3.6102 0.0324
-26 2 2 -0.8580 -0.8915
-26 2 3 6.4541 -0.1366
-26 2 4 5.8954 0.1726
-26 2 5 4.9610 0.0237
-26 2 6 -1.7000 0.0261
-26 2 7 -0.6450 -0.0110
-26 2 8 -9.0135 -0.3154
-26 2 9 -2.6708 0.0601
-26 2 10 -7.1755 0.2740
-26 2 11 2.9441 0.2164
-26 2 12 -2.6565 -0.1805
-26 2 13 0.0411 0.1211
-26 2 14 0.1762 -0.2399
-26 2 15 -0.3673 0.0458
-26 2 16 1.0864 -0.1695
-26 2 17 0.7978 -0.2487
-26 2 18 1.6638 -0.3266
-26 2 19 -3.3293 0.0034
-26 2 20 0.3242 -0.0784
-26 2 21 1.3755 0.4676
-26 2 22 -2.2712 0.3320
-26 4 1 -6.3807 -0.1329
-26 4 2 0.2897 -0.0188
-26 4 3 4.5102 0.0380
-26 4 4 2.7370 -0.0312
-26 4 5 3.9321 0.2586
-26 4 6 4.1676 -0.1214
-26 4 7 -5.1630 -0.0317
-26 4 8 -3.4034 0.0447
-26 4 9 -9.1496 -0.0083
-26 4 10 -4.9135 0.3239
-26 4 11 3.4567 0.0343
-26 4 12 2.8051 -0.1670
-26 4 13 4.8439 -0.2777
-26 4 14 1.7067 -0.2364
-26 4 15 -1.6536 -0.1188
-26 4 16 2.9614 -0.1441
-26 6 2 -6.9781 -0.1364
-26 6 3 -1.1327 0.1140
-26 6 4 -2.2438 -0.2321
-26 6 5 -0.1993 -0.2115
-26 6 6 10.9435 0.0206
-26 6 7 3.9683 -0.2687
-26 6 8 5.5947 0.1484
-26 6 9 -4.0659 0.1045
-26 6 10 -2.4560 0.4643
-26 6 11 -0.7084 -0.2898
-26 6 12 2.4706 0.0908
-26 6 13 6.4378 -0.8503
-26 8 5 -0.1846 -0.1560
-26 8 6 -1.6590 -0.2864
-26 8 7 10.1575 0.2939
-26 8 8 3.6680 -0.5289
-26 8 9 2.1207 0.3516
-26 8 10 -0.2059 0.2213
-26 8 11 -1.0395 -0.0886
-26 10 8 -2.9678 -0.6467
-25 1 1 -4.7931 0.0148
-25 1 2 -1.1307 1.3274
-25 1 3 -3.7117 0.0962
-25 1 4 -4.6537 -0.4431
-25 1 5 -1.8922 0.0240
-25 1 6 1.4983 -0.0852
-25 1 7 -0.4100 0.0983
-25 1 8 6.2410 0.1102
-25 1 9 -0.3383 -0.0753
-25 1 10 7.6554 -0.3048
-25 1 11 -0.8293 -0.0746
-25 1 12 4.1643 0.1869
-25 1 13 1.0898 -0.0312
-25 1 14 0.8051 0.0944
-25 1 15 -0.9611 -0.0792
-25 1 16 4.4554 0.0251
-25 1 17 0.6560 0.1431
-25 1 18 1.4806 0.2203
-25 1 19 2.7482 -0.1657
-25 1 20 -2.3945 0.2120
-25 1 21 -2.6279 -0.5204
-25 1 22 1.6158 -0.2942
-25 1 23 -2.8626 -0.7206
-25 1 24 0.4215 -0.0876
-25 3 1 -2.5364 -0.0379
-25 3 2 -2.5216 0.2482
-25 3 3 -9.0607 0.0928
-25 3 4 0.0181 -0.2870
-25 3 5 -3.7594 -0.2672
-25 3 6 4.2660 0.2210
-25 3 7 3.8317 -0.0315
-25 3 8 7.1116 0.1647
-25 3 9 2.2395 -0.1047
-25 3 10 4.0494 -0.1697
-25 3 11 -5.2670 -0.2660
-25 3 12 -0.2992 0.2011
-25 3 13 -0.0719 -0.0967
-25 3 14 0.0947 0.1052
-25 3 15 1.0751 -0.1247
-25 3 16 -2.6788 0.0901
-25 3 17 2.0485 0.0575
-25 3 18 -3.3772 0.1424
-25 3 19 6.1763 -0.0414
-25 3 20 1.8138 0.0100
-25 3 21 -0.2542 -0.3130
-25 3 22 2.6412 -0.3440
-25 3 23 -0.7140 -0.6327
-25 3 24 -0.8360 -0.3354
-25 5 1 7.2463 0.0871
-25 5 2 6.0335 0.1167
-25 5 3 -4.0568 -0.0616
-25 5 4 -2.1845 0.0566
-25 5 5 -2.2736 -0.1261
-25 5 6 -9.0284 0.0704
-25 5 7 1.3184 0.0628
-25 5 8 1.0465 -0.0804
-25 5 9 4.2006 -0.1345
-25 5 10 2.4847 -0.2245
-25 5 11 -6.5435 0.0578
-25 5 12 -4.2947 0.1632
-25 5 13 -4.7159 0.3826
-25 5 14 -1.1038 0.2330
-25 5 15 5.3027 0.0571
-25 5 16 -3.1949 0.0454
-25 5 17 4.5839 0.0077
-25 5 18 -2.8645 -0.1613
-25 5 19 5.9068 -0.2623
-25 5 20 3.0933 -0.2526
-25 5 21 3.8020 -0.5385
-25 7 1 1.5080 -0.1168
-25 7 2 10.7931 0.1201
-25 7 3 2.5323 0.0870
-25 7 4 2.1999 -0.0476
-25 7 5 -0.7630 0.2255
-25 7 6 -8.2356 0.1597
-25 7 7 -8.9059 -0.0167
-25 7 8 -3.6991 0.0861
-25 7 9 3.0649 -0.1318
-25 7 10 2.5570 -0.3975
-25 7 11 -0.8973 0.1813
-25 7 12 0.5056 0.0092
-25 7 13 -4.9247 0.4771
-25 9 4 8.7892 -0.1150
-25 9 5 -1.8484 -0.4396
-25 9 6 6.8663 0.5647
-25 9 7 -5.5006 -0.5981
-25 9 8 1.1952 0.4466
-25 9 9 2.2102 -0.3212
-25 9 10 5.6619 -0.1330
-25 9 11 -2.6283 -0.2597
-24 0 2 1.0734 -1.1774
-24 0 4 2.9346 0.5705
-24 0 6 1.8557 0.0241
-24 0 8 -3.0203 0.1223
-24 0 10 -6.6171 0.2545
-24 0 12 -1.3883 -0.1373
-24 0 14 -3.7875 -0.0194
-24 0 16 -10.6548 0.1052
-24 0 18 -0.4333 -0.1416
-24 0 20 4.7898 -0.2278
-24 0 22 -2.1014 0.2791
-24 0 24 -1.0902 -0.1925
-24 2 1 7.7555 0.0214
-24 2 2 1.9952 -0.4316
-24 2 3 4.9972 -0.2076
-24 2 4 -3.0957 0.4915
-24 2 5 1.1188 0.1299
-24 2 6 -3.9460 -0.2090
-24 2 7 -0.3574 -0.1050
-24 2 8 -4.0366 -0.0012
-24 2 9 -0.0154 0.0668
-24 2 10 -4.2932 0.2787
-24 2 11 0.3489 0.1701
-24 2 12 -1.3035 -0.0355
-24 2 13 -0.9668 0.1176
-24 2 14 -1.9693 0.0483
-24 2 15 1.9355 0.1262
-24 2 16 -2.3580 0.0564
-24 2 17 -3.9889 -0.0661
-24 2 18 1.2381 -0.1899
-24 2 19 -4.5615 0.0085
-24 2 20 0.0497 -0.1898
-24 2 21 5.1451 0.2316
-24 2 22 -2.2774 0.3634
-24 2 23 3.5216 0.5638
-24 2 24 0.1537 0.1084
-24 2 25 2.0277 0.5197
-24 4 1 2.0828 -0.0460
-24 4 2 -2.5504 0.0778
-24 4 3 8.8328 0.0345
-24 4 4 -1.7194 0.1841
-24 4 5 2.0419 0.3450
-24 4 6 -0.1311 -0.2392
-24 4 7 -1.6389 -0.0237
-24 4 8 -3.7316 -0.0813
-24 4 9 1.3379 0.1948
-24 4 10 -0.6267 0.0410
-24 4 11 7.5372 0.1884
-24 4 12 1.9075 -0.1306
-24 4 13 -0.7028 -0.0099
-24 4 14 -0.7198 -0.0549
-24 4 15 -4.4132 0.1379
-24 4 16 4.2769 0.0266
-24 4 17 -4.7862 0.0358
-24 4 18 2.1582 0.0645
-24 4 19 -6.1484 0.0927
-24 4 20 -3.5293 0.0299
-24 4 21 -0.6432 0.2453
-24 4 22 -1.7975 0.3462
-24 4 23 -1.2592 0.4143
-24 4 24 -0.7385 0.4165
-24 4 25 0.1558 0.2282
-24 6 1 -3.0402 0.0080
-24 6 2 -10.8411 -0.0982
-24 6 3 0.3170 -0.0835
-24 6 4 4.4977 0.0170
-24 6 5 1.9247 0.0366
-24 6 6 10.0577 -0.1123
-24 6 7 3.9245 -0.0070
-24 6 8 -0.6461 0.0712
-24 6 9 -2.4114 0.1855
-24 6 10 -1.4095 0.2289
-24 6 11 6.9139 -0.0240
-24 6 12 2.9454 -0.1481
-24 6 13 2.0841 -0.2213
-24 6 14 0.9955 -0.1617
-24 6 15 -7.3997 -0.0202
-24 6 16 1.9734 0.0786
-24 6 17 -1.7685 0.0591
-24 6 18 -1.9253 0.1304
-24 6 19 -3.7250 0.4723
-24 6 20 -3.4232 0.1962
-24 6 21 -3.2948 0.4946
-24 6 22 -0.4245 0.4645
-24 6 23 -2.2576 0.0674
-24 8 1 1.9257 0.0576
-24 8 2 -8.6947 0.2192
-24 8 3 -1.9227 -0.1270
-24 8 4 -4.1991 0.0934
-24 8 5 1.6397 0.1476
-24 8 6 0.9982 -0.3166
-24 8 7 4.1809 0.1005
-24 8 8 -0.4355 -0.0432
-24 8 9 -6.5192 0.1224
-24 8 10 -5.8088 0.2503
-24 8 11 2.6799 0.0954
-24 8 12 -3.4337 -0.0740
-24 8 13 0.1059 -0.2654
-24 10 9 -2.1999 0.4112
-24 10 10 -7.6525 0.0346
-23 1 1 -3.9102 0.0931
-23 1 2 1.9682 0.5671
-23 1 3 0.8058 0.1302
-23 1 4 1.2701 -0.4049
-23 1 5 -0.2084 -0.0527
-23 1 6 -2.1501 0.1693
-23 1 7 0.0102 0.1851
-23 1 8 2.2877 -0.2097
-23 1 9 2.7092 0.0493
-23 1 10 3.4747 -0.3468
-23 1 11 1.9957 0.0720
-23 1 12 -0.7143 -0.0583
-23 1 13 -1.7511 -0.0606
-23 1 14 7.7289 -0.0723
-23 1 15 -2.1769 -0.1088
-23 1 16 9.0743 -0.1964
-23 1 17 4.0816 0.1114
-23 1 18 -3.3526 0.2222
-23 1 19 0.7941 0.1116
-23 1 20 -2.9026 0.1770
-23 1 21 -5.4050 -0.0651
-23 1 22 2.8342 -0.3509
-23 1 23 -2.5276 -0.2574
-23 1 24 -0.1962 0.1649
-23 1 25 -1.4670 -0.3877
-23 3 1 -7.7598 0.1150
-23 3 2 2.3729 -0.1870
-23 3 3 -3.9078 0.0705
-23 3 4 7.2327 -0.2908
-23 3 5 -0.9529 -0.1879
-23 3 6 1.5941 0.2890
-23 3 7 -0.7943 0.2422
-23 3 8 0.8696 0.0154
-23 3 9 -0.5021 -0.0958
-23 3 10 1.2379 -0.1585
-23 3 11 -1.1946 -0.1613
-23 3 12 1.1046 -0.0960
-23 3 13 1.0037 -0.0467
-23 3 14 2.0914 -0.1152
-23 3 15 0.5887 -0.0632
-23 3 16 -2.9439 -0.1500
-23 3 17 6.3159 0.0719
-23 3 18 -1.8070 0.1144
-23 3 19 2.6734 0.1301
-23 3 20 2.0772 0.1384
-23 3 21 -5.2790 -0.0799
-23 3 22 1.4985 -0.3536
-23 3 23 -1.4630 -0.3875
-23 3 24 0.9912 -0.1218
-23 3 25 -2.5597 -0.2456
-23 5 1 -3.2284 0.1299
-23 5 2 6.7390 -0.1284
-23 5 3 -3.9342 -0.0637
-23 5 4 -1.9149 -0.0741
-23 5 5 -1.5029 -0.2686
-23 5 6 -4.1443 0.1565
-23 5 7 -2.6797 0.0387
-23 5 8 1.8270 0.0180
-23 5 9 -3.3481 -0.2552
-23 5 10 -0.9991 -0.0431
-23 5 11 -7.9957 -0.1040
-23 5 12 -1.9901 0.0815
-23 5 13 3.1087 0.0399
-23 5 14 0.3745 0.0699
-23 5 15 6.0433 -0.0745
-23 5 16 -2.9824 -0.1203
-23 5 17 2.5786 -0.0606
-23 5 18 1.5357 -0.1114
-23 5 19 4.5693 -0.1727
-23 5 20 1.6788 -0.0248
-23 5 21 1.6660 -0.1514
-23 5 22 -0.1651 -0.3737
-23 5 23 2.4057 -0.1331
-23 5 24 2.3088 -0.3837
-23 5 25 1.5132 -0.0445
-23 7 1 -0.7810 0.0818
-23 7 2 7.9021 -0.1087
-23 7 3 3.1503 0.0981
-23 7 4 -3.7491 -0.0019
-23 7 5 -0.3613 -0.0977
-23 7 6 -4.8467 0.1165
-23 7 7 -0.6174 0.0802
-23 7 8 2.4848 -0.1324
-23 7 9 5.5424 -0.1916
-23 7 10 2.9588 -0.1485
-23 7 11 -5.1107 -0.1223
-23 7 12 -0.9417 0.1192
-23 7 13 2.1526 0.1037
-23 7 14 -1.4568 0.0033
-23 7 15 3.2127 0.0223
-23 7 16 0.0864 0.0080
-23 7 17 -6.0799 -0.1291
-23 7 18 2.9193 0.0928
-23 7 19 2.7064 -0.4112
-23 7 20 0.0363 -0.2477
-23 7 21 3.0215 -0.2542
-23 7 22 -0.4664 -0.4938
-23 7 23 2.0384 -0.0536
-23 7 24 0.2294 -0.1467
-23 9 1 -3.0989 0.1506
-23 9 2 5.2837 -0.3137
-23 9 3 -3.4320 -0.1016
-23 9 4 3.9944 0.0265
-23 9 5 0.2296 -0.2445
-23 9 6 1.4619 0.1703
-23 9 7 4.2901 0.0593
-23 9 8 2.8767 0.0052
-23 9 9 4.8825 -0.2377
-23 9 10 4.9725 -0.0891
-23 9 11 -5.7284 -0.0895
-23 9 12 -0.2622 -0.0152
-23 9 13 4.9640 0.3141
-23 9 14 -2.3940 -0.0182
-22 0 2 -6.5647 -0.6546
-22 0 4 -0.1346 0.0784
-22 0 6 2.3480 -0.2565
-22 0 8 -4.2078 0.1269
-22 0 10 0.3394 0.2451
-22 0 12 1.1461 -0.0075
-22 0 14 -14.6666 -0.0070
-22 0 16 -8.4423 0.2902
-22 0 18 6.9336 -0.2114
-22 0 20 1.7703 -0.0139
-22 0 22 -2.5918 0.2623
-22 0 24 2.5583 -0.2939
-22 2 1 2.8446 -0.2152
-22 2 2 -6.2197 -0.1104
-22 2 3 -2.7631 -0.1155
-22 2 4 -5.6353 0.1214
-22 2 5 2.2146 -0.0346
-22 2 6 2.6963 -0.2708
-22 2 7 -1.4621 -0.3624
-22 2 8 -0.8745 0.1053
-22 2 9 -6.7171 -0.0369
-22 2 10 -1.7056 0.2960
-22 2 11 -1.5569 -0.0039
-22 2 12 -1.6679 0.1377
-22 2 13 4.3762 -0.0007
-22 2 14 -7.0719 0.1035
-22 2 15 0.9321 -0.0085
-22 2 16 -0.2721 0.2347
-22 2 17 -6.4389 -0.1500
-22 2 18 4.0395 -0.2559
-22 2 19 2.7319 -0.2549
-22 2 20 -0.3534 -0.0929
-22 2 21 7.5538 -0.0427
-22 2 22 -1.4983 0.3154
-22 2 23 1.7381 0.1269
-22 2 24 0.6206 -0.1750
-22 2 25 2.6051 0.2238
-22 4 1 5.9032 -0.2423
-22 4 2 -5.7385 0.3183
-22 4 3 0.4045 0.0893
-22 4 4 -4.9255 0.1285
-22 4 5 1.9654 0.1085
-22 4 6 3.2493 -0.1962
-22 4 7 3.3764 -0.2696
-22 4 8 0.6932 -0.0691
-22 4 9 2.7639 0.1441
-22 4 10 -0.3498 0.1129
-22 4 11 2.8307 0.0559
-22 4 12 -1.3779 0.1174
-22 4 13 -3.6270 -0.0610
-22 4 14 -0.4219 0.0522
-22 4 15 -3.2044 -0.0311
-22 4 16 4.6405 0.1928
-22 4 17 -4.0967 -0.0744
-22 4 18 0.0469 -0.0789
-22 4 19 -0.7196 -0.1421
-22 4 20 0.5083 -0.1077
-22 4 21 2.3758 0.0277
-22 4 22 -0.3708 0.3045
-22 4 23 -0.8738 0.2163
-22 4 24 -4.1196 0.1088
-22 4 25 1.7679 0.0989
-22 4 26 -3.8196 0.3278
-22 6 1 3.4535 -0.2110
-22 6 2 -4.3873 0.0944
-22 6 3 -3.3040 0.0958
-22 6 4 3.4213 -0.0153
-22 6 5 -0.9905 0.1436
-22 6 6 2.4906 -0.0405
-22 6 7 0.9930 -0.0922
-22 6 8 -3.4966 0.0509
-22 6 9 0.7402 0.2686
-22 6 10 0.3016 0.0453
-22 6 11 5.3403 0.1090
-22 6 12 2.2205 -0.0697
-22 6 13 -4.4197 -0.0355
-22 6 14 0.3102 -0.0480
-22 6 15 0.1828 -0.0099
-22 6 16 0.0683 0.0866
-22 6 17 2.9308 0.0950
-22 6 18 -1.9934 0.0075
-22 6 19 -5.7791 0.1616
-22 6 20 2.6316 0.0729
-22 6 21 -3.3283 0.0029
-22 6 22 0.2361 0.3467
-22 6 23 -4.1487 0.0701
-22 6 24 -2.5773 0.1365
-22 6 25 -3.6571 0.1955
-22 6 26 -1.1417 0.0080
-22 8 1 3.9669 -0.1793
-22 8 2 -1.3627 0.1470
-22 8 3 -1.8199 0.0852
-22 8 4 2.4194 -0.0309
-22 8 5 -4.3908 0.0066
-22 8 6 1.2072 0.0291
-22 8 7 -6.5941 -0.2038
-22 8 8 -2.5346 0.0776
-22 8 9 -5.1821 0.2429
-22 8 10 -1.2733 0.0096
-22 8 11 3.5412 0.0738
-22 8 12 1.7511 -0.0170
-22 8 13 -5.2056 -0.1150
-22 8 14 0.6522 -0.0060
-22 8 15 4.2620 0.0677
-22 8 16 -0.5105 -0.2268
-22 8 17 9.8268 0.0832
-22 8 18 1.4352 -0.1066
-22 8 19 -4.5973 0.1299
-22 8 20 2.7961 0.3466
-22 8 21 -2.1483 0.2138
-22 8 22 -0.5940 0.2234
-22 8 23 -3.3146 0.4212
-22 8 24 0.1942 -0.2464
-22 10 1 7.2294 -0.1235
-22 10 2 -1.4877 0.1239
-22 10 3 9.7010 0.1535
-22 10 4 5.3636 0.0563
-22 10 5 -1.9877 -0.0602
-22 10 6 2.4984 -0.0543
-22 10 7 -5.3752 -0.0879
-22 10 8 -1.2070 -0.0871
-22 10 9 2.0792 0.2330
-22 10 10 4.2452 0.1877
-22 10 11 6.9596 -0.1570
-22 10 12 7.4156 0.0265
-22 10 13 -8.0798 -0.1940
-22 10 14 1.1711 -0.2742
-21 1 1 1.9160 0.2204
-21 1 2 9.8601 0.6626
-21 1 3 1.3204 -0.0290
-21 1 4 3.2939 0.1102
-21 1 5 -2.9140 -0.0020
-21 1 6 0.2373 0.3379
-21 1 7 4.9603 0.1885
-21 1 8 4.5066 0.0127
-21 1 9 7.4641 0.0538
-21 1 10 -1.9992 -0.2213
-21 1 11 -1.0938 0.0788
-21 1 12 3.1727 0.0711
-21 1 13 -5.5217 -0.0370
-21 1 14 13.6786 -0.0041
-21 1 15 0.0524 -0.0571
-21 1 16 0.1480 -0.2748
-21 1 17 2.9288 0.1434
-21 1 18 -5.5291 0.2964
-21 1 19 -4.0445 0.2503
-21 1 20 1.1445 -0.0513
-21 1 21 -3.7780 0.1639
-21 1 22 -0.1883 -0.2105
-21 1 23 -0.2207 0.1870
-21 1 24 -4.1433 0.2534
-21 1 25 -0.5535 -0.2243
-21 1 26 1.1425 -0.2305
-21 1 27 2.4540 -0.4570
-21 3 1 0.6204 0.2410
-21 3 2 9.3275 -0.0516
-21 3 3 2.8619 -0.0200
-21 3 4 5.5833 -0.0222
-21 3 5 -4.7422 0.1415
-21 3 6 -6.7701 0.2699
-21 3 7 2.2093 0.3753
-21 3 8 0.3089 0.0590
-21 3 9 5.1187 -0.0291
-21 3 10 3.2506 -0.2275
-21 3 11 -1.1740 0.0177
-21 3 12 4.1093 -0.0803
-21 3 13 -2.0126 0.1111
-21 3 14 1.9191 -0.0240
-21 3 15 1.8063 0.0995
-21 3 16 -5.6210 -0.1980
-21 3 17 3.6480 0.1354
-21 3 18 -2.1146 0.2480
-21 3 19 -5.1600 0.2431
-21 3 20 -1.2684 0.0355
-21 3 21 -4.0210 0.0046
-21 3 22 0.3939 -0.2052
-21 3 23 0.3192 -0.1069
-21 3 24 2.4630 0.1874
-21 3 25 -2.3494 -0.1636
-21 3 26 4.4949 -0.3141
-21 3 27 2.7883 -0.4270
-21 3 28 3.2517 -0.2256
-21 5 1 -2.3794 0.2759
-21 5 2 5.1086 -0.1735
-21 5 3 6.1846 -0.1551
-21 5 4 2.3919 -0.0697
-21 5 5 -0.1714 0.0254
-21 5 6 -2.7154 0.0733
-21 5 7 -3.2475 0.2112
-21 5 8 2.9618 0.0630
-21 5 9 -3.4521 -0.1625
-21 5 10 0.0100 -0.1197
-21 5 11 -2.1201 -0.0021
-21 5 12 -0.7276 -0.0391
-21 5 13 4.5501 0.1009
-21 5 14 -0.6174 0.0192
-21 5 15 -0.7277 0.0882
-21 5 16 -2.1559 -0.1750
-21 5 17 1.0747 0.0211
-21 5 18 -0.6816 0.1086
-21 5 19 3.5597 0.1071
-21 5 20 -4.8937 0.0724
-21 5 21 1.4672 0.0325
-21 5 22 2.1305 -0.2412
-21 5 23 2.8996 -0.1250
-21 5 24 5.9596 -0.0507
-21 5 25 -0.1116 -0.1117
-21 5 26 4.5747 -0.2439
-21 5 27 0.5484 -0.3556
-21 7 1 -4.0413 0.1646
-21 7 2 -1.3371 0.0258
-21 7 3 7.7372 -0.1794
-21 7 4 -1.9576 0.0155
-21 7 5 6.1366 0.0531
-21 7 6 1.0845 -0.0766
-21 7 7 3.9540 0.1426
-21 7 8 4.3279 0.0025
-21 7 9 2.0309 -0.2585
-21 7 10 -1.4204 0.0109
-21 7 11 -1.6969 -0.0731
-21 7 12 -2.1309 0.0237
-21 7 13 1.9136 0.0416
-21 7 14 0.4155 0.0411
-21 7 15 -9.9184 0.0030
-21 7 16 -0.1084 0.0366
-21 7 17 -3.9389 -0.0932
-21 7 18 -2.3231 0.0276
-21 7 19 9.4851 -0.0196
-21 7 20 -4.5852 -0.1493
-21 7 21 4.8258 -0.0028
-21 7 22 1.6387 -0.1381
-21 7 23 7.3878 -0.3402
-21 7 24 1.6629 0.1787
-21 7 25 3.4085 -0.4647
-21 7 26 1.8426 0.1467
-21 9 1 -10.1088 0.0729
-21 9 2 -5.4292 -0.0148
-21 9 3 -2.1684 -0.1115
-21 9 4 -7.5635 -0.0811
-21 9 5 7.9016 0.2070
-21 9 6 -2.6640 -0.0716
-21 9 7 6.5633 0.1180
-21 9 8 -2.1657 0.0546
-21 9 9 -0.9407 -0.1835
-21 9 10 -6.5275 -0.0448
-21 9 11 -1.9951 0.1185
-21 9 12 -2.9866 0.0015
-21 9 13 7.4137 0.0137
-21 9 14 1.5270 0.1564
-21 9 15 -6.3427 -0.1140
-21 9 16 -0.8132 0.1939
-21 9 17 -5.4028 0.1216
-21 9 18 -3.9249 -0.0699
-21 9 19 6.1392 0.0012
-21 9 20 -1.2585 -0.2120
-21 9 21 0.4060 -0.4336
-21 9 22 0.6843 0.1414
-21 9 23 4.1908 -0.6256
-21 9 24 -1.2967 0.2813
-21 11 1 -12.5397 0.0208
-21 11 2 -5.1782 -0.0920
-21 11 3 -10.8278 0.0693
-21 11 4 -17.0268 -0.1977
-21 11 5 0.6262 0.2050
-21 11 6 -3.5123 0.1846
-21 11 7 2.7148 0.0237
-21 11 8 -1.6504 0.0070
-21 11 9 -3.4598 -0.0259
-21 11 10 -12.5231 -0.3389
-21 11 11 -2.8762 0.1031
-21 11 12 -8.5680 0.1281
-21 11 13 10.8521 -0.0225
-20 0 2 -11.4752 -0.8335
-20 0 4 -6.9083 -0.0083
-20 0 6 -6.7817 -0.4728
-20 0 8 -4.9167 -0.2170
-20 0 10 5.2238 0.1219
-20 0 12 -7.0377 -0.2660
-20 0 14 -13.0341 -0.0211
-20 0 16 2.9163 0.2600
-20 0 18 1.4470 -0.2820
-20 0 20 -2.3335 0.1189
-20 0 22 3.6772 0.1036
-20 0 24 5.7347 -0.1407
-20 0 26 -1.8981 0.1308
-20 0 28 0.4039 -0.5219
-20 2 1 -4.5963 -0.1373
-20 2 2 -12.7824 -0.4734
-20 2 3 2.8423 0.0632
-20 2 4 -4.3027 -0.0226
-20 2 5 5.3130 -0.0252
-20 2 6 3.4020 -0.4016
-20 2 7 -11.0056 -0.1470
-20 2 8 -4.0297 -0.1306
-20 2 9 -8.5512 0.0144
-20 2 10 -1.8594 0.1401
-20 2 11 4.9100 -0.0204
-20 2 12 -6.8018 -0.2090
-20 2 13 6.0791 -0.0529
-20 2 14 -4.8652 -0.0497
-20 2 15 -1.4345 0.0054
-20 2 16 5.8371 0.1883
-20 2 17 -0.7550 -0.0568
-20 2 18 1.3100 -0.2962
-20 2 19 6.7096 -0.1656
-20 2 20 0.3144 0.0882
-20 2 21 1.5074 -0.0992
-20 2 22 2.1475 0.0862
-20 2 23 -1.3455 -0.1069
-20 2 24 1.8272 -0.2896
-20 2 25 -0.9448 0.2251
-20 2 26 -3.4518 0.2282
-20 2 27 -5.8893 0.3342
-20 2 28 -1.1773 -0.0072
-20 2 29 -2.0052 0.0427
-20 4 1 -4.5784 -0.1791
-20 4 2 -10.8047 0.0357
-20 4 3 -5.8468 0.0801
-20 4 4 -3.2500 0.0597
-20 4 5 2.9044 -0.1912
-20 4 6 6.6551 -0.2388
-20 4 7 -0.8276 -0.2559
-20 4 8 -4.8432 -0.0963
-20 4 9 0.2527 0.0765
-20 4 10 -3.0848 0.1972
-20 4 11 1.4536 -0.0132
-20 4 12 -2.1444 -0.0456
-20 4 13 -1.4049 -0.1352
-20 4 14 1.4895 -0.0602
-20 4 15 -0.4450 -0.1026
-20 4 16 5.0515 0.1515
-20 4 17 -1.2880 -0.0608
-20 4 18 2.7956 -0.2282
-20 4 19 1.6316 -0.1638
-20 4 20 5.1054 -0.0301
-20 4 21 -0.6787 0.0328
-20 4 22 -2.8431 0.0963
-20 4 23 -1.4468 0.0912
-20 4 24 -5.4425 -0.1208
-20 4 25 0.7426 0.0764
-20 4 26 -6.2010 0.4021
-20 4 27 -3.4267 0.2942
-20 4 28 -3.3673 0.3954
-20 6 1 -0.5826 -0.1759
-20 6 2 -2.0517 -0.0200
-20 6 3 -12.6824 0.1318
-20 6 4 -3.1772 0.0926
-20 6 5 -3.5113 -0.1633
-20 6 6 -3.4595 -0.0026
-20 6 7 0.9372 -0.1485
-20 6 8 -6.9894 -0.0594
-20 6 9 0.7415 0.1478
-20 6 10 2.7713 0.0928
-20 6 11 0.2377 0.0054
-20 6 12 2.1857 -0.0238
-20 6 13 0.7781 -0.1003
-20 6 14 0.0411 -0.0269
-20 6 15 7.9144 -0.0756
-20 6 16 1.6359 0.1073
-20 6 17 -3.1074 0.0414
-20 6 18 4.1651 -0.1282
-20 6 19 -8.8530 -0.1424
-20 6 20 5.0115 -0.0007
-20 6 21 -4.6612 -0.0771
-20 6 22 -5.1136 0.1490
-20 6 23 -5.4981 0.1814
-20 6 24 -4.3395 -0.0401
-20 6 25 1.3301 0.2229
-20 6 26 -5.2978 0.1336
-20 6 27 3.4654 0.3952
-20 8 1 8.1767 0.0248
-20 8 2 7.1517 -0.1300
-20 8 3 -7.7048 0.1539
-20 8 4 3.4939 0.0997
-20 8 5 -8.2461 -0.1794
-20 8 6 -0.7375 0.0672
-20 8 7 -3.3300 -0.0614
-20 8 8 0.8675 -0.1151
-20 8 9 -0.8950 0.1534
-20 8 10 5.1345 -0.0034
-20 8 11 -0.8395 -0.0116
-20 8 12 -1.1552 0.0084
-20 8 13 0.0804 0.0234
-20 8 14 -1.8107 -0.0625
-20 8 15 11.6917 0.0463
-20 8 16 2.6663 -0.0463
-20 8 17 -1.9009 0.0014
-20 8 18 5.1991 0.0435
-20 8 19 -10.9994 -0.0818
-20 8 20 3.2967 0.0714
-20 8 21 -4.6749 0.2105
-20 8 22 -1.9532 -0.1743
-20 8 23 -8.6313 0.5690
-20 8 24 -1.6189 -0.2620
-20 10 1 15.7815 0.0289
-20 10 2 12.0523 0.0157
-20 10 3 3.0110 -0.0619
-20 10 4 14.0414 0.1400
-20 10 5 -6.6252 -0.1873
-20 10 6 2.0375 -0.0758
-20 10 7 -2.3814 0.0269
-20 10 8 7.2746 -0.0002
-20 10 9 3.8001 0.0073
-20 10 10 11.6703 0.1307
-20 10 11 -2.5118 -0.0768
-20 10 12 0.4420 -0.1221
-20 10 13 -11.1177 0.0937
-20 10 14 -2.4269 -0.1269
-20 10 15 3.5246 -0.0661
-20 10 16 0.4756 0.0065
-20 10 17 0.4790 -0.2309
-20 10 18 -0.2932 0.0476
-20 10 19 -5.3661 0.0700
-20 10 20 -2.7541 -0.0236
-20 10 21 0.6288 0.4287
-20 10 22 1.2607 -0.1508
-20 10 23 -2.5166 0.2602
-20 12 1 12.5185 -0.0441
-20 12 2 10.9558 0.2205
-20 12 3 6.8057 -0.1048
-20 12 4 17.4502 0.1287
-20 12 5 0.7070 -0.0697
-20 12 6 -2.9239 -0.2283
-20 12 7 -5.8453 -0.1098
-20 12 8 1.5539 0.1415
-20 12 9 -2.1622 0.0026
-20 12 10 10.5612 0.2091
-20 12 11 -3.6262 0.2093
-20 12 12 3.0195 -0.0715
-20 12 13 -12.5317 -0.0671
-20 12 14 -1.5367 0.0963
-20 14 1 3.5255 0.0734
-20 14 2 5.6846 0.1135
-20 14 3 1.8101 0.1325
-20 14 4 9.3996 0.1937
-20 14 5 1.4199 0.0076
-20 14 6 -4.9116 -0.0460
-20 14 7 -9.2920 -0.2148
-20 14 8 -3.8979 -0.1019
-20 14 9 -4.9039 0.0986
-20 14 10 1.6818 0.0116
-19 1 1 0.4356 0.0882
-19 1 2 13.3121 0.3291
-19 1 3 -7.5914 -0.1647
-19 1 4 8.0441 -0.3979
-19 1 5 -1.5442 -0.2168
-19 1 6 3.9545 0.5239
-19 1 7 10.6529 -0.0529
-19 1 8 3.1835 0.2090
-19 1 9 4.0764 -0.0015
-19 1 10 -2.4997 -0.0277
-19 1 11 -5.1231 0.0093
-19 1 12 8.6912 0.3759
-19 1 13 -4.1898 -0.0392
-19 1 14 4.8279 0.0134
-19 1 15 0.4340 -0.1492
-19 1 16 -2.8744 -0.1728
-19 1 17 -0.9488 -0.0317
-19 1 18 4.0450 0.3002
-19 1 19 -3.2160 0.0166
-19 1 20 -0.0543 -0.1022
-19 1 21 0.7796 0.1791
-19 1 22 -5.1611 -0.0386
-19 1 23 1.6022 0.2467
-19 1 24 -3.6454 0.2073
-19 1 25 2.6628 -0.1508
-19 1 26 3.2159 -0.1037
-19 1 27 4.4602 -0.0363
-19 1 28 -0.9291 0.1983
-19 1 29 0.7295 0.0419
-19 1 30 -0.5224 0.1205
-19 3 1 5.6957 0.0132
-19 3 2 15.9329 0.1892
-19 3 3 -3.4681 -0.1210
-19 3 4 0.1609 -0.0722
-19 3 5 -1.8957 -0.0501
-19 3 6 -6.8466 0.4177
-19 3 7 10.1734 0.0673
-19 3 8 7.3970 0.0709
-19 3 9 1.9039 -0.0904
-19 3 10 4.2104 -0.0965
-19 3 11 -4.9714 -0.0625
-19 3 12 5.4226 0.2894
-19 3 13 -2.5453 0.0712
-19 3 14 -2.1165 0.0962
-19 3 15 0.4242 -0.0244
-19 3 16 -5.6106 -0.1276
-19 3 17 -1.2933 -0.0391
-19 3 18 -1.2558 0.2299
-19 3 19 -3.9212 0.0747
-19 3 20 -4.3823 -0.0610
-19 3 21 2.1180 0.0012
-19 3 22 -0.3000 0.0548
-19 3 23 2.4134 -0.0072
-19 3 24 1.2280 0.2526
-19 3 25 3.5427 -0.1170
-19 3 26 4.4414 -0.3566
-19 3 27 6.4787 -0.2132
-19 3 28 -0.7103 -0.3275
-19 3 29 -0.9428 -0.2417
-19 5 1 8.5223 0.1154
-19 5 2 9.6268 0.0216
-19 5 3 12.6927 -0.0024
-19 5 4 3.6432 -0.0916
-19 5 5 0.6275 0.2111
-19 5 6 2.6399 0.1968
-19 5 7 -1.2932 0.1559
-19 5 8 9.6481 0.0349
-19 5 9 -1.7926 -0.0945
-19 5 10 -2.5442 -0.1430
-19 5 11 -0.6659 -0.0352
-19 5 12 -0.5971 0.1328
-19 5 13 -1.5920 0.1130
-19 5 14 -1.7176 0.0579
-19 5 15 -3.0354 0.0643
-19 5 16 -4.0106 -0.1110
-19 5 17 4.3196 -0.0187
-19 5 18 -5.1831 0.2200
-19 5 19 4.0703 0.1417
-19 5 20 -4.3159 0.0159
-19 5 21 3.2117 0.0263
-19 5 22 5.4216 -0.0768
-19 5 23 1.8355 -0.0247
-19 5 24 3.6480 0.0078
-19 5 25 -1.1584 0.0064
-19 5 26 6.8395 -0.3721
-19 5 27 1.4542 -0.2459
-19 5 28 3.4331 -0.3244
-19 7 1 -0.5373 0.0098
-19 7 2 -2.3869 0.0825
-19 7 3 13.4378 -0.0603
-19 7 4 3.1726 -0.1627
-19 7 5 2.2526 0.1800
-19 7 6 6.5439 0.0100
-19 7 7 -0.8765 0.0788
-19 7 8 3.5398 0.0758
-19 7 9 2.2886 -0.0889
-19 7 10 -5.2974 -0.0694
-19 7 11 0.2243 -0.0143
-19 7 12 1.4083 0.0069
-19 7 13 -5.6854 0.0746
-19 7 14 0.1726 -0.0141
-19 7 15 -8.0102 0.0040
-19 7 16 -3.8279 -0.0528
-19 7 17 8.8451 -0.0385
-19 7 18 -6.2202 0.0802
-19 7 19 10.7384 0.2358
-19 7 20 -2.5751 -0.0370
-19 7 21 6.4837 0.0251
-19 7 22 5.2226 0.0105
-19 7 23 5.9591 -0.2907
-19 7 24 2.7795 0.0985
-19 7 25 -7.4538 -0.2515
-19 9 1 -12.1373 -0.1184
-19 9 2 -11.4825 0.0950
-19 9 3 6.6915 -0.0442
-19 9 4 -6.1453 -0.1297
-19 9 5 5.1141 0.0695
-19 9 6 -0.4384 0.0426
-19 9 7 -0.7631 -0.0187
-19 9 8 -7.5875 0.0959
-19 9 9 -0.6889 0.0065
-19 9 10 -4.9577 -0.0269
-19 9 11 4.3381 -0.0103
-19 9 12 6.2538 0.0192
-19 9 13 3.5304 -0.0721
-19 9 14 1.1542 0.0120
-19 9 15 -5.4980 -0.0173
-19 9 16 -2.3545 -0.0365
-19 9 17 7.9219 0.0757
-19 9 18 -2.5240 -0.0302
-19 9 19 8.6266 0.0389
-19 9 20 -1.5917 0.1260
-19 9 21 1.6417 -0.3371
-19 9 22 0.2570 0.2729
-19 9 23 4.7166 -0.3326
-19 9 24 3.1519 0.0052
-19 11 1 -14.0181 0.0224
-19 11 2 -14.7123 -0.1051
-19 11 3 0.0453 0.0735
-19 11 4 -10.8454 -0.0035
-19 11 5 3.9984 0.0120
-19 11 6 4.7059 0.1296
-19 11 7 3.5084 0.0178
-19 11 8 -6.9142 -0.1134
-19 11 9 0.0417 -0.0096
-19 11 10 -7.0020 -0.0488
-19 11 11 9.2777 -0.1186
-19 11 12 3.7857 0.1016
-19 11 13 12.6204 0.0641
-19 11 14 1.0383 -0.0327
-19 11 15 -6.3327 0.2194
-19 11 16 1.9656 0.0463
-19 11 17 -2.1381 0.1816
-19 11 18 5.8933 0.1091
-19 11 19 3.8157 0.0640
-19 11 20 6.6036 -0.0312
-19 11 21 -0.0761 -0.0000
-19 11 22 -2.3748 -0.1750
-19 11 23 0.1562 0.2756
-19 13 1 -7.6666 -0.0151
-19 13 2 -10.1224 -0.1886
-19 13 3 -2.9784 -0.1096
-19 13 4 -7.4572 -0.0716
-19 13 5 0.4088 0.0545
-19 13 6 9.4984 0.0804
-19 13 7 9.6319 0.1512
-19 13 8 0.1423 0.0103
-19 13 9 2.3315 -0.2248
-19 13 10 -3.8088 -0.0613
-19 13 11 5.2905 -0.2273
-19 13 12 1.4689 -0.2406
-19 13 13 9.1909 0.2078
-19 13 14 1.9904 -0.0919
-19 13 15 -7.9748 0.1557
-19 13 16 3.2049 0.2301
-19 13 17 -9.2589 0.3247
-19 15 1 -2.0271 -0.3131
-19 15 2 -2.8501 0.0300
-19 15 3 -1.3095 -0.1431
-19 15 4 -1.9690 -0.2821
-19 15 5 0.3085 0.1438
-19 15 6 7.7190 -0.0030
-19 15 7 6.2217 -0.0366
-19 15 8 3.6249 0.3085
-19 15 9 -3.6335 -0.1757
-19 15 10 -1.8298 -0.1266
-18 0 2 -12.3065 0.8384
-18 0 4 -8.5082 0.9871
-18 0 6 -2.7311 -0.5829
-18 0 8 0.7512 -0.0510
-18 0 10 4.3135 0.1016
-18 0 12 -7.2002 -0.3122
-18 0 14 -2.1927 0.0270
-18 0 16 -4.3213 0.1291
-18 0 18 -8.2556 -0.2969
-18 0 20 1.9391 0.0471
-18 0 22 4.9665 0.0727
-18 0 24 2.0901 -0.1227
-18 0 26 -3.9708 0.0591
-18 0 28 0.7972 -0.1825
-18 0 30 -1.0720 -0.2237
-18 2 1 3.0551 -0.0394
-18 2 2 -16.0671 0.3584
-18 2 3 12.2501 0.3052
-18 2 4 0.6203 0.4787
-18 2 5 -3.4275 0.4521
-18 2 6 3.9523 -0.4635
-18 2 7 -14.0799 0.0279
-18 2 8 -4.8572 0.0077
-18 2 9 -0.5051 0.0404
-18 2 10 -1.3224 -0.0043
-18 2 11 6.7254 0.0783
-18 2 12 -6.4084 -0.3386
-18 2 13 4.4934 0.0039
-18 2 14 2.0690 0.0033
-18 2 15 0.7511 0.1578
-18 2 16 0.0558 0.1559
-18 2 17 2.3471 0.1363
-18 2 18 -3.2709 -0.2219
-18 2 19 2.6863 0.0276
-18 2 20 4.1656 0.0786
-18 2 21 -2.7807 -0.0877
-18 2 22 3.1914 -0.0713
-18 2 23 -3.3049 -0.0711
-18 2 24 1.4589 -0.2656
-18 2 25 -5.4852 0.0688
-18 2 26 -2.5736 0.2066
-18 2 27 -4.6964 0.0727
-18 2 28 2.9348 0.1015
-18 2 29 1.3333 0.1796
-18 2 30 0.3562 0.0765
-18 2 31 0.2998 0.1695
-18 4 1 -9.3843 -0.0118
-18 4 2 -15.5489 -0.0457
-18 4 3 -5.8294 0.0693
-18 4 4 2.2652 0.0030
-18 4 5 -3.0063 0.0370
-18 4 6 -0.4200 -0.3328
-18 4 7 -3.2833 -0.0804
-18 4 8 -10.2167 0.0586
-18 4 9 3.1829 0.1536
-18 4 10 0.9046 0.0572
-18 4 11 3.3806 0.1448
-18 4 12 -2.5994 -0.2764
-18 4 13 2.9284 -0.0478
-18 4 14 4.0976 -0.0875
-18 4 15 1.3050 0.0379
-18 4 16 4.1604 0.1173
-18 4 17 -0.9510 0.0803
-18 4 18 3.8207 -0.1882
-18 4 19 0.0531 -0.0481
-18 4 20 5.0053 0.0042
-18 4 21 -2.5216 0.0121
-18 4 22 -0.9531 -0.0805
-18 4 23 -2.0756 -0.0187
-18 4 24 -0.2536 -0.1200
-18 4 25 -4.4912 -0.0669
-18 4 26 -4.0042 0.3654
-18 4 27 -4.6304 0.1642
-18 4 28 3.8746 0.3529
-18 4 29 3.7056 0.3217
-18 6 1 -9.1587 -0.0927
-18 6 2 -3.8070 0.0110
-18 6 3 -13.8056 -0.0812
-18 6 4 -5.2624 0.1021
-18 6 5 2.3786 -0.1532
-18 6 6 -11.0859 -0.1246
-18 6 7 2.2015 -0.0965
-18 6 8 -6.1942 0.0231
-18 6 9 -1.2033 0.0989
-18 6 10 7.3255 0.0775
-18 6 11 1.8926 0.0525
-18 6 12 -1.2308 -0.1049
-18 6 13 5.7526 -0.1203
-18 6 14 2.1750 0.0087
-18 6 15 2.1230 0.0030
-18 6 16 4.4706 0.0488
-18 6 17 -8.5224 0.0631
-18 6 18 5.3155 -0.1817
-18 6 19 -6.3192 -0.2251
-18 6 20 1.0001 0.0625
-18 6 21 -4.5268 -0.1253
-18 6 22 -3.3768 0.0844
-18 6 23 -0.2848 -0.0062
-18 6 24 0.5151 0.0209
-18 6 25 5.9039 -0.0046
-18 6 26 -7.3560 0.2128
-18 6 27 0.3233 0.1847
-18 8 1 3.7558 0.0602
-18 8 2 6.3877 -0.0194
-18 8 3 -8.7632 0.0451
-18 8 4 -1.0469 0.1683
-18 8 5 3.7849 -0.0416
-18 8 6 -3.4785 -0.0365
-18 8 7 2.2862 -0.0646
-18 8 8 4.0895 -0.0619
-18 8 9 -3.1568 0.0171
-18 8 10 2.2280 0.0677
-18 8 11 -1.8503 0.0312
-18 8 12 -6.4889 0.0539
-18 8 13 1.6749 -0.0368
-18 8 14 1.0645 0.0674
-18 8 15 0.3539 0.0836
-18 8 16 3.3869 0.0473
-18 8 17 -12.8264 -0.0277
-18 8 18 6.1212 -0.0104
-18 8 19 -7.7433 -0.2568
-18 8 20 2.6250 -0.0421
-18 8 21 -4.5161 0.1007
-18 8 22 -3.7013 -0.1594
-18 8 23 -1.7068 0.2261
-18 8 24 -4.9797 -0.0010
-18 10 1 8.9309 0.0408
-18 10 2 11.5061 -0.0481
-18 10 3 -7.3613 0.0483
-18 10 4 2.8274 0.0033
-18 10 5 -1.8417 0.0762
-18 10 6 -2.7461 -0.0690
-18 10 7 0.5425 -0.0494
-18 10 8 7.5817 -0.0320
-18 10 9 -1.1510 -0.0298
-18 10 10 -1.4173 -0.0157
-18 10 11 -10.0240 0.0625
-18 10 12 -6.8750 -0.0105
-18 10 13 -6.5372 -0.0354
-18 10 14 2.2968 0.0414
-18 10 15 4.1432 -0.0159
-18 10 16 -1.1327 -0.0014
-18 10 17 -8.3933 -0.0803
-18 10 18 -2.5393 -0.0723
-18 10 19 -4.6131 -0.0019
-18 10 20 -1.0459 -0.1552
-18 10 21 2.8736 0.1395
-18 10 22 1.0386 -0.0141
-18 10 23 0.2845 -0.2106
-18 10 24 -3.3669 0.2795
-18 12 1 6.4439 -0.0201
-18 12 2 11.0205 0.0761
-18 12 3 -1.7203 0.0806
-18 12 4 0.9288 -0.0550
-18 12 5 -2.1535 -0.0268
-18 12 6 -9.9718 -0.0552
-18 12 7 -5.2674 -0.0710
-18 12 8 3.8390 -0.0085
-18 12 9 -1.1521 0.1846
-18 12 10 -0.9558 0.0097
-18 12 11 -11.8942 0.0786
-18 12 12 -5.4972 0.0954
-18 12 13 -5.9311 -0.2142
-18 12 14 0.2636 -0.0261
-18 12 15 16.3355 -0.0881
-18 12 16 -2.3765 -0.1975
-18 12 17 7.2673 -0.2921
-18 12 18 -6.9155 -0.0228
-18 12 19 -1.7482 -0.4762
-18 12 20 -10.1694 0.2233
-18 12 21 -1.9781 -0.3975
-18 14 1 4.2172 0.1920
-18 14 2 5.3555 0.0647
-18 14 3 3.0464 0.1003
-18 14 4 -0.2049 0.2141
-18 14 5 0.3757 -0.1686
-18 14 6 -9.7901 -0.1002
-18 14 7 -2.6648 0.0614
-18 14 8 0.5059 -0.2568
-18 14 9 7.9963 0.2354
-18 14 10 1.5830 0.2073
-18 14 11 -1.1408 0.0084
-18 14 12 -1.6490 0.2479
-18 14 13 -2.9754 0.0627
-18 14 14 -2.4673 -0.2005
-18 14 15 10.1001 0.0921
-18 14 16 -1.5934 0.0211
-17 1 1 -7.5117 0.1977
-17 1 2 10.8208 -1.9256
-17 1 3 -8.8617 -0.3419
-17 1 4 -3.2079 -0.9753
-17 1 5 5.5310 -0.4131
-17 1 6 -5.0902 0.4430
-17 1 7 8.2304 0.1262
-17 1 8 -1.2691 -0.1670
-17 1 9 -0.5400 0.0147
-17 1 10 -3.4754 -0.0962
-17 1 11 -4.1551 -0.0044
-17 1 12 3.9238 0.1581
-17 1 13 -3.4779 -0.0042
-17 1 14 0.7873 -0.0959
-17 1 15 -0.7736 -0.1575
-17 1 16 9.3768 -0.1861
-17 1 17 -1.3399 -0.1353
-17 1 18 5.2325 0.2567
-17 1 19 -1.3337 -0.1280
-17 1 20 -3.8213 -0.0790
-17 1 21 1.3089 0.1079
-17 1 22 -2.6497 -0.0305
-17 1 23 1.5806 0.1487
-17 1 24 -1.4471 0.2121
-17 1 25 1.9409 0.0968
-17 1 26 3.0772 -0.1537
-17 1 27 0.4885 0.1150
-17 1 28 -1.2268 0.0921
-17 1 29 -0.8976 -0.0606
-17 1 30 1.3347 0.1838
-17 1 31 -0.2702 -0.1473
-17 3 1 -0.1160 0.1037
-17 3 2 15.3025 -0.4899
-17 3 3 -1.6874 -0.3638
-17 3 4 -9.7217 -0.1448
-17 3 5 9.2294 -0.3407
-17 3 6 -2.5884 0.2524
-17 3 7 6.8885 0.1415
-17 3 8 6.4569 -0.1928
-17 3 9 -4.2786 -0.1370
-17 3 10 -0.1720 -0.0290
-17 3 11 -6.1240 -0.1500
-17 3 12 3.8401 0.2160
-17 3 13 -5.4904 0.0070
-17 3 14 -4.7469 0.0036
-17 3 15 -1.7732 -0.1190
-17 3 16 0.7834 -0.1971
-17 3 17 -1.9326 -0.1263
-17 3 18 -1.7121 0.1543
-17 3 19 -2.3930 -0.0059
-17 3 20 -6.0047 -0.0288
-17 3 21 2.0069 -0.0070
-17 3 22 -2.2361 0.1313
-17 3 23 3.4830 0.0090
-17 3 24 -1.8661 0.2463
-17 3 25 5.5578 0.0539
-17 3 26 0.3065 -0.2222
-17 3 27 1.3106 -0.1820
-17 3 28 -7.1130 -0.1966
-17 3 29 -3.6662 -0.2777
-17 3 30 -1.9971 -0.1922
-17 5 1 13.5761 0.1243
-17 5 2 7.3641 -0.0008
-17 5 3 11.9900 0.0182
-17 5 4 0.5157 0.0821
-17 5 5 0.1240 0.0151
-17 5 6 11.4039 0.1581
-17 5 7 -1.5912 0.0967
-17 5 8 5.3755 -0.0995
-17 5 9 -2.6150 -0.1816
-17 5 10 -6.2859 -0.0093
-17 5 11 -4.5541 -0.1287
-17 5 12 3.0119 0.1989
-17 5 13 -5.3039 0.0794
-17 5 14 -4.7308 0.0311
-17 5 15 -0.8734 -0.0343
-17 5 16 -2.7004 -0.0891
-17 5 17 3.1969 -0.1144
-17 5 18 -3.4758 0.1831
-17 5 19 0.9906 0.1003
-17 5 20 -3.3827 -0.0385
-17 5 21 1.0460 0.0832
-17 5 22 -3.3284 -0.0061
-17 5 23 -0.4266 0.0985
-17 5 24 -3.9923 0.0504
-17 5 25 3.0131 0.1449
-17 5 26 3.5246 -0.1688
-17 5 27 4.9910 -0.1030
-17 5 28 -4.5437 -0.1679
-17 7 1 4.5992 0.0937
-17 7 2 -3.8665 -0.0961
-17 7 3 4.6022 0.0084
-17 7 4 3.9453 -0.1044
-17 7 5 -10.4024 0.0226
-17 7 6 8.8047 0.0234
-17 7 7 -1.1335 0.0726
-17 7 8 -2.7432 -0.0363
-17 7 9 3.6979 -0.0980
-17 7 10 -4.2898 -0.0662
-17 7 11 -0.8047 -0.0129
-17 7 12 5.3666 -0.0094
-17 7 13 -1.1847 0.1068
-17 7 14 -2.4022 -0.0503
-17 7 15 3.0603 -0.1275
-17 7 16 -2.9806 0.0037
-17 7 17 9.0923 -0.0331
-17 7 18 -5.5699 0.0565
-17 7 19 4.6604 0.3185
-17 7 20 -1.1350 -0.1030
-17 7 21 4.2427 0.1018
-17 7 22 -0.2087 0.0094
-17 7 23 -3.7479 -0.0414
-17 7 24 -1.3087 -0.0078
-17 7 25 -10.6345 -0.0383
-17 7 27 0.6414 -0.0749
-17 9 1 -2.4233 -0.0190
-17 9 2 -6.9469 0.0138
-17 9 3 5.1578 -0.1139
-17 9 4 0.9534 -0.0923
-17 9 5 -6.4341 -0.0455
-17 9 6 1.0262 0.0298
-17 9 7 -1.0952 0.1347
-17 9 8 -6.1231 0.0653
-17 9 9 3.4916 -0.0035
-17 9 10 3.6524 -0.0570
-17 9 11 6.7531 -0.0193
-17 9 12 4.4382 -0.0872
-17 9 13 4.5619 0.0123
-17 9 14 -3.4295 -0.0728
-17 9 15 4.7428 -0.1429
-17 9 16 -0.2150 -0.0590
-17 9 17 13.4650 0.0839
-17 9 18 -5.5432 -0.0041
-17 9 19 2.0588 0.1108
-17 9 20 -2.8894 0.1537
-17 9 21 -1.3354 -0.1373
-17 9 22 3.6028 0.1041
-17 9 23 -2.7415 0.0829
-17 9 24 8.4238 -0.2033
-17 11 1 0.0416 0.0048
-17 11 2 -8.1421 0.0818
-17 11 3 6.4296 -0.1135
-17 11 4 3.3624 0.0501
-17 11 5 -0.3042 -0.0183
-17 11 6 6.1078 0.0376
-17 11 7 0.9722 0.1086
-17 11 8 -3.3189 0.0793
-17 11 9 3.1854 -0.0631
-17 11 10 7.0087 0.0010
-17 11 11 13.0395 0.0257
-17 11 12 2.1148 -0.0388
-17 11 13 -0.6017 0.1148
-17 11 14 -6.0622 0.0408
-17 11 15 -12.1804 -0.0497
-17 11 16 2.3107 0.1071
-17 11 17 4.3155 0.1397
-17 11 18 6.5689 0.0883
-17 11 19 0.6967 0.1186
-17 11 20 6.1898 -0.0165
-17 11 21 -3.7189 0.2323
-17 11 22 -2.3568 -0.2221
-17 11 23 -0.7014 0.4743
-17 11 24 0.6380 -0.1275
-17 13 1 -1.5140 -0.0759
-17 13 2 -6.6048 -0.0421
-17 13 3 -2.0496 -0.0440
-17 13 4 3.1905 -0.0931
-17 13 5 -2.5540 0.1386
-17 13 6 6.9050 0.1253
-17 13 7 -2.6498 -0.0583
-17 13 8 -4.4173 0.1609
-17 13 9 -6.3299 -0.1670
-17 13 10 4.0985 -0.1871
-17 13 11 7.6297 0.0808
-17 13 12 5.7778 -0.0899
-17 13 13 -4.0412 -0.0197
-17 13 14 0.5140 0.1672
-17 13 15 -21.1273 -0.0572
-17 13 16 -0.0081 -0.0264
-17 13 17 -10.2113 0.5808
-17 13 18 4.9104 -0.1550
-17 15 1 -3.7364 -0.1624
-17 15 2 -3.2986 -0.1140
-17 15 3 -5.8620 0.1966
-17 15 4 0.8686 -0.2626
-17 15 5 -6.2965 0.0886
-17 15 6 7.1191 0.3107
-17 15 7 -11.1913 -0.2423
-17 15 8 -2.7990 0.1046
-17 15 9 -16.7797 0.0324
-17 15 10 -2.4772 -0.3201
-17 15 11 -1.0621 -0.0898
-17 15 12 0.8615 0.2018
-17 15 13 1.2812 -0.4218
-16 0 2 -2.3294 3.1290
-16 0 4 13.6626 0.7554
-16 0 6 8.9739 -0.4031
-16 0 8 5.0112 0.3187
-16 0 10 7.1845 0.2336
-16 0 12 -1.4071 -0.0913
-16 0 14 -5.1408 0.0369
-16 0 16 -13.2404 0.2339
-16 0 18 -1.4430 -0.2715
-16 0 20 2.3978 0.1274
-16 0 22 2.1773 0.0903
-16 0 24 2.3792 -0.1728
-16 0 26 -3.4428 0.2203
-16 0 28 0.4280 -0.1693
-16 0 30 0.5517 -0.2154
-16 2 1 8.1784 -0.3249
-16 2 2 -7.2765 1.7229
-16 2 3 2.7340 0.5829
-16 2 4 17.1843 0.3406
-16 2 5 -11.7208 0.2677
-16 2 6 6.5358 -0.1275
-16 2 7 -6.0969 -0.3501
-16 2 8 0.1369 0.2707
-16 2 9 3.2438 0.0672
-16 2 10 3.0001 0.1776
-16 2 11 6.7761 0.0346
-16 2 12 -1.9780 -0.0159
-16 2 13 6.0493 -0.0439
-16 2 14 0.7581 0.0927
-16 2 15 1.0464 0.0807
-16 2 16 -7.2272 0.2620
-16 2 17 3.0313 0.1026
-16 2 18 1.8260 -0.2061
-16 2 19 3.6078 0.0549
-16 2 20 4.1092 0.1131
-16 2 21 -0.7942 0.0052
-16 2 22 1.9929 -0.0354
-16 2 23 -0.9543 -0.0651
-16 2 24 2.4007 -0.2450
-16 2 25 0.5560 -0.0817
-16 2 26 -0.1790 0.1776
-16 2 27 3.2166 0.1342
-16 2 28 3.9912 -0.0556
-16 2 29 2.1096 0.0961
-16 2 30 -0.5604 -0.0771
-16 2 31 -0.0200 -0.0521
-16 4 1 -10.1827 -0.2151
-16 4 2 -6.8527 0.1900
-16 4 3 -11.0310 0.2357
-16 4 4 8.4653 -0.1394
-16 4 5 -6.6453 0.0122
-16 4 6 -7.0490 -0.0222
-16 4 7 1.1401 -0.2275
-16 4 8 -2.5959 0.1617
-16 4 9 5.9512 0.1850
-16 4 10 2.2692 0.0701
-16 4 11 7.8334 0.1278
-16 4 12 -3.5685 -0.1559
-16 4 13 6.8745 -0.0513
-16 4 14 5.5576 -0.0014
-16 4 15 1.8331 0.0207
-16 4 16 -1.5600 0.2203
-16 4 17 2.1325 0.1078
-16 4 18 3.8435 -0.1628
-16 4 19 3.9630 -0.0259
-16 4 20 6.5926 0.0402
-16 4 21 1.1353 0.0193
-16 4 22 5.8032 -0.0839
-16 4 23 -1.4887 -0.0564
-16 4 24 3.5057 -0.2308
-16 4 25 -5.4042 -0.1334
-16 4 26 1.0843 0.0713
-16 4 27 -1.5585 0.1623
-16 4 28 8.8766 0.1114
-16 4 29 3.0566 0.1805
-16 6 1 -9.9994 -0.1947
-16 6 2 4.5162 0.0458
-16 6 3 -2.7646 0.0550
-16 6 4 -2.7926 -0.0483
-16 6 5 8.9739 0.0277
-16 6 6 -12.2111 0.0224
-16 6 7 0.8080 -0.0446
-16 6 8 3.2689 0.0517
-16 6 9 -0.3584 0.1539
-16 6 10 2.7346 0.0099
-16 6 11 2.9023 0.0112
-16 6 12 -6.5951 -0.0904
-16 6 13 1.7224 -0.1217
-16 6 14 2.8612 0.0062
-16 6 15 -0.1156 0.1144
-16 6 16 -0.8582 0.0139
-16 6 17 -2.2099 0.1477
-16 6 18 2.4182 -0.1049
-16 6 19 -0.6564 -0.2081
-16 6 20 3.8778 0.1349
-16 6 21 0.0266 -0.1309
-16 6 22 9.7888 0.0212
-16 6 23 3.9163 -0.0480
-16 6 24 7.3193 -0.0672
-16 6 25 -1.4801 -0.0671
-16 6 26 -3.1665 0.0144
-16 6 27 -7.7826 0.0156
-16 6 28 1.2983 0.0440
-16 8 1 -0.2665 -0.0680
-16 8 2 7.4171 0.0734
-16 8 3 4.3632 0.1379
-16 8 4 -1.1845 0.1052
-16 8 5 12.7348 0.0199
-16 8 6 -1.6050 0.0265
-16 8 7 -1.1807 -0.0872
-16 8 8 7.6651 -0.0072
-16 8 9 -4.1887 0.0904
-16 8 10 -1.1430 0.1018
-16 8 11 -5.4302 -0.0316
-16 8 12 -4.5262 0.0763
-16 8 13 -7.2774 -0.0014
-16 8 14 0.7615 0.0339
-16 8 15 -7.2489 0.2261
-16 8 16 0.7973 0.0371
-16 8 17 -7.9774 -0.0539
-16 8 18 8.5210 0.0737
-16 8 19 -0.6033 -0.2169
-16 8 20 2.7352 -0.0145
-16 8 21 -1.7687 0.0520
-16 8 22 0.0383 -0.1095
-16 8 23 6.0063 0.0375
-16 8 24 -2.3999 0.0896
-16 10 1 -4.7005 -0.0091
-16 10 2 6.3030 -0.0766
-16 10 3 -3.8410 0.1423
-16 10 4 -2.6960 0.0552
-16 10 5 4.7520 -0.0246
-16 10 6 -2.0891 -0.0449
-16 10 7 -1.2365 -0.1679
-16 10 8 2.8536 -0.0992
-16 10 9 -4.9538 0.0333
-16 10 10 -4.7432 0.0569
-16 10 11 -9.6402 -0.0405
-16 10 12 5.0670 0.0426
-16 10 13 -0.3176 0.0220
-16 10 14 6.9311 0.0260
-16 10 15 -2.1201 0.1454
-16 10 16 -0.7653 0.0389
-16 10 17 -11.6513 -0.0678
-16 10 18 2.5020 -0.0570
-16 10 19 3.4471 0.0719
-16 10 20 -0.6745 -0.1217
-16 10 21 4.4816 -0.0628
-16 10 22 -2.8772 0.1050
-16 10 23 2.3625 -0.3557
-16 10 24 -8.8802 0.1597
-16 12 1 -5.4197 0.0311
-16 12 2 7.6120 -0.0436
-16 12 3 0.6151 0.0519
-16 12 4 -2.9451 0.0456
-16 12 5 5.4773 -0.0905
-16 12 6 -2.1926 -0.1001
-16 12 7 3.7249 -0.0336
-16 12 8 3.1529 -0.0877
-16 12 9 -1.0330 0.0543
-16 12 10 -8.2904 0.1312
-16 12 11 -9.6204 -0.1133
-16 12 12 0.5184 -0.0094
-16 12 13 12.4252 0.0553
-16 12 14 6.8052 -0.1045
-16 12 15 18.6497 0.1069
-16 12 16 -0.1281 -0.0474
-16 12 17 1.4904 -0.2862
-16 12 18 -8.9447 -0.0516
-16 12 19 2.2883 -0.2761
-16 12 20 -9.8385 0.0034
-16 12 21 -1.7834 -0.4026
-16 12 22 4.5712 -0.0596
-16 12 23 -1.1518 -0.1987
-16 14 1 2.3942 0.0331
-16 14 2 7.3541 0.1559
-16 14 3 8.7075 -0.1721
-16 14 4 0.3275 0.1484
-16 14 5 10.1245 -0.0484
-16 14 6 -0.6923 -0.2813
-16 14 7 15.1719 0.1639
-16 14 8 6.5848 0.0125
-16 14 9 13.5431 -0.0598
-16 14 10 -4.8110 0.2551
-16 14 11 -3.4080 0.0301
-16 14 12 -6.6305 -0.2009
-16 14 13 5.9146 0.3316
-16 14 14 -2.4649 0.0179
-15 1 1 -5.6962 0.3160
-15 1 2 -5.9002 -2.4578
-15 1 3 0.2866 -0.4870
-15 1 4 -24.6810 -0.0305
-15 1 5 6.9984 0.0377
-15 1 6 -8.4942 0.1592
-15 1 7 2.7219 0.3221
-15 1 8 -6.1432 -0.1674
-15 1 9 -1.3972 -0.1065
-15 1 10 -7.9706 -0.3126
-15 1 11 -4.4224 0.0863
-15 1 12 0.3802 0.0207
-15 1 13 -2.8990 0.0876
-15 1 14 4.4640 -0.0767
-15 1 15 0.0527 0.0117
-15 1 16 7.4656 -0.2799
-15 1 17 -2.6966 -0.0594
-15 1 18 -4.0854 0.2799
-15 1 19 -2.5274 -0.1361
-15 1 20 -0.8243 -0.2285
-15 1 21 -0.1495 -0.0238
-15 1 22 -4.1634 -0.0399
-15 1 23 -2.1983 0.1276
-15 1 24 -3.9775 0.1443
-15 1 25 -3.9405 0.1096
-15 1 26 1.3835 -0.2291
-15 1 27 -2.9182 0.0685
-15 1 28 -2.4322 0.2418
-15 1 29 -0.8624 0.1043
-15 1 30 -2.5222 0.1110
-15 1 31 -1.3603 0.0296
-15 3 1 4.4252 0.3277
-15 3 2 0.6548 -0.6661
-15 3 3 10.6844 -0.4147
-15 3 4 -17.9157 0.1406
-15 3 5 10.2463 0.2199
-15 3 6 1.1111 -0.0935
-15 3 7 -0.5173 0.3745
-15 3 8 -1.2473 -0.1582
-15 3 9 -6.0917 -0.1258
-15 3 10 -1.2889 -0.2918
-15 3 11 -9.6760 -0.0328
-15 3 12 1.1404 0.0787
-15 3 13 -6.2025 0.0840
-15 3 14 -3.2215 -0.0492
-15 3 15 -1.1136 0.0565
-15 3 16 3.6586 -0.2958
-15 3 17 -5.7939 -0.0416
-15 3 18 -6.0450 0.1958
-15 3 19 -6.4759 -0.0080
-15 3 20 -4.2289 -0.1582
-15 3 21 -1.6132 -0.0776
-15 3 22 -2.9104 0.0754
-15 3 23 -1.3260 0.0627
-15 3 24 -1.4149 0.2796
-15 3 25 -2.0032 0.0376
-15 3 26 -1.5871 -0.0950
-15 3 27 -3.6850 -0.2109
-15 3 28 -5.2586 0.0196
-15 3 29 -1.7280 -0.0280
-15 3 30 0.4643 0.0442
-15 3 31 0.8680 0.0884
-15 5 1 12.6940 0.2445
-15 5 2 -4.9880 0.0235
-15 5 3 6.5429 -0.1650
-15 5 4 -1.2542 0.1060
-15 5 5 -2.6821 0.1019
-15 5 6 12.1856 -0.0916
-15 5 7 -2.1575 0.1435
-15 5 8 -1.7437 -0.0184
-15 5 9 -3.8607 -0.1082
-15 5 10 3.5945 -0.0777
-15 5 11 -6.3148 -0.0259
-15 5 12 6.7189 0.1583
-15 5 13 -4.6695 0.1382
-15 5 14 -1.9019 -0.0425
-15 5 15 -2.8301 -0.0156
-15 5 16 5.7387 -0.1418
-15 5 17 -2.7473 -0.1761
-15 5 18 -2.8306 0.1568
-15 5 19 -4.6541 0.0922
-15 5 20 -7.9068 -0.1388
-15 5 21 -4.2421 0.0138
-15 5 22 -11.7143 0.0277
-15 5 23 -0.5271 0.0601
-15 5 24 -5.4423 0.2137
-15 5 25 8.0828 0.1416
-15 5 26 -0.5930 0.0650
-15 5 27 6.3123 -0.0234
-15 5 28 -4.6808 0.0448
-15 5 29 -0.6541 -0.0710
-15 7 1 0.1754 0.1240
-15 7 2 -10.4131 -0.0177
-15 7 3 -10.8961 -0.2110
-15 7 4 1.3907 -0.0530
-15 7 5 -13.1777 -0.0669
-15 7 6 4.0490 -0.0844
-15 7 7 1.9609 -0.0106
-15 7 8 -7.9687 0.0064
-15 7 9 3.3921 -0.0888
-15 7 10 4.9853 -0.0730
-15 7 11 5.5034 0.0832
-15 7 12 9.7782 0.0229
-15 7 13 5.4348 0.0545
-15 7 14 3.1937 0.0187
-15 7 15 0.5249 -0.2355
-15 7 16 3.2333 0.0049
-15 7 17 0.8437 -0.0949
-15 7 18 -4.4053 -0.0498
-15 7 19 0.1592 0.2237
-15 7 20 -5.0683 -0.0907
-15 7 21 0.8885 0.0040
-15 7 22 -11.8370 0.0752
-15 7 23 -4.5364 -0.0889
-15 7 24 -6.4777 0.0195
-15 7 25 0.6426 -0.0818
-15 7 26 2.7705 -0.0867
-15 7 27 7.6360 0.0080
-15 9 1 2.3481 0.0277
-15 9 2 -7.6474 0.0123
-15 9 3 -4.6077 -0.1636
-15 9 4 0.8997 -0.1067
-15 9 5 -7.2528 0.0537
-15 9 6 -0.8303 0.0371
-15 9 7 3.2556 0.0947
-15 9 8 -7.5558 0.0544
-15 9 9 4.6808 -0.0804
-15 9 10 -0.2961 -0.0955
-15 9 11 9.0041 0.0247
-15 9 12 -3.4673 -0.0220
-15 9 13 6.8428 -0.1047
-15 9 14 -0.6116 -0.0403
-15 9 15 8.4366 -0.1728
-15 9 16 -1.3948 -0.1163
-15 9 17 7.2987 0.0546
-15 9 18 -9.0791 -0.0477
-15 9 19 -3.6818 -0.0696
-15 9 20 -1.3971 0.1467
-15 9 21 0.8250 -0.0741
-15 9 22 2.4641 0.0487
-15 9 23 -4.2770 0.0865
-15 9 24 7.4342 -0.1227
-15 9 25 -5.5732 -0.0882
-15 11 1 9.7089 -0.0032
-15 11 2 -9.8247 0.0422
-15 11 3 -1.3680 -0.0875
-15 11 4 1.1830 -0.0726
-15 11 5 -5.4023 0.0923
-15 11 6 0.5227 0.0951
-15 11 7 0.7243 0.1053
-15 11 8 -1.6963 0.0547
-15 11 9 6.0626 -0.0407
-15 11 10 2.8629 -0.0644
-15 11 11 6.0003 0.0677
-15 11 12 -11.5449 0.0349
-15 11 13 -11.0154 -0.0940
-15 11 14 -9.6033 -0.0107
-15 11 15 -2.5839 -0.1225
-15 11 16 -0.5273 0.0312
-15 11 17 6.7849 0.0192
-15 11 18 3.5851 0.1195
-15 11 19 -5.0516 -0.0319
-15 11 20 4.4955 -0.0026
-15 11 21 0.1166 0.3425
-15 11 22 -0.4254 -0.0746
-15 11 23 -0.7724 0.2527
-15 13 1 2.0462 -0.0045
-15 13 2 -12.0099 -0.1108
-15 13 3 -10.1110 0.0675
-15 13 4 -3.3927 -0.0768
-15 13 5 -10.7925 0.0332
-15 13 6 -5.7773 0.1654
-15 13 7 -10.6726 -0.0295
-15 13 8 -5.2408 -0.0880
-15 13 9 -2.7874 0.0676
-15 13 10 10.0448 -0.1516
-15 13 11 4.6435 0.0017
-15 13 12 2.6074 0.1394
-15 13 13 -14.7100 -0.2782
-15 13 14 -3.3689 -0.0636
-15 13 15 -15.5090 -0.0270
-15 13 16 -1.1711 -0.1248
-15 13 17 -7.7623 0.3015
-15 13 18 7.7713 0.1821
-15 13 19 -3.6102 0.1888
-15 15 1 -4.1472 0.1066
-15 15 2 -10.4936 -0.2677
-15 15 3 -12.4080 0.2285
-15 15 4 -2.2641 0.0438
-15 15 5 -14.1085 -0.1500
-15 15 6 -0.6151 0.1960
-15 15 7 -18.4082 -0.0799
-15 15 8 -4.3127 -0.3304
-15 15 9 -10.1056 0.1309
-15 15 10 6.8465 0.0269
-15 15 11 5.3246 -0.3155
-15 15 12 5.3464 0.3636
-15 15 13 -0.1581 -0.2194
-14 0 2 16.9544 1.6203
-14 0 4 28.0036 -0.5720
-14 0 6 6.5819 -0.2568
-14 0 8 10.3516 -0.0906
-14 0 10 10.8291 0.3057
-14 0 12 0.7483 -0.2882
-14 0 14 -3.2472 0.0470
-14 0 16 -0.7070 0.2652
-14 0 18 5.4547 -0.3083
-14 0 20 0.1791 0.2928
-14 0 22 9.7979 -0.0209
-14 0 24 5.7795 -0.0849
-14 0 26 0.3155 0.2331
-14 0 28 4.9272 -0.2345
-14 0 30 5.6710 0.0797
-14 2 1 -1.8191 -0.2400
-14 2 2 10.2347 0.7248
-14 2 3 -8.9148 0.3732
-14 2 4 23.5691 -0.3499
-14 2 5 -8.4716 -0.3845
-14 2 6 2.3025 -0.0304
-14 2 7 -0.6383 -0.2279
-14 2 8 6.4809 -0.0269
-14 2 9 3.6261 0.1171
-14 2 10 5.2993 0.4357
-14 2 11 7.0172 -0.0606
-14 2 12 1.7415 -0.1903
-14 2 13 1.7282 -0.1245
-14 2 14 1.1677 0.0552
-14 2 15 0.1712 -0.1202
-14 2 16 -0.1276 0.2365
-14 2 17 6.4021 0.0074
-14 2 18 6.4718 -0.2687
-14 2 19 4.2508 0.0685
-14 2 20 -0.3065 0.2889
-14 2 21 1.3749 0.0752
-14 2 22 3.9122 -0.0333
-14 2 23 5.9259 -0.0891
-14 2 24 1.7068 -0.1314
-14 2 25 6.7685 0.0417
-14 2 26 0.1642 0.1810
-14 2 27 3.5962 0.0591
-14 2 28 2.5921 -0.1873
-14 2 29 1.0421 -0.1468
-14 2 30 2.0503 -0.0400
-14 2 31 1.0032 -0.2105
-14 4 1 -13.2153 -0.2225
-14 4 2 5.9867 -0.0504
-14 4 3 -11.4631 0.1333
-14 4 4 6.5372 -0.1220
-14 4 5 -3.3123 -0.3859
-14 4 6 -9.8552 0.0570
-14 4 7 2.0969 -0.2215
-14 4 8 -0.0639 0.0072
-14 4 9 5.5062 0.0464
-14 4 10 -6.3175 0.2769
-14 4 11 7.9335 0.0602
-14 4 12 -3.1053 -0.2583
-14 4 13 3.3375 -0.1624
-14 4 14 0.4459 0.1083
-14 4 15 1.6576 -0.1174
-14 4 16 -5.2429 0.2211
-14 4 17 5.9839 0.0905
-14 4 18 5.8732 -0.1844
-14 4 19 7.7572 -0.0249
-14 4 20 4.5867 0.2308
-14 4 21 5.2239 0.0821
-14 4 22 3.8603 -0.0852
-14 4 23 1.7257 -0.0864
-14 4 24 -0.6703 -0.2687
-14 4 25 -3.0582 -0.0853
-14 4 26 0.3254 0.0179
-14 4 27 -1.2752 0.0595
-14 4 28 2.0828 -0.0541
-14 4 29 0.3681 0.0101
-14 6 1 -1.5035 -0.1381
-14 6 2 10.4558 -0.0733
-14 6 3 9.1489 0.2346
-14 6 4 -2.5262 0.0704
-14 6 5 9.0864 -0.0024
-14 6 6 -8.5697 0.0659
-14 6 7 -1.4020 -0.0426
-14 6 8 1.0054 -0.0603
-14 6 9 -2.1084 -0.0145
-14 6 10 -15.0536 0.0728
-14 6 11 -2.4924 -0.0730
-14 6 12 -13.4158 -0.1387
-14 6 13 0.4121 -0.1742
-14 6 14 -6.9463 0.0476
-14 6 15 3.5887 0.1577
-14 6 16 -9.3174 0.0112
-14 6 17 1.4919 0.1988
-14 6 18 1.5909 -0.0521
-14 6 19 3.3401 -0.1785
-14 6 20 8.5620 0.1629
-14 6 21 3.2352 0.0184
-14 6 22 15.8851 -0.0328
-14 6 23 -0.4828 0.0177
-14 6 24 6.9625 -0.1005
-14 6 25 -9.6762 -0.0577
-14 6 26 -0.7992 -0.0513
-14 6 27 -7.8996 -0.0370
-14 6 28 -0.9845 -0.0956
-14 8 1 4.1375 -0.0251
-14 8 2 8.2545 -0.0527
-14 8 3 12.5307 0.2163
-14 8 4 -1.2979 0.1046
-14 8 5 8.5366 0.0092
-14 8 6 2.3516 -0.0037
-14 8 7 -3.2658 0.0120
-14 8 8 9.7980 -0.0168
-14 8 9 -5.1847 0.0479
-14 8 10 -5.6171 0.0923
-14 8 11 -10.8339 -0.0571
-14 8 12 -8.0025 -0.0431
-14 8 13 -6.8709 0.0467
-14 8 14 -7.3165 -0.0240
-14 8 15 -1.9157 0.2016
-14 8 16 -1.4703 0.0716
-14 8 17 -0.6210 0.0133
-14 8 18 6.1011 0.0973
-14 8 19 -0.1899 -0.0391
-14 8 20 4.4583 -0.0967
-14 8 21 -4.9635 0.1300
-14 8 22 7.7066 -0.1201
-14 8 23 2.9176 0.1224
-14 8 24 0.4334 0.0561
-14 8 25 1.1641 0.1629
-14 8 26 -2.2626 0.2498
-14 8 27 -3.8227 -0.0600
-14 8 28 0.4287 0.3940
-14 8 29 -0.4714 -0.3338
-14 10 1 -6.9117 -0.0199
-14 10 2 10.0031 -0.0046
-14 10 3 3.2484 0.1136
-14 10 4 -2.5043 0.0789
-14 10 5 2.2474 -0.0997
-14 10 6 0.3689 -0.1080
-14 10 7 -4.4404 -0.0622
-14 10 8 6.6157 -0.0485
-14 10 9 -5.0917 0.0960
-14 10 10 4.7677 -0.0018
-14 10 11 -3.7086 -0.0093
-14 10 12 11.6162 -0.0261
-14 10 13 2.0408 0.0750
-14 10 14 3.5118 0.0938
-14 10 15 -7.7525 0.0623
-14 10 16 2.5257 0.0589
-14 10 17 -5.4934 0.0733
-14 10 18 3.9000 -0.0605
-14 10 19 3.5544 0.1781
-14 10 20 -0.8951 -0.0670
-14 10 21 -3.5693 -0.1456
-14 10 22 -3.4513 0.0332
-14 10 23 3.7474 -0.1641
-14 10 24 -9.8933 -0.1095
-14 10 25 2.3844 0.0048
-14 10 26 -3.8752 0.1246
-14 12 1 -5.4086 0.0106
-14 12 2 15.5270 0.0679
-14 12 3 9.5748 0.0502
-14 12 4 3.2646 0.0519
-14 12 5 6.7206 -0.0653
-14 12 6 5.5638 -0.0821
-14 12 7 1.5448 -0.0394
-14 12 8 1.7070 0.0642
-14 12 9 -4.5693 0.0100
-14 12 10 -6.0764 0.0247
-14 12 11 -0.4720 -0.0273
-14 12 12 8.0080 -0.0569
-14 12 13 14.8921 0.1824
-14 12 14 7.3295 0.0568
-14 12 15 4.0737 0.1179
-14 12 16 0.8496 -0.0684
-14 12 17 0.6891 -0.0324
-14 12 18 -6.7676 -0.1220
-14 12 19 1.4670 -0.1605
-14 12 20 -4.2802 -0.0818
-14 12 21 -7.4087 -0.3137
-14 12 22 2.5404 -0.2796
-14 12 23 2.6478 0.1217
-14 14 1 4.7813 -0.0553
-14 14 2 16.0107 0.1891
-14 14 3 12.6101 -0.0723
-14 14 4 6.0975 -0.0367
-14 14 5 8.1569 0.1041
-14 14 6 7.6370 -0.0541
-14 14 7 10.4756 -0.0192
-14 14 8 1.7817 0.2639
-14 14 9 2.7823 -0.1205
-14 14 10 -12.5848 -0.0566
-14 14 11 -3.5942 0.1848
-14 14 12 -4.8110 -0.1757
-14 14 13 7.2875 0.2017
-14 14 14 -1.6273 0.3099
-14 14 15 8.5890 -0.1382
-14 14 16 0.9308 0.1009
-14 14 17 12.7626 0.0122
-14 14 18 -2.2879 -0.5301
-14 16 1 2.3160 -0.0641
-14 16 2 9.4774 0.2148
-14 16 3 11.2204 -0.1028
-14 16 4 -1.2717 -0.2586
-14 16 5 11.6571 0.1890
-14 16 6 -0.9648 0.0945
-14 16 7 10.6935 -0.0379
-14 16 8 -0.4911 0.3791
-14 16 9 -0.5559 0.0299
-14 16 10 -7.1127 -0.3483
-14 16 11 -8.6129 0.4118
-13 1 1 1.6241 0.0257
-13 1 2 -18.8432 0.0112
-13 1 3 5.1841 -0.2454
-13 1 4 -22.3472 0.4559
-13 1 5 4.2431 0.2366
-13 1 6 -2.5993 0.3207
-13 1 7 1.3472 -0.0601
-13 1 8 -12.0093 0.3039
-13 1 9 -0.4904 -0.1075
-13 1 10 -10.1100 -0.4096
-13 1 11 -1.5781 0.0939
-13 1 12 -4.4777 0.4431
-13 1 13 1.3466 0.1078
-13 1 14 -3.5711 -0.0912
-13 1 15 -0.3706 0.1181
-13 1 16 -5.3337 -0.1014
-13 1 17 -3.1355 0.0071
-13 1 18 -4.2679 0.3197
-13 1 19 -0.2727 -0.1303
-13 1 20 -0.6005 -0.3130
-13 1 21 -0.6669 -0.0718
-13 1 22 -10.4698 0.0557
-13 1 23 -4.5013 0.0371
-13 1 24 -3.7837 0.0079
-13 1 25 -3.2977 -0.0443
-13 1 26 -2.1420 -0.1781
-13 1 27 -1.0186 0.1750
-13 1 28 -4.5371 0.2388
-13 1 29 -0.9178 0.1067
-13 1 30 -4.4339 -0.1002
-13 1 31 -0.4493 0.1799
-13 3 1 11.2356 0.0720
-13 3 2 -9.3440 0.3314
-13 3 3 13.1230 -0.0096
-13 3 4 -9.9349 0.1866
-13 3 5 6.8942 0.3676
-13 3 6 6.3365 0.1636
-13 3 7 0.8953 0.0305
-13 3 8 -2.6170 0.0255
-13 3 9 -2.4292 -0.0362
-13 3 10 1.4937 -0.4018
-13 3 11 -3.1301 -0.0983
-13 3 12 -2.2565 0.4581
-13 3 13 2.6550 0.1593
-13 3 14 -1.9704 -0.1313
-13 3 15 -0.1813 0.1613
-13 3 16 -0.9992 -0.1410
-13 3 17 -6.3352 -0.0246
-13 3 18 -5.2162 0.1990
-13 3 19 -4.6523 -0.0278
-13 3 20 2.4113 -0.3048
-13 3 21 -3.7864 -0.0777
-13 3 22 0.8950 0.1125
-13 3 23 -5.6495 0.0739
-13 3 24 3.6797 0.1391
-13 3 25 -2.0657 -0.0543
-13 3 26 1.7511 -0.1383
-13 3 27 -0.4866 -0.0151
-13 3 28 0.3069 0.1035
-13 3 29 -0.3180 0.1208
-13 3 30 -2.7336 0.0774
-13 3 31 1.6808 0.2769
-13 5 1 4.7327 0.0882
-13 5 2 -8.1266 0.1440
-13 5 3 -1.2630 -0.0852
-13 5 4 3.5968 -0.0851
-13 5 5 -1.4827 0.1689
-13 5 6 13.4337 0.1004
-13 5 7 2.8956 0.1385
-13 5 8 7.3962 0.0496
-13 5 9 1.6915 0.0474
-13 5 10 19.4080 -0.1163
-13 5 11 0.1858 -0.0699
-13 5 12 10.9734 0.2853
-13 5 13 0.2004 0.2664
-13 5 14 8.5866 -0.1885
-13 5 15 0.2243 -0.0218
-13 5 16 9.2036 -0.0310
-13 5 17 -1.9111 -0.1510
-13 5 18 -2.4946 0.1102
-13 5 19 -7.4528 0.1054
-13 5 20 -4.3238 -0.2433
-13 5 21 -5.8966 -0.0580
-13 5 22 -6.3217 0.0493
-13 5 23 1.5838 0.1051
-13 5 24 -0.2212 0.1223
-13 5 25 9.0383 0.1497
-13 5 26 1.8827 0.0121
-13 5 27 4.8067 0.0500
-13 5 28 1.5236 0.1485
-13 5 29 -0.2823 -0.0477
-13 7 1 -8.7716 0.0292
-13 7 2 -6.3034 0.0923
-13 7 3 -15.7236 -0.2252
-13 7 4 3.2396 -0.1469
-13 7 5 -8.4211 -0.0454
-13 7 6 1.0803 0.0287
-13 7 7 3.6872 0.0256
-13 7 8 -0.4657 0.0164
-13 7 9 7.0336 0.0544
-13 7 10 20.5731 -0.0709
-13 7 11 8.7164 0.0994
-13 7 12 17.3922 0.1039
-13 7 13 1.0911 0.1289
-13 7 14 12.7041 0.0237
-13 7 15 -2.2175 -0.2378
-13 7 16 8.6778 0.0323
-13 7 17 -0.1821 -0.0794
-13 7 18 -0.4880 -0.0484
-13 7 19 0.5814 0.1571
-13 7 20 -8.2557 -0.0234
-13 7 21 3.9573 -0.0919
-13 7 22 -14.5172 0.0493
-13 7 23 1.7810 -0.0876
-13 7 24 -4.5830 -0.0229
-13 7 25 5.2443 -0.0734
-13 7 26 1.2652 -0.0549
-13 7 27 3.9746 0.0768
-13 7 28 0.9860 -0.0426
-13 7 29 0.5744 0.1980
-13 9 1 -0.2765 0.0195
-13 9 2 -4.4533 0.0367
-13 9 3 -5.7983 -0.1276
-13 9 4 5.6525 -0.0691
-13 9 5 -1.4514 0.0671
-13 9 6 -4.2402 0.0879
-13 9 7 3.8247 0.0063
-13 9 8 -11.2639 0.0173
-13 9 9 3.4344 -0.0859
-13 9 10 -0.2762 0.0117
-13 9 11 4.6810 0.0164
-13 9 12 0.7875 0.0406
-13 9 13 1.2853 0.0091
-13 9 14 5.3984 -0.0391
-13 9 15 3.4151 -0.0423
-13 9 16 -0.5428 -0.0942
-13 9 17 0.7052 -0.0477
-13 9 18 -4.6640 -0.0126
-13 9 19 3.3064 -0.1454
-13 9 20 -3.1482 0.1584
-13 9 21 7.9030 -0.0600
-13 9 22 -0.0680 0.0871
-13 9 23 -5.0512 -0.0189
-13 9 24 6.8078 0.0238
-13 9 25 -2.4139 -0.0308
-13 9 26 0.8248 -0.2768
-13 9 27 2.3434 0.2532
-13 9 28 -4.2606 -0.3554
-13 9 29 0.2166 0.3811
-13 11 1 4.6682 -0.0008
-13 11 2 -12.7143 -0.0381
-13 11 3 -6.4061 -0.1152
-13 11 4 3.2731 -0.0304
-13 11 5 -0.5100 0.0983
-13 11 6 -2.4192 0.0737
-13 11 7 3.6993 -0.0021
-13 11 8 -2.8470 0.0429
-13 11 9 2.8313 -0.1003
-13 11 10 -1.5362 0.0844
-13 11 11 -4.0748 0.0805
-13 11 12 -11.2800 -0.0381
-13 11 13 -7.5476 -0.0187
-13 11 14 -3.9855 -0.0779
-13 11 15 5.7402 -0.0789
-13 11 16 -1.7110 0.0595
-13 11 17 2.4889 -0.1038
-13 11 18 1.4482 0.0030
-13 11 19 2.5589 0.0497
-13 11 20 1.8180 -0.1051
-13 11 21 5.9712 0.2764
-13 11 22 2.8160 0.0479
-13 11 23 -6.9579 0.0680
-13 11 24 7.2165 0.3714
-13 11 25 -0.7529 0.1892
-13 11 26 2.3623 0.1287
-13 13 1 -4.1346 -0.0300
-13 13 2 -16.5198 -0.0914
-13 13 3 -9.4865 -0.0456
-13 13 4 -4.1867 0.0050
-13 13 5 -0.8582 0.0184
-13 13 6 -8.2047 -0.0112
-13 13 7 -2.8805 0.0341
-13 13 8 2.6360 -0.1263
-13 13 9 0.1657 0.0488
-13 13 10 11.4879 0.0655
-13 13 11 -1.9461 -0.0318
-13 13 12 -0.4533 0.0529
-13 13 13 -9.0224 -0.1930
-13 13 14 -0.3144 -0.1229
-13 13 15 -3.8494 -0.0678
-13 13 16 -1.1734 0.0024
-13 13 17 -7.5357 0.0156
-13 13 18 3.6507 0.1933
-13 13 19 2.8734 0.0946
-13 13 20 2.8633 0.4143
-13 13 21 10.1077 -0.0359
-13 13 22 -1.0675 0.3989
-13 13 23 -4.3599 -0.3192
-13 15 1 -6.6745 0.0164
-13 15 2 -14.9846 -0.1040
-13 15 3 -6.4300 0.0132
-13 15 4 -2.2361 0.1478
-13 15 5 0.4803 -0.1681
-13 15 6 -2.5844 -0.1498
-13 15 7 -3.7780 0.0976
-13 15 8 5.0569 -0.2378
-13 15 9 0.9746 0.0443
-13 15 10 9.2017 0.2589
-13 15 11 3.0884 -0.2399
-13 15 12 0.6043 0.0319
-13 15 13 -2.8991 0.1970
-13 15 14 4.1020 -0.3222
-13 15 15 -5.1395 0.2269
-13 15 16 -1.7434 0.2770
-13 15 17 -14.2072 -0.5428
-13 15 18 -2.2452 0.8504
-13 15 19 -5.9339 -0.6566
-13 17 1 1.2432 -0.1104
-13 17 2 -2.9661 -0.0619
-13 17 3 -7.6153 0.0547
-13 17 4 4.9385 0.3317
-13 17 5 -6.5769 -0.1087
-13 17 6 -0.7764 -0.2692
-13 17 7 -2.3335 0.0797
-13 17 8 2.4133 -0.1520
-13 17 9 7.2853 -0.1462
-13 17 10 3.6432 0.3463
-13 17 11 6.3270 -0.2966
-13 17 12 -5.5071 -0.2722
-12 0 2 17.4925 -0.6122
-12 0 4 14.6868 0.0135
-12 0 6 1.3226 -0.5930
-12 0 8 14.7945 -0.3093
-12 0 10 12.5849 0.3829
-12 0 12 8.1312 -0.5887
-12 0 14 7.7629 0.1974
-12 0 16 7.1395 -0.0419
-12 0 18 1.6757 -0.2792
-12 0 20 4.0059 0.2485
-12 0 22 12.4576 -0.1516
-12 0 24 3.8920 -0.0579
-12 0 26 4.7302 0.1254
-12 0 28 3.6366 -0.1545
-12 0 30 2.3187 0.1805
-12 2 1 -7.6508 0.0524
-12 2 2 11.4656 -0.6727
-12 2 3 -11.4471 0.0151
-12 2 4 9.1171 0.0450
-12 2 5 -7.8890 0.0513
-12 2 6 -2.6783 -0.4774
-12 2 7 -5.0201 0.1919
-12 2 8 8.6721 -0.0707
-12 2 9 -3.8723 0.0037
-12 2 10 6.2181 0.3915
-12 2 11 -4.0602 0.0983
-12 2 12 7.0892 -0.6066
-12 2 13 -5.4471 -0.1162
-12 2 14 6.3077 0.1749
-12 2 15 0.4730 -0.0946
-12 2 16 5.6715 -0.0311
-12 2 17 2.5344 -0.0040
-12 2 18 1.1757 -0.2267
-12 2 19 -1.0152 0.0647
-12 2 20 -2.5808 0.2629
-12 2 21 1.3487 0.0562
-12 2 22 2.7380 -0.0959
-12 2 23 4.2078 0.0207
-12 2 24 -2.1133 0.0115
-12 2 25 0.4960 0.1047
-12 2 26 -0.5136 0.1506
-12 2 27 0.4163 -0.0702
-12 2 28 0.2756 -0.1852
-12 2 29 0.5612 -0.0816
-12 2 30 3.5225 0.0270
-12 2 31 -3.0919 -0.3485
-12 4 1 -7.2044 0.0193
-12 4 2 6.3170 -0.3374
-12 4 3 -8.6011 -0.0700
-12 4 4 -3.7557 0.0439
-12 4 5 -7.7285 -0.0493
-12 4 6 -13.5544 -0.3410
-12 4 7 -7.5093 -0.0782
-12 4 8 -7.2042 0.0823
-12 4 9 -5.6700 0.0319
-12 4 10 -12.9438 0.1251
-12 4 11 -5.3627 0.2675
-12 4 12 -4.6151 -0.4631
-12 4 13 -7.3791 -0.2526
-12 4 14 -4.9552 0.2661
-12 4 15 -4.2036 -0.0477
-12 4 16 -2.5761 -0.0135
-12 4 17 1.8538 0.0635
-12 4 18 0.9744 -0.0965
-12 4 19 5.9614 -0.0149
-12 4 20 -4.9248 0.2458
-12 4 21 5.1704 0.0615
-12 4 22 -3.6330 -0.1126
-12 4 23 0.9481 -0.1048
-12 4 24 -5.3628 -0.0705
-12 4 25 -4.9943 -0.0760
-12 4 26 -3.9601 0.0929
-12 4 27 -1.9973 -0.0453
-12 4 28 -0.6573 -0.1117
-12 4 29 0.3715 -0.0326
-12 6 1 9.0603 -0.0289
-12 6 2 5.4062 -0.0512
-12 6 3 11.1151 0.1233
-12 6 4 -5.3828 0.1581
-12 6 5 2.4940 0.0243
-12 6 6 -9.1175 -0.1849
-12 6 7 -7.5870 -0.1409
-12 6 8 -12.8566 -0.0079
-12 6 9 -8.2094 -0.0217
-12 6 10 -28.7788 0.0073
-12 6 11 -5.3184 -0.0144
-12 6 12 -17.7035 -0.1417
-12 6 13 -2.4311 -0.2845
-12 6 14 -14.2021 0.0949
-12 6 15 -4.1678 0.2114
-12 6 16 -11.3791 -0.1210
-12 6 17 -1.2574 0.0600
-12 6 18 -1.8773 -0.0114
-12 6 19 3.4979 -0.1688
-12 6 20 4.8297 0.1427
-12 6 21 -0.6044 0.0195
-12 6 22 9.0103 0.0315
-12 6 23 -4.1736 -0.0886
-12 6 24 2.6209 0.0274
-12 6 25 -7.6244 -0.0744
-12 6 26 -1.8704 -0.0351
-12 6 27 -2.9299 -0.0481
-12 6 28 -0.3004 -0.1411
-12 8 1 7.2516 -0.0345
-12 8 2 -1.5349 -0.0585
-12 8 3 9.5854 0.1113
-12 8 4 -5.5725 0.0984
-12 8 5 3.6480 -0.0188
-12 8 6 6.6174 -0.0632
-12 8 7 -3.2677 -0.0392
-12 8 8 4.6189 0.0510
-12 8 9 -4.0399 0.0235
-12 8 10 -14.4424 0.0308
-12 8 11 -3.4503 -0.0911
-12 8 12 -11.2977 -0.0687
-12 8 13 1.8052 -0.1146
-12 8 14 -10.9966 -0.0776
-12 8 15 1.7166 0.1292
-12 8 16 -6.5810 0.0225
-12 8 17 -0.1750 -0.0257
-12 8 18 1.2587 0.0418
-12 8 19 -7.6002 -0.0083
-12 8 20 7.6215 -0.1184
-12 8 21 -9.1465 0.0993
-12 8 22 5.5088 -0.0763
-12 8 23 2.4713 0.0901
-12 8 24 -1.8005 -0.0008
-12 8 25 0.4987 0.0566
-12 8 26 0.4680 0.1479
-12 8 27 -2.0106 -0.2673
-12 8 28 3.7670 0.1002
-12 8 29 -2.8578 -0.3535
-12 8 30 5.9377 -0.0759
-12 10 1 -1.2459 -0.0097
-12 10 2 2.0458 0.0072
-12 10 3 2.8688 0.1067
-12 10 4 -9.8539 0.0319
-12 10 5 -2.5656 -0.1195
-12 10 6 4.9553 -0.0690
-12 10 7 -3.0160 0.0354
-12 10 8 7.1517 -0.0977
-12 10 9 1.8697 0.1206
-12 10 10 1.8916 -0.0951
-12 10 11 5.5696 -0.1282
-12 10 12 4.3084 0.0694
-12 10 13 4.3107 -0.1200
-12 10 14 -3.0899 0.0483
-12 10 15 -3.1753 -0.0001
-12 10 16 0.5940 0.0413
-12 10 17 -2.4738 0.1071
-12 10 18 2.4116 0.0328
-12 10 19 -8.3811 0.0991
-12 10 20 0.7178 -0.0003
-12 10 21 -3.4721 -0.0861
-12 10 22 -5.8902 -0.0777
-12 10 23 10.5793 -0.0964
-12 10 24 -7.8039 -0.1847
-12 10 25 -0.0593 -0.2162
-12 10 26 1.0226 0.0922
-12 10 27 -4.8489 -0.3223
-12 10 28 3.6987 -0.1219
-12 12 1 3.4411 0.0772
-12 12 2 9.5769 -0.0007
-12 12 3 5.7279 0.0828
-12 12 4 -4.0884 0.0112
-12 12 5 -1.7713 -0.1036
-12 12 6 4.1755 -0.0165
-12 12 7 2.3788 0.0596
-12 12 8 -5.2755 -0.0536
-12 12 9 4.0860 -0.0065
-12 12 10 -6.8774 -0.0561
-12 12 11 7.1381 -0.1543
-12 12 12 2.7959 0.0589
-12 12 13 5.0981 0.1058
-12 12 14 -0.7267 0.0111
-12 12 15 -3.0764 0.1213
-12 12 16 1.9472 0.0283
-12 12 17 -0.0756 -0.0539
-12 12 18 -2.7679 0.1369
-12 12 19 -9.2048 -0.2267
-12 12 20 -3.0332 0.0937
-12 12 21 -5.9956 -0.0839
-12 12 22 -1.1931 -0.0767
-12 12 23 7.9028 0.0870
-12 12 24 -1.5394 -0.2701
-12 12 25 -0.6457 -0.2491
-12 12 26 -1.5885 -0.2175
-12 14 1 8.3047 0.0535
-12 14 2 12.3733 0.0310
-12 14 3 -1.6930 0.0077
-12 14 4 -0.2389 -0.0441
-12 14 5 -8.9246 0.0312
-12 14 6 3.6121 0.0905
-12 14 7 4.1968 -0.0836
-12 14 8 -7.4571 0.1095
-12 14 9 5.5427 -0.0681
-12 14 10 -7.9525 -0.1564
-12 14 11 4.6593 0.0817
-12 14 12 -2.0914 -0.0645
-12 14 13 4.1896 -0.0315
-12 14 14 -5.3869 0.1697
-12 14 15 4.2420 -0.0360
-12 14 16 3.2065 -0.0344
-12 14 17 11.0391 0.2575
-12 14 18 0.0367 -0.4523
-12 14 19 -3.7813 0.2503
-12 14 20 -2.8834 -0.5521
-12 14 21 -8.6083 0.2242
-12 14 22 0.0518 0.0487
-12 16 1 2.4043 0.0293
-12 16 2 9.1667 -0.0350
-12 16 3 -0.3301 -0.0110
-12 16 4 -1.7746 -0.1812
-12 16 5 -5.0922 0.1799
-12 16 6 -0.7051 0.2435
-12 16 7 -1.2964 -0.1747
-12 16 8 -7.2213 0.0742
-12 16 9 -3.6529 0.0842
-12 16 10 -0.1503 -0.1960
-12 16 11 1.7022 0.1660
-12 16 12 5.0697 0.2488
-12 16 13 5.2800 -0.5937
-12 16 14 -3.3952 0.0445
-12 16 15 3.4068 -0.0840
-12 16 16 2.2258 -0.7868
-12 16 17 11.5997 0.8900
-12 18 1 -2.3946 0.1189
-12 18 2 -4.3949 -0.0917
-12 18 3 3.4545 -0.1055
-12 18 4 -5.0150 -0.3068
-12 18 5 2.3426 0.1112
-12 18 6 3.6360 0.2800
-12 18 7 -0.4054 -0.1430
-12 18 8 -2.5724 -0.0660
-11 1 1 3.8763 -0.0121
-11 1 2 -6.2159 0.1749
-11 1 3 7.2422 -0.1162
-11 1 4 -3.7057 -0.7466
-11 1 5 5.9853 -0.2313
-11 1 6 1.8945 0.7611
-11 1 7 6.3204 -0.0948
-11 1 8 -12.6649 -0.0570
-11 1 9 6.5067 0.0205
-11 1 10 -11.4667 -0.3752
-11 1 11 5.0631 -0.0448
-11 1 12 -9.1094 0.5346
-11 1 13 2.8170 0.0591
-11 1 14 -8.2785 -0.2683
-11 1 15 -0.2805 0.0398
-11 1 16 -5.3827 0.1637
-11 1 17 0.8570 0.0795
-11 1 18 0.7967 0.2054
-11 1 19 2.5051 -0.0738
-11 1 20 -1.8135 -0.1886
-11 1 21 0.7423 -0.0396
-11 1 22 -5.4773 0.0878
-11 1 23 0.2155 -0.0902
-11 1 24 -0.3082 0.0009
-11 1 25 1.2369 -0.0413
-11 1 26 -1.7083 -0.1152
-11 1 27 -0.8445 0.0606
-11 1 28 1.6225 0.2333
-11 1 29 0.0108 -0.1123
-11 1 30 -0.4696 -0.0821
-11 1 31 2.9852 0.2102
-11 3 1 7.8037 -0.0100
-11 3 2 -3.4385 0.3172
-11 3 3 15.8227 -0.0457
-11 3 4 3.0198 -0.2409
-11 3 5 14.0608 -0.3913
-11 3 6 8.4334 0.5167
-11 3 7 13.8246 0.0383
-11 3 8 -0.3843 -0.2949
-11 3 9 14.0232 -0.0573
-11 3 10 2.2223 -0.1202
-11 3 11 12.7924 -0.3324
-11 3 12 -1.8252 0.5225
-11 3 13 10.1675 0.1503
-11 3 14 -1.7903 -0.2818
-11 3 15 3.6379 -0.0016
-11 3 16 -2.0495 0.0941
-11 3 17 0.4290 -0.0030
-11 3 18 3.2063 0.0936
-11 3 19 -0.3127 -0.0422
-11 3 20 7.5260 -0.1583
-11 3 21 -1.7304 -0.0566
-11 3 22 4.3885 0.1131
-11 3 23 -0.3161 -0.0265
-11 3 24 5.8528 0.0095
-11 3 25 3.2641 -0.0358
-11 3 26 3.7583 -0.1302
-11 3 27 -0.6842 -0.0118
-11 3 28 -0.3707 0.1393
-11 3 29 0.6577 0.0645
-11 3 30 -6.2527 0.0718
-11 5 1 -5.2377 0.0098
-11 5 2 -6.6322 0.0474
-11 5 3 2.1958 -0.0523
-11 5 4 6.1713 -0.0687
-11 5 5 8.8506 -0.1095
-11 5 6 12.9948 0.3527
-11 5 7 13.6627 0.2151
-11 5 8 15.4679 -0.1002
-11 5 9 11.3040 -0.1785
-11 5 10 23.4463 0.0932
-11 5 11 8.9877 -0.1925
-11 5 12 12.2914 0.1781
-11 5 13 11.6476 0.3051
-11 5 14 10.4242 -0.2136
-11 5 15 10.8865 -0.1370
-11 5 16 7.1812 0.1509
-11 5 17 1.0916 -0.0101
-11 5 18 4.2184 0.0333
-11 5 19 -5.0325 0.0532
-11 5 20 4.4286 -0.1352
-11 5 21 -1.5653 -0.0022
-11 5 22 0.1174 -0.0089
-11 5 23 2.5065 0.1330
-11 5 24 0.7825 -0.0219
-11 5 25 6.3713 0.1107
-11 5 26 2.0236 -0.0130
-11 5 27 0.6371 -0.0057
-11 5 28 -3.8859 0.1332
-11 5 29 -2.7005 -0.0040
-11 7 1 -11.3989 0.0793
-11 7 2 -1.1212 -0.0124
-11 7 3 -9.7612 -0.0796
-11 7 4 2.0945 -0.0959
-11 7 5 -1.9510 -0.0422
-11 7 6 -2.5914 0.1203
-11 7 7 5.8210 0.0934
-11 7 8 8.7494 -0.0895
-11 7 9 3.4309 -0.0783
-11 7 10 23.7252 -0.0352
-11 7 11 0.6486 0.1273
-11 7 12 11.7911 0.0451
-11 7 13 1.3643 0.1895
-11 7 14 12.2480 0.1051
-11 7 15 3.3373 -0.2159
-11 7 16 11.2991 0.0912
-11 7 17 1.5943 0.0860
-11 7 18 1.3504 -0.0344
-11 7 19 5.6656 0.1125
-11 7 20 -5.9129 -0.0235
-11 7 21 7.5850 0.0153
-11 7 22 -5.8229 -0.0415
-11 7 23 0.8814 -0.0060
-11 7 24 -2.3082 -0.0022
-11 7 25 1.9569 -0.0285
-11 7 26 -0.5050 0.0154
-11 7 27 1.0474 0.1376
-11 7 28 -4.3066 0.0557
-11 7 29 0.1893 0.1585
-11 7 30 -9.7071 0.1015
-11 9 1 -2.5287 0.0299
-11 9 2 6.6779 -0.0142
-11 9 3 -2.3525 -0.0537
-11 9 4 7.7992 -0.0654
-11 9 5 1.6611 0.1135
-11 9 6 -11.6564 0.0181
-11 9 7 1.4751 -0.0093
-11 9 8 -6.2309 0.0077
-11 9 9 -4.2754 -0.1022
-11 9 10 4.0575 0.0110
-11 9 11 -6.8074 0.1509
-11 9 12 1.0961 0.0021
-11 9 13 -7.1186 0.1364
-11 9 14 8.1742 0.0672
-11 9 15 -3.2161 -0.0057
-11 9 16 3.8391 -0.0968
-11 9 17 3.1346 -0.0086
-11 9 18 -4.4684 -0.0195
-11 9 19 11.6613 -0.1271
-11 9 20 -3.8358 0.1119
-11 9 21 2.0017 -0.0546
-11 9 22 5.3473 0.1288
-11 9 23 -9.7160 -0.0220
-11 9 24 4.9566 0.0712
-11 9 25 0.2289 0.1298
-11 9 26 -3.0705 -0.1166
-11 9 27 6.0977 0.3561
-11 9 28 -6.1556 0.2370
-11 9 29 7.3758 0.1929
-11 11 1 -3.3861 -0.0859
-11 11 2 1.4529 0.0266
-11 11 3 -2.7909 -0.0551
-11 11 4 9.9240 -0.0516
-11 11 5 1.1653 0.1377
-11 11 6 -4.4407 0.0604
-11 11 7 -4.6409 -0.1278
-11 11 8 3.7865 0.1707
-11 11 9 -8.7660 0.0029
-11 11 10 3.7858 0.0076
-11 11 11 -9.5818 0.2589
-11 11 12 -0.2592 -0.1150
-11 11 13 -4.4126 0.0186
-11 11 14 4.1778 0.0192
-11 11 15 3.0592 -0.0578
-11 11 16 -1.8818 -0.1036
-11 11 17 5.4371 -0.0178
-11 11 18 0.6318 -0.1863
-11 11 19 10.0708 0.0469
-11 11 20 3.4819 -0.1676
-11 11 21 -3.9173 0.0852
-11 11 22 5.0334 0.0365
-11 11 23 -11.4379 0.0983
-11 11 24 2.3367 0.2111
-11 11 25 3.4140 0.1954
-11 11 26 -1.0974 0.1966
-11 11 27 5.5037 0.0187
-11 13 1 -6.8093 -0.1068
-11 13 2 -1.9859 0.0459
-11 13 3 3.9120 0.0451
-11 13 4 6.9917 0.0020
-11 13 5 2.8192 0.0546
-11 13 6 -2.1243 0.0100
-11 13 7 -14.4701 -0.0321
-11 13 8 9.3069 -0.0111
-11 13 9 -14.4636 0.1309
-11 13 10 7.1944 0.0492
-11 13 11 -8.5425 0.0665
-11 13 12 5.1051 0.0687
-11 13 13 -0.5597 -0.1438
-11 13 14 4.9550 -0.0775
-11 13 15 0.9754 -0.0264
-11 13 16 -4.3569 -0.1883
-11 13 17 -1.7585 0.0956
-11 13 18 2.9109 -0.0232
-11 13 19 11.9280 0.0893
-11 13 20 3.1148 0.0212
-11 13 21 6.6388 -0.1584
-11 13 22 -1.9031 -0.1681
-11 13 23 -3.7610 -0.1899
-11 13 24 -1.2637 -0.0933
-11 15 1 -4.0116 0.0066
-11 15 2 -7.6758 0.0163
-11 15 3 11.3715 0.0128
-11 15 4 3.6496 0.0756
-11 15 5 11.5103 -0.0999
-11 15 6 0.9781 -0.1135
-11 15 7 -6.1186 0.1778
-11 15 8 5.6711 -0.0696
-11 15 9 -9.7626 -0.0752
-11 15 10 -3.6352 0.1582
-11 15 11 -10.7480 -0.0602
-11 15 12 0.3191 -0.0215
-11 15 13 -4.5394 0.4408
-11 15 14 5.9840 -0.0804
-11 15 15 -3.8780 -0.0401
-11 15 16 -3.8957 0.3722
-11 15 17 -10.4663 -0.6538
-11 15 18 0.9202 0.6329
-11 15 19 3.3181 -0.3787
-11 15 20 1.4920 0.2420
-11 17 1 2.5821 0.0844
-11 17 2 -1.1183 0.1526
-11 17 3 2.8710 -0.0062
-11 17 4 2.0641 0.1611
-11 17 5 2.9914 -0.1956
-11 17 6 -0.1042 -0.2157
-11 17 7 1.4884 0.3007
-11 17 8 5.0327 0.0706
-11 17 9 3.0065 -0.1927
-11 17 10 -5.6636 -0.1128
-11 17 11 -7.3303 -0.0507
-11 17 12 -5.2906 -0.5149
-11 17 13 -5.9940 0.6371
-11 17 14 2.4272 0.3175
-11 17 15 0.1749 -0.2597
-10 0 2 -7.1546 1.2274
-10 0 4 -5.5061 1.2052
-10 0 6 -6.2100 -0.8991
-10 0 8 12.0574 0.4162
-10 0 10 10.6913 0.3359
-10 0 12 5.5197 -0.3231
-10 0 14 6.8994 0.3116
-10 0 16 4.4506 -0.1746
-10 0 18 -0.7151 -0.1014
-10 0 20 0.8673 0.1502
-10 0 22 1.5710 -0.1286
-10 0 24 -0.1935 -0.1047
-10 0 26 -0.9357 0.1355
-10 0 28 -6.2133 -0.2605
-10 0 30 -1.7375 0.1355
-10 2 1 -6.3002 -0.1696
-10 2 2 -4.8115 0.6222
-10 2 3 -15.8058 0.3297
-10 2 4 -4.7150 0.7290
-10 2 5 -14.4125 0.5630
-10 2 6 -6.0549 -0.6423
-10 2 7 -17.6945 -0.2080
-10 2 8 6.7482 0.5083
-10 2 9 -17.7979 0.0113
-10 2 10 4.5879 0.1658
-10 2 11 -11.8321 0.2047
-10 2 12 3.8629 -0.3579
-10 2 13 -5.9544 -0.0330
-10 2 14 5.4216 0.2996
-10 2 15 -2.1427 0.0425
-10 2 16 2.4221 -0.1324
-10 2 17 -2.4255 -0.0870
-10 2 18 -3.9902 -0.1030
-10 2 19 -2.8716 0.0412
-10 2 20 -3.8665 0.1206
-10 2 21 -2.2152 0.0373
-10 2 22 -1.9502 -0.0450
-10 2 23 -2.4766 0.1049
-10 2 24 -3.7625 -0.0024
-10 2 25 -1.3738 0.0508
-10 2 26 -3.2154 0.1359
-10 2 27 2.8239 0.1102
-10 2 28 -2.3505 -0.2540
-10 2 29 -2.0451 0.0130
-10 2 30 2.5184 -0.0150
-10 4 1 -0.9654 -0.0849
-10 4 2 5.4459 0.0839
-10 4 3 -16.5652 0.2063
-10 4 4 -3.8656 0.0646
-10 4 5 -17.4988 0.2739
-10 4 6 -8.4711 -0.3635
-10 4 7 -20.1667 -0.3514
-10 4 8 -6.8709 0.3364
-10 4 9 -18.6891 0.3040
-10 4 10 -12.2703 -0.1252
-10 4 11 -16.0824 0.3157
-10 4 12 -5.9763 -0.1838
-10 4 13 -15.7399 -0.1904
-10 4 14 -3.4999 0.2477
-10 4 15 -9.6419 0.0847
-10 4 16 -3.3732 -0.1150
-10 4 17 -1.0965 -0.0256
-10 4 18 -7.1711 -0.0546
-10 4 19 1.7171 0.0686
-10 4 20 -8.2641 0.0549
-10 4 21 1.0625 0.0505
-10 4 22 -2.9172 -0.0429
-10 4 23 -0.7744 -0.0100
-10 4 24 -2.3437 -0.0225
-10 4 25 -3.0873 -0.0445
-10 4 26 -0.9369 0.0966
-10 4 27 2.7015 0.0979
-10 4 28 6.7573 -0.1128
-10 4 29 0.4784 -0.0475
-10 6 1 10.0815 -0.1225
-10 6 2 10.9483 0.0915
-10 6 3 0.2983 0.1026
-10 6 4 2.1146 -0.0038
-10 6 5 -5.3381 0.0882
-10 6 6 -1.6114 -0.2028
-10 6 7 -8.9085 -0.1397
-10 6 8 -13.6584 0.0967
-10 6 9 -2.5940 0.2867
-10 6 10 -20.7603 -0.0284
-10 6 11 -3.7699 -0.0553
-10 6 12 -7.6459 0.0246
-10 6 13 -12.3836 -0.2072
-10 6 14 -9.8622 -0.0234
-10 6 15 -10.2495 0.1949
-10 6 16 -9.7955 -0.1405
-10 6 17 -1.3721 -0.0708
-10 6 18 -4.3292 -0.0217
-10 6 19 -2.7085 -0.0568
-10 6 20 -1.7314 0.0770
-10 6 21 -4.2405 -0.0905
-10 6 22 3.7165 0.0960
-10 6 23 -1.3208 -0.0458
-10 6 24 4.9103 -0.0059
-10 6 25 -3.2466 -0.0007
-10 6 26 1.8482 -0.0201
-10 6 27 2.1683 0.0441
-10 6 28 8.1430 -0.0613
-10 6 29 4.8379 -0.0319
-10 8 1 5.1342 -0.0843
-10 8 2 -2.1331 0.0691
-10 8 3 2.4710 0.0464
-10 8 4 1.4126 0.0527
-10 8 5 -0.6788 -0.0225
-10 8 6 13.6110 0.0147
-10 8 7 -0.2501 0.0121
-10 8 8 -0.6367 0.1186
-10 8 9 7.9062 0.1350
-10 8 10 -6.2214 0.0804
-10 8 11 8.2288 -0.1628
-10 8 12 1.5240 -0.0660
-10 8 13 5.0680 -0.0698
-10 8 14 -9.5114 -0.1701
-10 8 15 2.5444 0.0685
-10 8 16 -6.4817 0.0637
-10 8 17 -3.6460 -0.0837
-10 8 18 5.3205 0.0291
-10 8 19 -10.9868 0.0389
-10 8 20 3.0379 -0.0330
-10 8 21 -3.2513 0.0176
-10 8 22 -2.1286 -0.0687
-10 8 23 5.2503 0.1122
-10 8 24 0.7987 -0.0494
-10 8 25 -0.8708 -0.0351
-10 8 26 2.5392 0.0508
-10 8 27 -4.7671 -0.2413
-10 8 28 7.1066 -0.1533
-10 8 29 -5.4856 -0.0784
-10 10 1 3.3433 0.0799
-10 10 2 -7.3758 0.0360
-10 10 3 -0.0303 0.0054
-10 10 4 -5.7378 0.1062
-10 10 5 -2.3262 -0.1488
-10 10 6 10.8895 -0.0321
-10 10 7 3.1784 0.1179
-10 10 8 -0.4101 -0.1240
-10 10 9 9.4623 0.0307
-10 10 10 -0.3802 0.0395
-10 10 11 11.3224 -0.2137
-10 10 12 -0.0155 0.0299
-10 10 13 9.6149 -0.0513
-10 10 14 -7.3469 -0.0301
-10 10 15 1.7177 -0.0083
-10 10 16 1.0262 0.1622
-10 10 17 -7.1407 0.0812
-10 10 18 3.5882 0.0500
-10 10 19 -5.9471 0.1519
-10 10 20 -3.0551 -0.0072
-10 10 21 11.0235 0.0095
-10 10 22 -7.5332 -0.1004
-10 10 23 11.3456 -0.0471
-10 10 24 -1.3861 -0.0420
-10 10 25 -4.3530 -0.1224
-10 10 26 4.3703 -0.1293
-10 10 27 -10.1202 -0.0121
-10 10 28 4.1882 -0.7203
-10 12 1 5.1051 0.1222
-10 12 2 -6.5925 -0.0621
-10 12 3 0.4393 -0.0954
-10 12 4 -8.5554 0.0476
-10 12 5 8.1169 -0.0508
-10 12 6 2.6802 -0.0925
-10 12 7 20.9058 0.1293
-10 12 8 -9.9818 -0.0562
-10 12 9 16.6786 -0.1825
-10 12 10 -7.4718 0.0708
-10 12 11 8.1440 -0.1415
-10 12 12 -8.0419 -0.0250
-10 12 13 -0.8571 0.1693
-10 12 14 -4.0533 0.0146
-10 12 15 -4.0074 0.0039
-10 12 16 3.8249 0.2197
-10 12 17 -5.0702 -0.1154
-10 12 18 -5.3089 0.1918
-10 12 19 -8.5298 -0.0891
-10 12 20 -3.9463 0.2096
-10 12 21 4.3627 0.0257
-10 12 22 0.7771 0.0990
-10 12 23 6.2032 0.0861
-10 12 24 0.7704 -0.1162
-10 12 25 -2.3592 0.1634
-10 14 1 2.6081 0.0078
-10 14 2 -3.2969 -0.0230
-10 14 3 -11.5672 -0.0890
-10 14 4 -8.9498 -0.0568
-10 14 5 1.4212 0.0461
-10 14 6 0.2546 0.0269
-10 14 7 24.5208 -0.0804
-10 14 8 -3.0679 0.1054
-10 14 9 22.5395 -0.0167
-10 14 10 2.3527 -0.1628
-10 14 11 12.0008 0.0391
-10 14 12 -6.9150 -0.1173
-10 14 13 -1.6857 -0.0920
-10 14 14 -4.1041 0.1899
-10 14 15 0.2714 0.0015
-10 14 16 4.7747 0.0263
-10 14 17 2.4153 0.1222
-10 14 18 -3.1240 -0.2574
-10 14 19 -12.4690 0.0922
-10 14 20 1.8361 0.0043
-10 14 21 -6.8099 0.2239
-10 14 22 4.9978 0.4534
-10 16 1 -2.4115 -0.1584
-10 16 2 3.7360 -0.0541
-10 16 3 -11.2910 0.0968
-10 16 4 -1.5236 -0.0973
-10 16 5 -5.6215 0.1064
-10 16 6 -0.8266 0.0900
-10 16 7 6.3854 -0.2735
-10 16 8 -0.6086 0.0095
-10 16 9 10.1075 0.3350
-10 16 10 10.0682 0.0356
-10 16 11 14.7813 -0.1013
-10 16 12 -0.4050 0.2164
-10 16 13 3.4475 -0.6119
-10 16 14 -3.7085 -0.2231
-10 16 15 1.2984 0.3786
-10 16 16 0.8949 -0.6843
-10 16 17 6.2016 0.7025
-10 16 18 -3.5940 -0.4199
-10 18 1 -4.3976 -0.2656
-10 18 2 -5.5061 -0.2517
-10 18 3 -3.5654 0.1583
-10 18 4 -2.3200 -0.0536
-10 18 5 0.6161 0.1737
-10 18 6 -0.9946 0.1834
-10 18 7 0.1129 -0.4323
-10 18 8 -3.4701 -0.1458
-10 18 9 -0.8784 0.2404
-9 1 1 2.3721 0.2381
-9 1 2 19.5565 -2.1246
-9 1 3 8.3418 -0.3515
-9 1 4 13.3344 -0.8664
-9 1 5 8.7404 -0.1867
-9 1 6 11.6686 0.7634
-9 1 7 12.7156 0.2724
-9 1 8 -7.9008 -0.5936
-9 1 9 10.4132 -0.0449
-9 1 10 -2.0518 -0.1756
-9 1 11 4.4878 -0.0014
-9 1 12 1.1018 0.1184
-9 1 13 2.0784 -0.0636
-9 1 14 -6.8250 -0.2938
-9 1 15 1.4526 0.0186
-9 1 16 -4.5596 0.0903
-9 1 17 1.3023 0.1768
-9 1 18 1.8896 0.0777
-9 1 19 2.0905 -0.0073
-9 1 20 4.0349 -0.1796
-9 1 21 2.8554 0.0443
-9 1 22 3.1325 0.0273
-9 1 23 1.7010 -0.0657
-9 1 24 3.2752 0.0204
-9 1 25 -0.9569 -0.0040
-9 1 26 5.3445 -0.1638
-9 1 27 -2.4463 -0.1464
-9 1 28 6.1708 0.3564
-9 1 29 1.4920 -0.0844
-9 1 30 0.3946 -0.0965
-9 3 1 4.0975 0.2756
-9 3 2 2.2946 -0.7333
-9 3 3 20.0092 -0.4903
-9 3 4 2.4551 -0.1818
-9 3 5 17.8907 -0.2318
-9 3 6 4.7505 0.3168
-9 3 7 24.4293 0.5548
-9 3 8 -1.8131 -0.5409
-9 3 9 22.3903 -0.2296
-9 3 10 5.1938 0.0378
-9 3 11 15.3419 -0.2210
-9 3 12 2.2682 0.1219
-9 3 13 11.0091 0.0295
-9 3 14 -1.9855 -0.2285
-9 3 15 5.0275 -0.0341
-9 3 16 2.1342 0.0414
-9 3 17 1.4732 0.0778
-9 3 18 6.1020 0.0745
-9 3 19 1.9523 -0.0871
-9 3 20 5.0731 -0.0816
-9 3 21 1.2602 -0.0582
-9 3 22 1.8502 0.0443
-9 3 23 -0.1939 -0.0658
-9 3 24 2.9080 0.0457
-9 3 25 -1.6801 -0.0153
-9 3 26 1.3662 -0.1721
-9 3 27 -4.6063 -0.1937
-9 3 28 -4.0160 0.2005
-9 3 29 3.2449 0.0669
-9 3 30 -3.9611 0.0208
-9 5 1 -3.2208 0.1886
-9 5 2 -17.4883 -0.1655
-9 5 3 12.6838 -0.2072
-9 5 4 -7.4572 0.0997
-9 5 5 10.4042 0.0181
-9 5 6 -1.5886 0.1613
-9 5 7 11.9040 0.2942
-9 5 8 6.0851 -0.1633
-9 5 9 7.0217 -0.4376
-9 5 10 12.5493 0.0716
-9 5 11 11.8109 -0.0516
-9 5 12 4.4891 -0.0550
-9 5 13 18.0580 0.1528
-9 5 14 5.8280 -0.0798
-9 5 15 9.1933 -0.0803
-9 5 16 7.3320 0.0895
-9 5 17 1.3386 0.0187
-9 5 18 7.0725 0.1135
-9 5 19 2.6088 -0.0702
-9 5 20 5.4410 -0.0450
-9 5 21 0.2297 0.0247
-9 5 22 -3.8323 -0.0405
-9 5 23 -0.9722 -0.0036
-9 5 24 -5.4112 0.0431
-9 5 25 1.2246 0.0137
-9 5 26 -4.8178 -0.0902
-9 5 27 -6.0202 -0.1671
-9 5 28 -11.0107 0.0518
-9 5 29 -4.2210 0.0410
-9 7 1 -3.7080 0.1614
-9 7 2 -12.7235 -0.1180
-9 7 3 1.9926 -0.1175
-9 7 4 -10.4356 0.0370
-9 7 5 0.2460 -0.0678
-9 7 6 -11.0846 0.0069
-9 7 7 -3.8111 -0.0453
-9 7 9 -13.3603 -0.2355
-9 7 10 2.1468 -0.1196
-9 7 11 -4.7852 0.1720
-9 7 12 -5.2442 0.0347
-9 7 13 4.5626 0.0463
-9 7 14 8.0232 0.1552
-9 7 15 1.6305 -0.0932
-9 7 16 4.7136 0.0002
-9 7 17 3.2566 0.0425
-9 7 18 -2.2468 -0.0023
-9 7 19 9.3633 0.0294
-9 7 20 2.0445 -0.0844
-9 7 21 3.8874 0.0869
-9 7 22 -3.5410 -0.0069
-9 7 23 -1.4845 -0.1314
-9 7 24 -6.3361 0.0497
-9 7 25 1.6047 -0.0397
-9 7 26 -2.0164 -0.0711
-9 7 27 -1.6418 0.0023
-9 7 28 -8.1867 -0.0131
-9 7 29 -2.7553 0.0187
-9 7 30 -6.8382 0.0775
-9 9 1 -1.3297 -0.0501
-9 9 2 2.6811 -0.0953
-9 9 3 3.8123 -0.0257
-9 9 4 -3.9134 -0.0890
-9 9 5 4.1806 0.0843
-9 9 6 -14.8512 -0.0452
-9 9 7 -2.1668 -0.1009
-9 9 8 -1.5996 -0.0207
-9 9 9 -11.6215 -0.0913
-9 9 10 -7.2486 -0.0674
-9 9 11 -12.9754 0.1040
-9 9 12 -5.1359 0.1016
-9 9 13 -12.0058 -0.0154
-9 9 14 8.1276 0.0493
-9 9 15 -4.1316 0.0404
-9 9 16 -2.8646 -0.1622
-9 9 17 5.5689 -0.0516
-9 9 18 -7.8933 0.0101
-9 9 19 2.6305 -0.1520
-9 9 20 3.2955 0.0476
-9 9 21 -8.9886 -0.0753
-9 9 22 4.6250 0.1086
-9 9 23 -7.5942 -0.1080
-9 9 24 -1.7548 -0.0702
-9 9 25 3.8597 0.0983
-9 9 26 -3.5956 0.0120
-9 9 27 11.4716 0.0514
-9 9 28 -6.8233 0.4496
-9 11 1 -4.1263 -0.1293
-9 11 2 5.7815 -0.0243
-9 11 3 -1.8350 0.1096
-9 11 4 1.1696 -0.1091
-9 11 5 -7.4935 0.0475
-9 11 6 -7.2044 0.1050
-9 11 7 -13.1872 -0.1589
-9 11 8 7.1446 0.0713
-9 11 9 -10.7352 0.1161
-9 11 10 4.0383 -0.0946
-9 11 11 -8.2304 0.1104
-9 11 12 7.1869 0.0498
-9 11 13 -4.2231 -0.0872
-9 11 14 3.8960 -0.0118
-9 11 15 2.5177 0.0189
-9 11 16 -3.4106 -0.1465
-9 11 17 4.7027 -0.0685
-9 11 18 3.8943 -0.0465
-9 11 19 -3.1090 -0.0460
-9 11 20 4.9842 -0.0967
-9 11 21 -14.0053 0.0417
-9 11 22 1.7286 -0.0268
-9 11 23 -6.9389 -0.0414
-9 11 24 -2.3028 0.0366
-9 11 25 3.3820 -0.2334
-9 11 26 -5.5745 0.4469
-9 13 1 -1.2611 -0.0132
-9 13 2 11.1484 0.0334
-9 13 3 -0.3324 0.1387
-9 13 4 8.1192 0.0267
-9 13 5 -21.0251 -0.0797
-9 13 6 -2.9451 0.0185
-9 13 7 -35.1149 -0.0010
-9 13 8 3.6711 -0.1275
-9 13 9 -23.0358 0.1243
-9 13 10 3.0072 0.0633
-9 13 11 -5.9283 -0.0816
-9 13 12 10.4093 0.1189
-9 13 13 7.0691 -0.1304
-9 13 14 0.3439 -0.1305
-9 13 15 2.7323 0.0815
-9 13 16 -2.2558 -0.1119
-9 13 17 1.8212 0.1231
-9 13 18 5.9998 -0.0117
-9 13 19 8.4389 0.0511
-9 13 20 -3.5163 -0.1735
-9 13 21 -0.6057 -0.1796
-9 13 22 -3.4858 -0.2262
-9 13 23 -2.2240 -0.3646
-9 15 1 1.3168 0.1145
-9 15 2 3.8868 0.0065
-9 15 3 9.0982 -0.0664
-9 15 4 5.1625 0.1075
-9 15 5 -6.7788 -0.0380
-9 15 6 -1.3245 -0.0865
-9 15 7 -23.1962 0.1340
-9 15 8 -4.9619 -0.0763
-9 15 9 -21.8568 -0.2951
-9 15 10 -8.6466 0.1810
-9 15 11 -13.0750 0.0977
-9 15 12 5.3412 -0.0454
-9 15 13 3.2003 0.2900
-9 15 14 0.3009 -0.0695
-9 15 15 -0.5291 -0.2258
-9 15 16 -1.9454 0.2899
-9 15 17 0.6684 -0.2810
-9 15 18 1.1958 0.2966
-9 15 19 12.1924 -0.1866
-9 15 20 -8.4816 -0.1083
-9 17 1 6.2107 0.2627
-9 17 2 0.1837 0.1106
-9 17 3 7.2730 -0.3172
-9 17 4 -1.3694 0.0498
-9 17 5 -1.1210 0.0158
-9 17 6 0.7008 -0.0193
-9 17 7 -4.4935 0.3070
-9 17 8 -0.9822 0.0490
-9 17 9 -7.5428 -0.4748
-9 17 10 -6.6737 -0.3349
-9 17 11 -11.6686 0.2837
-9 17 12 2.3404 -0.2700
-9 17 13 2.0920 0.2996
-9 17 14 1.2435 0.4760
-8 0 2 -33.0673 2.6609
-8 0 4 -24.2630 0.2780
-8 0 6 -18.8160 -0.7595
-8 0 8 4.1614 0.4226
-8 0 10 -10.5765 0.0747
-8 0 12 -6.9019 -0.0160
-8 0 14 11.6019 0.2246
-8 0 16 8.4949 -0.0256
-8 0 18 -2.0637 -0.0722
-8 0 20 -8.3048 0.2371
-8 0 22 -5.5728 -0.1075
-8 0 24 -4.9876 -0.0147
-8 0 26 -6.4894 0.1662
-8 0 28 -5.2807 -0.3380
-8 0 30 -1.8746 0.2727
-8 2 1 0.2632 -0.3496
-8 2 2 -16.4326 1.5723
-8 2 3 -10.5964 0.5692
-8 2 4 -10.0654 0.0777
-8 2 5 -11.4475 -0.0239
-8 2 6 -9.9465 -0.4279
-8 2 7 -20.0514 -0.5025
-8 2 8 3.6148 0.4564
-8 2 9 -14.3069 0.0922
-8 2 10 -8.7134 0.0459
-8 2 11 -7.6829 0.0122
-8 2 12 -3.1650 -0.0596
-8 2 13 -6.3492 0.0954
-8 2 14 7.3345 0.2060
-8 2 15 -2.5647 -0.0489
-8 2 16 1.9362 0.0199
-8 2 17 -0.7660 -0.1214
-8 2 18 -2.5532 -0.0779
-8 2 19 -3.1641 0.0132
-8 2 20 -4.3141 0.2144
-8 2 21 -2.1413 -0.0275
-8 2 22 -2.8379 -0.0466
-8 2 23 2.1894 0.0206
-8 2 24 -4.3356 0.0243
-8 2 25 4.5752 0.0158
-8 2 26 -3.6752 0.2148
-8 2 27 3.9163 0.1782
-8 2 28 -0.2742 -0.3263
-8 2 29 -2.7900 -0.0504
-8 2 30 1.4586 0.1105
-8 4 1 -1.1351 -0.2682
-8 4 2 14.9633 0.3276
-8 4 3 -14.3025 0.3252
-8 4 4 11.6374 -0.1668
-8 4 5 -7.7286 -0.2900
-8 4 6 6.4717 -0.0764
-8 4 7 -15.2149 -0.4940
-8 4 8 3.7454 0.2614
-8 4 9 -12.9136 0.3654
-8 4 10 -7.4454 -0.0251
-8 4 11 -15.1773 0.0902
-8 4 12 -2.1460 -0.0132
-8 4 13 -13.6783 -0.0451
-8 4 14 -2.2546 0.1322
-8 4 15 -3.9460 -0.0615
-8 4 16 -6.1822 0.0004
-8 4 17 -2.6362 -0.0056
-8 4 18 -4.9336 -0.1457
-8 4 19 -3.6536 0.1156
-8 4 20 -2.1242 0.0955
-8 4 21 2.6796 0.0451
-8 4 22 4.1860 -0.0650
-8 4 23 4.5531 0.0077
-8 4 24 3.2900 -0.0598
-8 4 25 3.2351 -0.0224
-8 4 26 5.6119 0.1999
-8 4 27 6.1291 0.2002
-8 4 28 8.7263 -0.1125
-8 4 29 -1.5575 -0.0827
-8 6 1 -2.4581 -0.2352
-8 6 2 25.1898 0.1238
-8 6 3 -7.5530 0.1611
-8 6 4 18.0073 -0.1070
-8 6 5 3.1041 -0.0628
-8 6 6 13.1689 -0.0061
-8 6 7 7.3956 -0.0235
-8 6 8 2.3939 0.0986
-8 6 9 12.4855 0.3049
-8 6 10 1.7431 0.0983
-8 6 11 -3.9248 -0.1470
-8 6 12 4.0222 0.0095
-8 6 13 -10.3800 -0.0841
-8 6 14 -5.9362 -0.0186
-8 6 15 -1.9341 0.0370
-8 6 16 -3.0296 -0.0341
-8 6 17 -4.6412 0.0729
-8 6 18 -2.9030 -0.1088
-8 6 19 -7.8949 -0.0268
-8 6 20 -4.0729 0.1119
-8 6 21 -0.3309 -0.0848
-8 6 22 9.2826 -0.0000
-8 6 23 0.9330 0.1035
-8 6 24 8.6746 -0.0323
-8 6 25 -0.3145 0.0539
-8 6 26 4.6948 0.1567
-8 6 27 8.7354 0.1651
-8 6 28 8.3799 0.0522
-8 6 29 6.3601 -0.0518
-8 6 30 -0.7433 0.0375
-8 8 1 -4.9298 -0.0245
-8 8 2 7.7540 0.0828
-8 8 3 -7.2891 0.1298
-8 8 4 10.3164 -0.0079
-8 8 5 -0.3983 0.0158
-8 8 6 12.4342 0.0791
-8 8 7 9.0378 0.1035
-8 8 8 3.5534 0.1195
-8 8 9 18.4825 0.1263
-8 8 10 15.2998 0.1149
-8 8 11 10.8142 -0.0717
-8 8 12 9.0312 -0.1368
-8 8 13 7.2131 0.0300
-8 8 14 -5.6959 -0.0571
-8 8 15 3.8411 -0.0265
-8 8 16 7.3385 0.0991
-8 8 17 -3.6889 0.0533
-8 8 18 6.4243 0.0342
-8 8 19 -3.4411 0.0053
-8 8 20 -4.4029 0.0527
-8 8 21 2.9651 0.0438
-8 8 22 3.6037 -0.0917
-8 8 23 3.1990 0.1980
-8 8 24 3.4016 0.0898
-8 8 25 -2.3236 -0.0406
-8 8 26 -0.8181 0.1432
-8 8 27 -3.9444 0.0027
-8 8 28 6.3821 -0.0414
-8 8 29 -2.7799 0.0691
-8 10 1 0.3012 0.1394
-8 10 2 -0.3252 0.0837
-8 10 3 -4.3191 -0.0591
-8 10 4 6.1826 0.1112
-8 10 5 -2.2378 -0.0555
-8 10 6 9.3833 -0.0433
-8 10 7 1.2746 0.1319
-8 10 8 -1.9076 -0.0535
-8 10 9 6.2483 0.0030
-8 10 10 5.4494 0.0141
-8 10 11 10.7457 -0.0103
-8 10 12 -2.4159 -0.1067
-8 10 13 10.0477 0.0314
-8 10 14 -3.3587 0.0662
-8 10 15 0.5028 -0.0583
-8 10 16 7.0219 0.0765
-8 10 17 0.0959 0.1274
-8 10 18 0.6963 -0.0834
-8 10 19 10.2515 0.0813
-8 10 20 -4.7952 -0.0258
-8 10 21 13.6237 0.0173
-8 10 22 -0.0496 0.0249
-8 10 23 6.4465 0.0474
-8 10 24 4.4707 0.1532
-8 10 25 -3.8899 0.0755
-8 10 26 6.9966 -0.2914
-8 10 27 -14.2687 0.2995
-8 12 1 1.2621 0.0189
-8 12 2 -6.5486 0.0269
-8 12 3 8.0935 -0.1366
-8 12 4 1.3728 0.0229
-8 12 5 22.5388 0.0982
-8 12 6 6.5977 -0.0571
-8 12 7 23.9881 0.0690
-8 12 8 -4.9319 0.1048
-8 12 9 11.8362 -0.1081
-8 12 10 -6.0189 0.0134
-8 12 11 0.9982 0.0698
-8 12 12 -9.5378 -0.1230
-8 12 13 -5.3851 0.0947
-8 12 14 1.7094 0.0063
-8 12 15 -1.3559 -0.0665
-8 12 16 -0.8285 0.0008
-8 12 17 2.8220 -0.0361
-8 12 18 -7.0689 0.0053
-8 12 19 4.4244 -0.1169
-8 12 20 1.5508 0.1370
-8 12 21 7.1498 0.0092
-8 12 22 0.0083 0.1075
-8 12 23 3.1131 0.2972
-8 12 24 1.4695 -0.1056
-8 12 25 1.7972 0.4578
-8 14 1 0.8965 -0.0860
-8 14 2 -12.8384 -0.0122
-8 14 3 4.9361 0.0182
-8 14 4 -5.7919 -0.0754
-8 14 5 25.1788 0.0576
-8 14 6 4.2316 0.1221
-8 14 7 33.4904 -0.0741
-8 14 8 5.2479 0.1097
-8 14 9 21.3239 0.1356
-8 14 10 3.0482 -0.1997
-8 14 11 2.8282 0.0641
-8 14 12 -5.7979 0.0114
-8 14 13 -9.1108 0.0124
-8 14 14 3.0968 0.1116
-8 14 15 0.8178 -0.0171
-8 14 16 -1.3598 -0.0882
-8 14 17 -2.3723 -0.0469
-8 14 18 0.6736 -0.0890
-8 14 19 -8.1336 0.1207
-8 14 20 11.7168 0.1164
-8 14 21 2.8872 0.4215
-8 16 1 -2.1076 -0.1227
-8 16 2 -1.7749 -0.0393
-8 16 3 -3.7598 0.2741
-8 16 4 1.4092 -0.0948
-8 16 5 7.7454 -0.1348
-8 16 6 1.1853 0.0402
-8 16 7 12.8419 -0.0513
-8 16 8 5.0265 -0.0196
-8 16 9 13.6478 0.4543
-8 16 10 4.6230 0.0377
-8 16 11 7.9002 -0.3291
-8 16 12 -3.2368 0.1692
-8 16 13 -5.5285 -0.1056
-8 16 14 3.6478 -0.1450
-8 16 15 -0.4562 0.3459
-8 16 16 -0.4179 -0.2579
-8 16 17 -6.3440 0.2338
-8 18 1 -7.3639 -0.2097
-8 18 2 -3.1008 -0.1455
-8 18 3 -4.1153 0.4859
-8 18 4 -1.0934 0.0782
-8 18 5 5.0327 -0.2040
-8 18 6 -3.0513 -0.0688
-8 18 7 2.9868 -0.2419
-8 18 8 1.0304 -0.0601
-7 1 1 -5.6623 0.1928
-7 1 2 29.5479 -1.6476
-7 1 3 -0.4504 -0.3402
-7 1 4 23.7940 0.2565
-7 1 5 2.6237 0.1577
-7 1 6 17.7300 0.6439
-7 1 7 7.2288 0.1234
-7 1 8 2.4728 -0.0549
-7 1 9 2.4782 0.0149
-7 1 10 23.6270 -0.0380
-7 1 11 2.6646 0.1100
-7 1 12 4.3122 0.0884
-7 1 13 4.5291 -0.1715
-7 1 14 -15.7570 -0.1939
-7 1 15 1.5350 0.1079
-7 1 16 -7.5377 0.0065
-7 1 17 0.3319 0.0916
-7 1 18 2.9848 0.1050
-7 1 19 2.3543 0.0572
-7 1 20 8.6691 -0.3002
-7 1 21 0.4914 0.0928
-7 1 22 5.3791 0.1187
-7 1 23 -2.7970 0.0208
-7 1 24 5.3135 -0.1252
-7 1 25 -2.9822 0.0361
-7 1 26 2.3615 -0.1745
-7 1 27 -2.3326 -0.0324
-7 1 28 1.0675 0.3244
-7 1 29 -0.4438 0.0449
-7 1 30 2.7025 -0.2399
-7 3 1 -5.4226 0.2472
-7 3 2 -5.7456 -0.4319
-7 3 3 0.6678 -0.3627
-7 3 4 -6.6191 0.3131
-7 3 5 -0.5215 0.4053
-7 3 6 -3.1603 0.2028
-7 3 7 12.7231 0.4249
-7 3 8 -5.4491 -0.2149
-7 3 9 10.0545 -0.1450
-7 3 10 10.5136 -0.0570
-7 3 11 12.0249 -0.0481
-7 3 12 -0.5194 0.1613
-7 3 13 8.9124 -0.0522
-7 3 14 -2.8222 -0.1461
-7 3 15 1.9035 0.1425
-7 3 16 2.2194 -0.0410
-7 3 17 3.6622 0.0041
-7 3 18 -0.1514 0.0955
-7 3 19 4.0030 -0.0404
-7 3 20 0.1041 -0.2146
-7 3 21 -4.0849 0.0018
-7 3 22 -1.3268 0.1647
-7 3 23 -7.3641 0.0719
-7 3 24 0.5810 -0.0331
-7 3 25 -5.2445 0.0199
-7 3 26 -3.2527 -0.2284
-7 3 27 -3.4630 -0.1443
-7 3 28 -4.1275 0.2098
-7 3 29 3.0714 0.0863
-7 3 30 -0.4155 -0.2149
-7 5 1 5.7625 0.2389
-7 5 2 -29.4078 -0.0497
-7 5 3 2.9377 -0.1216
-7 5 4 -24.8296 0.1332
-7 5 5 -9.9953 0.3634
-7 5 6 -20.4712 0.0034
-7 5 7 -4.5023 0.1890
-7 5 8 -12.6964 -0.0704
-7 5 9 -3.0332 -0.2599
-7 5 10 -1.6693 -0.0466
-7 5 11 10.9311 0.0340
-7 5 12 -1.4631 0.0604
-7 5 13 6.9342 0.0999
-7 5 14 4.9171 -0.1308
-7 5 15 0.5330 0.0806
-7 5 16 3.1614 0.0429
-7 5 17 8.1335 -0.1160
-7 5 18 2.6790 0.1733
-7 5 19 5.2268 0.0033
-7 5 20 0.0082 -0.1270
-7 5 21 -5.4304 0.0056
-7 5 22 -10.5582 0.1060
-7 5 23 -3.1684 0.0090
-7 5 24 -7.6544 0.0070
-7 5 25 -2.1852 0.0064
-7 5 26 -8.1875 -0.2042
-7 5 27 -8.4408 -0.1618
-7 5 28 -6.0354 0.0238
-7 5 29 -1.2415 0.0960
-7 7 1 14.1534 0.1341
-7 7 2 -16.8139 -0.0343
-7 7 3 6.4275 -0.1670
-7 7 4 -14.8888 0.0601
-7 7 5 -9.1426 0.0183
-7 7 6 -13.0429 -0.0575
-7 7 7 -17.7292 -0.0756
-7 7 8 -9.6580 -0.1116
-7 7 9 -21.2864 -0.1210
-7 7 10 -16.3323 -0.1293
-7 7 11 -3.8313 0.1251
-7 7 12 -6.4507 0.0937
-7 7 13 -3.1007 0.0666
-7 7 14 1.8626 -0.0134
-7 7 15 -3.4227 -0.0316
-7 7 16 -8.9373 -0.0041
-7 7 17 5.2275 -0.1248
-7 7 18 0.1784 -0.0215
-7 7 19 4.5321 0.1457
-7 7 20 2.7845 -0.1083
-7 7 21 -1.1983 0.0056
-7 7 22 -11.1099 0.0894
-7 7 23 0.0464 -0.1704
-7 7 24 -2.6884 -0.0851
-7 7 25 -0.3805 -0.0455
-7 7 26 1.6438 -0.2159
-7 7 27 -7.4812 -0.0878
-7 7 28 -3.7853 -0.1215
-7 7 29 -4.3803 0.0722
-7 9 1 9.3281 -0.1178
-7 9 2 -0.7126 -0.0235
-7 9 3 9.9842 -0.0501
-7 9 4 -5.0445 -0.0383
-7 9 5 4.7262 0.0667
-7 9 6 -4.5777 -0.0081
-7 9 7 -0.9937 -0.0556
-7 9 8 -2.8635 0.0089
-7 9 9 -10.0319 -0.0622
-7 9 10 -14.7507 -0.0040
-7 9 11 -11.4805 -0.0525
-7 9 12 -1.2804 0.1017
-7 9 13 -10.6308 0.0060
-7 9 14 -0.1074 -0.0724
-7 9 15 -2.9398 0.0775
-7 9 16 -13.2144 -0.0326
-7 9 17 -3.3849 -0.0684
-7 9 18 -2.2133 0.0097
-7 9 19 -8.0167 0.0091
-7 9 20 2.3206 0.0292
-7 9 21 -7.5359 -0.0982
-7 9 22 -5.3122 0.0034
-7 9 23 -5.6000 -0.0654
-7 9 24 -0.6643 -0.2447
-7 9 25 2.8096 0.0666
-7 9 26 -0.1340 -0.0020
-7 9 27 10.9698 -0.0869
-7 9 28 -5.2241 0.1908
-7 11 1 1.2545 -0.0486
-7 11 2 -0.5170 -0.0651
-7 11 3 -2.1056 0.1071
-7 11 4 -8.3999 -0.0527
-7 11 5 -5.5824 -0.0533
-7 11 6 -6.7957 0.0645
-7 11 7 -2.4146 -0.1087
-7 11 8 4.1309 -0.0013
-7 11 9 -1.3299 0.0309
-7 11 10 2.8183 0.0514
-7 11 11 -2.2995 -0.0178
-7 11 12 6.2767 0.1066
-7 11 13 -0.8857 0.0212
-7 11 14 -2.5721 -0.0080
-7 11 15 -2.2185 0.0396
-7 11 16 -0.7257 0.1053
-7 11 17 -9.5619 -0.0289
-7 11 18 4.9988 0.1119
-7 11 19 -11.1251 0.1460
-7 11 20 0.0359 -0.0310
-7 11 21 -7.2253 0.0803
-7 11 22 -1.1008 -0.1274
-7 11 23 -5.3055 -0.0707
-7 11 24 -7.7123 0.0462
-7 11 25 0.1333 -0.2602
-7 11 26 -13.3569 0.5491
-7 13 1 -2.2433 0.0830
-7 13 2 10.7994 -0.0228
-7 13 3 -13.8725 0.0060
-7 13 4 -1.3076 0.0417
-7 13 5 -26.7208 -0.0792
-7 13 6 -6.4354 -0.0814
-7 13 7 -24.6727 0.0284
-7 13 8 -1.2372 -0.1402
-7 13 9 -9.8682 -0.0352
-7 13 10 1.9648 0.0759
-7 13 11 6.5967 -0.1082
-7 13 12 3.4640 0.0619
-7 13 13 8.8024 -0.0630
-7 13 14 -3.1132 0.0577
-7 13 15 -5.3737 0.0813
-7 13 16 5.9283 0.0656
-7 13 17 -5.1833 0.1225
-7 13 18 -0.7167 -0.0053
-7 13 19 -1.5470 0.0657
-7 13 20 -7.3456 -0.1002
-7 13 21 -3.5894 -0.2802
-7 13 22 5.3317 -0.2194
-7 13 23 -0.7960 -0.4402
-7 15 1 -5.1943 0.0551
-7 15 2 9.4469 0.0290
-7 15 3 -6.8193 -0.1736
-7 15 4 1.0381 0.0506
-7 15 5 -16.8014 0.1289
-7 15 6 -1.2272 -0.1178
-7 15 7 -17.2375 -0.0142
-7 15 8 -4.6504 0.0390
-7 15 9 -10.8006 -0.2523
-7 15 10 -2.3418 0.0895
-7 15 11 1.3276 0.1016
-7 15 12 0.1521 -0.1629
-7 15 13 6.3162 -0.0851
-7 15 14 -4.4952 -0.0312
-7 15 15 -1.5429 -0.0065
-7 15 16 3.0680 0.0393
-7 15 17 7.7530 -0.1095
-7 15 18 -6.2586 0.0869
-7 15 19 3.4123 -0.5252
-7 17 1 4.0089 0.0211
-7 17 2 -0.2290 0.0605
-7 17 3 1.5475 -0.3560
-7 17 4 -2.4294 0.0330
-7 17 5 -7.0231 0.3294
-7 17 6 1.4840 0.0831
-7 17 7 -4.7969 -0.0824
-7 17 8 -1.1772 0.0174
-7 17 9 -6.8498 -0.3473
-7 17 10 1.2716 -0.2370
-7 17 11 -0.6174 0.3446
-7 17 12 -0.9421 -0.1099
-7 17 13 6.8313 -0.1236
-6 0 2 -25.8750 0.8748
-6 0 4 -27.8586 -0.2513
-6 0 6 -18.1934 -0.7661
-6 0 8 -14.6502 -0.2803
-6 0 10 -39.0658 0.0448
-6 0 12 0.6465 -0.2041
-6 0 14 20.4351 0.1858
-6 0 16 6.8360 -0.1489
-6 0 18 -6.4414 -0.1342
-6 0 20 -11.4354 0.2784
-6 0 22 -6.0354 -0.2449
-6 0 24 -2.5165 0.1554
-6 0 26 4.2913 0.0786
-6 0 28 -0.7459 -0.1717
-6 0 30 -7.7338 0.2915
-6 2 1 16.6333 -0.1344
-6 2 2 -2.5937 0.3012
-6 2 3 15.1739 0.3014
-6 2 4 -7.3194 -0.3122
-6 2 5 9.7264 -0.1345
-6 2 6 -5.7806 -0.5461
-6 2 7 -0.9501 -0.0712
-6 2 8 -4.8260 -0.0082
-6 2 10 -23.6224 0.0945
-6 2 11 -8.7008 -0.0059
-6 2 12 4.1822 -0.2978
-6 2 13 -8.4873 0.1093
-6 2 14 10.4872 0.1874
-6 2 15 -3.0024 -0.0986
-6 2 16 2.9015 -0.0394
-6 2 17 -4.0692 0.0244
-6 2 18 0.0499 -0.0662
-6 2 19 -3.5829 -0.0526
-6 2 20 -4.2998 0.2523
-6 2 21 4.2787 -0.0456
-6 2 22 -3.0317 -0.2229
-6 2 23 6.2372 -0.1050
-6 2 24 -2.1398 0.1841
-6 2 25 3.0749 -0.0267
-6 2 26 3.5119 0.1450
-6 2 27 2.9966 0.0241
-6 2 28 0.7296 -0.2514
-6 2 29 1.6325 -0.0688
-6 2 30 -2.6364 0.2470
-6 4 1 3.0208 -0.1131
-6 4 2 28.7745 -0.1430
-6 4 3 15.6251 0.1153
-6 4 4 24.4070 -0.1879
-6 4 5 18.4602 -0.4034
-6 4 6 22.2905 -0.1619
-6 4 7 0.9629 -0.2357
-6 4 8 15.4457 0.1081
-6 4 9 -4.1790 0.1285
-6 4 10 -2.2841 0.0237
-6 4 11 -12.6243 0.1245
-6 4 12 3.0588 -0.2457
-6 4 13 -3.0328 -0.0726
-6 4 14 -3.0144 0.1957
-6 4 15 -2.6166 -0.1472
-6 4 16 -0.7453 -0.0596
-6 4 17 -10.3533 0.0990
-6 4 18 3.1754 -0.0934
-6 4 19 -2.0953 -0.0108
-6 4 20 3.1580 0.1479
-6 4 21 9.0507 0.0111
-6 4 22 5.9529 -0.2533
-6 4 23 5.2995 -0.1591
-6 4 24 4.5065 0.0475
-6 4 25 2.1552 -0.0529
-6 4 26 7.9903 0.1706
-6 4 27 2.7088 0.0716
-6 4 28 2.3000 -0.0998
-6 4 29 -2.6325 -0.1015
-6 6 1 -18.9282 -0.1763
-6 6 2 24.3715 -0.0351
-6 6 3 3.0367 0.0921
-6 6 4 23.3911 -0.0055
-6 6 5 16.8005 -0.1729
-6 6 6 23.8494 -0.0107
-6 6 7 15.4039 -0.0218
-6 6 8 19.1949 0.0370
-6 6 9 12.3545 0.1083
-6 6 10 10.4250 0.0239
-6 6 11 -2.6654 -0.0925
-6 6 12 1.7952 -0.0769
-6 6 13 5.3627 -0.1595
-6 6 14 0.1586 0.1519
-6 6 15 0.9770 0.0545
-6 6 16 6.5871 -0.0944
-6 6 17 -9.3020 0.1392
-6 6 18 -2.5394 -0.0459
-6 6 19 -1.6760 -0.1916
-6 6 20 2.3893 0.0901
-6 6 21 3.9776 0.0028
-6 6 22 12.3908 -0.1195
-6 6 23 -1.7819 0.0203
-6 6 24 3.4703 0.0789
-6 6 25 1.9632 0.0498
-6 6 26 3.4584 0.1624
-6 6 27 10.1713 0.0806
-6 6 28 0.3050 0.0475
-6 6 29 2.6334 -0.1283
-6 8 1 -21.6878 0.0238
-6 8 2 -0.2270 -0.0721
-6 8 3 -7.3804 0.0978
-6 8 4 2.3643 -0.0207
-6 8 5 2.5593 -0.1039
-6 8 6 1.7683 -0.0031
-6 8 7 9.1431 0.0026
-6 8 8 7.8367 0.0553
-6 8 9 14.9262 0.0679
-6 8 10 15.4188 0.0759
-6 8 11 7.6480 -0.0114
-6 8 12 0.7962 -0.0550
-6 8 13 9.3001 -0.0760
-6 8 14 6.1559 0.0373
-6 8 15 4.0287 0.0225
-6 8 16 15.3480 -0.0009
-6 8 17 2.2670 0.0353
-6 8 18 -1.2837 0.1075
-6 8 19 3.6898 -0.1539
-6 8 20 2.2408 -0.0142
-6 8 21 3.3059 0.1099
-6 8 22 7.8549 -0.0544
-6 8 23 2.5731 0.0867
-6 8 24 -6.8437 0.1955
-6 8 25 0.4685 -0.0280
-6 8 26 -5.8291 0.1375
-6 8 27 1.2590 -0.0423
-6 8 28 2.1840 0.0557
-6 10 1 -9.0821 0.0854
-6 10 2 -3.4097 0.0054
-6 10 3 -5.9238 -0.0502
-6 10 4 3.6637 0.0552
-6 10 5 -7.2430 -0.0539
-6 10 6 -0.2621 -0.0639
-6 10 7 -8.2677 0.0383
-6 10 8 -2.2458 -0.0909
-6 10 9 0.4219 0.0180
-6 10 10 3.0140 -0.0760
-6 10 11 5.4451 0.0275
-6 10 12 -3.7026 -0.0243
-6 10 13 4.8510 -0.0724
-6 10 14 5.2461 0.0381
-6 10 15 4.3490 -0.0702
-6 10 16 5.8644 -0.1150
-6 10 17 11.1395 -0.0282
-6 10 18 -2.6075 -0.0977
-6 10 19 8.2809 -0.1097
-6 10 20 2.3737 -0.0606
-6 10 21 5.8226 -0.0314
-6 10 22 3.7153 0.1126
-6 10 23 8.4951 -0.1224
-6 10 24 3.7722 0.0959
-6 10 25 -2.4532 -0.0116
-6 10 26 6.6651 -0.2604
-6 12 1 -0.3709 -0.0664
-6 12 2 -3.8483 0.0417
-6 12 3 7.0719 -0.0406
-6 12 4 8.6762 -0.0283
-6 12 5 8.6089 0.0794
-6 12 6 5.8930 0.0169
-6 12 7 4.6951 0.0638
-6 12 8 -2.7253 0.0807
-6 12 9 -1.2456 -0.0261
-6 12 10 -3.3941 -0.0538
-6 12 11 -7.9245 -0.0235
-6 12 12 -1.1704 -0.1038
-6 12 13 -3.0819 -0.0144
-6 12 14 2.4942 -0.1192
-6 12 15 10.1209 -0.0242
-6 12 16 -6.2022 -0.1137
-6 12 17 11.0831 -0.1273
-6 12 18 -0.2903 -0.0527
-6 12 19 2.9295 -0.2279
-6 12 20 1.6416 0.0715
-6 12 21 0.0307 0.0209
-6 12 22 -3.7195 0.1129
-6 12 23 2.5892 0.1245
-6 12 24 11.9550 -0.2958
-6 14 1 8.0210 -0.0560
-6 14 2 -11.8735 0.0175
-6 14 3 11.0859 0.1039
-6 14 4 -0.2233 -0.0348
-6 14 5 15.0574 -0.1011
-6 14 6 -0.5111 0.0916
-6 14 7 11.7275 -0.0319
-6 14 8 1.4174 0.0346
-6 14 9 1.5459 0.0785
-6 14 10 2.0479 -0.0078
-6 14 11 -9.8295 0.0775
-6 14 12 2.5774 0.0402
-6 14 13 -3.4822 0.1216
-6 14 14 -0.3904 -0.0203
-6 14 15 7.3655 -0.1210
-6 14 16 -6.9836 0.0913
-6 14 17 0.4596 0.0182
-6 14 18 7.8280 -0.0360
-6 14 19 4.0136 0.3230
-6 14 20 5.0942 0.1399
-6 14 21 4.8256 0.5425
-6 16 1 4.6319 0.0369
-6 16 2 -2.8114 -0.0274
-6 16 3 4.0416 0.1798
-6 16 4 0.7266 -0.0144
-6 16 5 7.6624 -0.2872
-6 16 6 -4.3250 -0.0057
-6 16 7 2.6135 0.1539
-6 16 8 -2.0709 -0.0622
-6 16 9 1.7512 0.1524
-6 16 10 -2.6235 0.0894
-6 16 11 -3.5487 -0.1185
-6 16 12 4.3611 0.1599
-6 16 13 -2.3749 0.0761
-6 16 14 5.1795 0.0926
-6 16 15 -1.4040 -0.2359
-6 16 16 -3.9322 0.0584
-6 18 1 -5.3030 0.0840
-6 18 2 -0.6796 -0.0303
-6 18 3 1.7607 0.2809
-6 18 4 -2.7798 0.0385
-6 18 5 7.7681 -0.3955
-6 18 6 -1.9231 -0.1373
-6 18 7 4.3409 0.2036
-5 1 1 -16.2913 0.0539
-5 1 2 -2.6071 -0.3382
-5 1 3 -17.4505 -0.1904
-5 1 4 15.8092 -0.2621
-5 1 5 -12.4831 -0.1326
-5 1 6 10.7245 0.8500
-5 1 7 -7.9424 -0.1349
-5 1 8 24.3348 0.1328
-5 1 9 -4.5422 0.2071
-5 1 10 39.4317 -0.0895
-5 1 11 5.7212 -0.0013
-5 1 12 -8.4855 0.3265
-5 1 13 6.1981 -0.1353
-5 1 14 -12.8335 -0.2560
-5 1 15 3.0618 0.0055
-5 1 16 -1.5585 0.2285
-5 1 17 3.3931 -0.0380
-5 1 18 6.2318 0.0558
-5 1 19 2.1235 0.0352
-5 1 20 9.5702 -0.1914
-5 1 21 -2.5801 -0.0222
-5 1 22 4.2549 0.2520
-5 1 23 -1.9072 0.0565
-5 1 24 -2.9386 -0.2381
-5 1 25 -0.5933 0.0460
-5 1 26 -8.8635 -0.0207
-5 1 27 -3.3982 0.0743
-5 1 28 2.7841 0.1904
-5 1 29 -3.9163 0.0547
-5 1 30 8.3288 -0.1981
-5 3 1 -19.8960 0.0135
-5 3 2 -28.9565 0.2054
-5 3 3 -37.0898 -0.2176
-5 3 4 -12.5527 0.0872
-5 3 5 -27.5730 -0.0352
-5 3 6 -13.1573 0.4774
-5 3 7 -7.7244 0.0932
-5 3 8 -2.9819 -0.2371
-5 3 9 1.0532 0.0314
-5 3 10 11.2480 -0.0367
-5 3 11 11.6579 -0.1845
-5 3 12 -8.2393 0.3927
-5 3 13 4.8288 0.0299
-5 3 14 -0.9806 -0.2201
-5 3 15 6.6370 0.0555
-5 3 16 -3.6026 0.1215
-5 3 17 9.7182 -0.0889
-5 3 18 -5.1835 -0.0122
-5 3 19 0.6674 0.0338
-5 3 20 0.3325 -0.1076
-5 3 21 -8.5377 0.0098
-5 3 22 0.3826 0.3174
-5 3 23 -3.8144 0.2003
-5 3 24 -2.3587 -0.1319
-5 3 25 0.1670 0.0245
-5 3 26 -5.7844 -0.0657
-5 3 27 -1.2856 -0.0078
-5 3 28 1.7850 0.1529
-5 3 29 -1.3496 0.0801
-5 3 30 3.6766 -0.2348
-5 5 1 10.9273 0.0447
-5 5 2 -32.6356 0.1290
-5 5 3 -22.5251 -0.1055
-5 5 4 -29.9924 -0.0391
-5 5 5 -20.4117 0.1897
-5 5 6 -34.6247 0.1716
-5 5 7 -5.3827 0.1649
-5 5 8 -23.1918 -0.0573
-5 5 9 0.2962 -0.1252
-5 5 10 -3.7730 0.1194
-5 5 11 4.5009 -0.1002
-5 5 12 -2.0178 0.1357
-5 5 13 -7.7714 0.1744
-5 5 14 -0.4212 -0.2317
-5 5 15 5.1292 -0.0212
-5 5 16 -6.4731 0.1592
-5 5 17 11.0111 -0.0813
-5 5 18 -3.0198 0.0300
-5 5 19 -3.0824 0.1154
-5 5 20 -5.4336 -0.0349
-5 5 21 -6.6118 -0.0270
-5 5 22 -7.7528 0.2012
-5 5 23 2.2445 0.1651
-5 5 24 -5.9079 -0.0660
-5 5 25 0.2150 0.0108
-5 5 26 -7.1147 -0.0703
-5 5 27 -3.2524 0.0017
-5 5 28 3.2473 0.0512
-5 5 29 1.1774 0.1327
-5 5 30 6.2347 -0.1597
-5 7 1 29.2981 0.0807
-5 7 2 -7.3563 0.0968
-5 7 3 -1.1717 -0.0604
-5 7 4 -10.3907 -0.0256
-5 7 5 -5.6066 0.1200
-5 7 6 -12.6189 0.0653
-5 7 7 -9.0258 -0.0022
-5 7 8 -14.1469 -0.0524
-5 7 9 -10.7822 -0.0868
-5 7 10 -7.6429 -0.0346
-5 7 11 -3.7399 0.0988
-5 7 12 0.5249 0.0007
-5 7 13 -11.1600 0.1242
-5 7 14 -10.7872 -0.0647
-5 7 15 -1.5920 -0.1651
-5 7 16 -12.1341 0.0555
-5 7 17 1.0336 -0.0080
-5 7 18 2.8853 -0.1029
-5 7 19 -3.6440 0.2281
-5 7 20 -6.5658 0.0179
-5 7 21 -1.2036 -0.0787
-5 7 22 -5.8710 0.0570
-5 7 23 3.1427 -0.0480
-5 7 24 6.4179 -0.0822
-5 7 25 -2.5662 -0.0674
-5 7 26 2.8847 -0.0673
-5 7 27 -8.3536 0.0576
-5 7 28 1.9773 -0.0675
-5 7 29 -1.2444 0.0698
-5 9 1 18.8675 -0.0745
-5 9 2 10.3359 0.0768
-5 9 3 4.2169 0.0196
-5 9 4 4.1324 -0.0246
-5 9 5 7.4837 0.1690
-5 9 6 7.4160 0.0851
-5 9 7 5.2402 0.0399
-5 9 8 -0.0740 0.0241
-5 9 9 -4.1942 -0.0671
-5 9 10 -4.3806 -0.0477
-5 9 11 -4.5831 -0.0382
-5 9 12 2.7591 -0.0275
-5 9 13 -5.4853 0.0651
-5 9 14 -10.3838 0.0158
-5 9 15 -4.5040 0.0319
-5 9 16 -8.5439 0.0313
-5 9 17 -8.8588 0.0786
-5 9 18 1.9923 -0.0282
-5 9 19 -4.8019 0.0739
-5 9 20 -6.1045 0.1259
-5 9 21 -5.5234 -0.0638
-5 9 22 0.1625 -0.0304
-5 9 23 -7.2512 0.1000
-5 9 24 9.0373 -0.1142
-5 9 25 1.3742 0.1061
-5 9 26 3.4600 0.0447
-5 9 27 5.6796 0.1390
-5 11 1 5.9817 0.0217
-5 11 2 5.8454 -0.0136
-5 11 3 2.2893 0.0551
-5 11 4 -6.9242 -0.0291
-5 11 5 8.0312 -0.0277
-5 11 6 -0.1092 0.0299
-5 11 7 8.5098 -0.0645
-5 11 8 4.4345 0.0567
-5 11 9 4.3421 0.0625
-5 11 10 1.6523 0.0704
-5 11 11 3.8582 0.0763
-5 11 12 -0.0833 0.0243
-5 11 13 -1.4248 0.0488
-5 11 14 -4.0061 0.0646
-5 11 15 -9.0959 0.0259
-5 11 16 3.3958 0.1323
-5 11 17 -8.1309 0.1227
-5 11 18 1.0271 0.1183
-5 11 19 1.7833 0.1836
-5 11 20 -1.3197 0.0152
-5 11 21 -1.4552 0.1511
-5 11 22 -0.2350 -0.0416
-5 11 23 -7.4745 0.2171
-5 11 24 -12.7177 0.2397
-5 11 25 0.9306 -0.0263
-5 13 1 -2.7933 0.0586
-5 13 2 7.7644 -0.0299
-5 13 3 -1.4603 -0.0256
-5 13 4 -3.8963 0.0901
-5 13 5 -1.0042 0.0372
-5 13 6 1.7410 -0.0348
-5 13 7 -1.2924 -0.0050
-5 13 8 1.1886 -0.1089
-5 13 9 6.3612 0.0622
-5 13 10 -2.5766 -0.0336
-5 13 11 12.4965 -0.0224
-5 13 12 -3.3257 0.0854
-5 13 13 -1.2759 -0.0898
-5 13 14 3.1602 0.0537
-5 13 15 -12.0084 0.0475
-5 13 16 6.5903 -0.0848
-5 13 17 -4.8895 0.0893
-5 13 18 -5.1459 0.0535
-5 13 19 0.1084 -0.0179
-5 13 20 2.6696 -0.1310
-5 13 21 3.7977 -0.2669
-5 13 22 4.6237 -0.1836
-5 15 1 -8.3628 -0.0180
-5 15 2 5.9206 -0.0429
-5 15 3 -3.9289 -0.0958
-5 15 4 3.4942 0.0243
-5 15 5 -2.3692 0.2328
-5 15 6 10.3639 0.0076
-5 15 7 3.1767 -0.0130
-5 15 8 4.1560 0.0102
-5 15 9 5.7428 -0.0092
-5 15 10 -0.5466 -0.0722
-5 15 11 6.2698 -0.1170
-5 15 12 -3.8755 -0.0575
-5 15 13 -2.7760 -0.0121
-5 15 14 4.6530 -0.1388
-5 15 15 -1.7458 0.2485
-5 15 16 8.6599 -0.1432
-5 15 17 3.5231 -0.3999
-5 15 18 -3.7332 0.1811
-5 17 1 0.7786 -0.0933
-5 17 2 0.5029 -0.0130
-5 17 3 -4.3251 -0.0936
-5 17 4 2.6040 -0.0132
-5 17 5 -6.6962 0.2969
-5 17 6 4.9522 0.0498
-5 17 7 -1.3012 -0.2544
-5 17 8 5.0311 -0.0299
-5 17 9 -2.2593 -0.0656
-5 17 10 3.7222 -0.1068
-5 17 11 2.8019 0.0647
-5 17 12 -8.1486 -0.1176
-4 0 2 27.6839 1.0455
-4 0 4 -10.6016 1.0760
-4 0 6 -9.2262 -0.9398
-4 0 8 -41.8118 0.1096
-4 0 10 -43.6264 0.0296
-4 0 12 9.7947 -0.2408
-4 0 14 3.2337 0.2734
-4 0 16 -4.6308 -0.3656
-4 0 18 -10.9046 0.0470
-4 0 20 -10.4030 0.0891
-4 0 22 -0.9743 -0.2732
-4 0 24 11.4023 0.1791
-4 0 26 12.0807 -0.0408
-4 0 28 -6.4941 -0.0949
-4 0 30 -8.0154 0.1913
-4 2 1 28.6983 -0.1410
-4 2 2 36.8308 0.4629
-4 2 3 44.9058 0.3108
-4 2 4 -0.6076 0.4697
-4 2 5 32.4204 0.5008
-4 2 6 0.7313 -0.7333
-4 2 7 19.6280 0.0141
-4 2 8 -21.7465 0.4335
-4 2 9 6.3516 -0.1579
-4 2 10 -23.6201 0.0065
-4 2 11 -8.6647 0.1140
-4 2 12 11.0806 -0.3294
-4 2 13 -6.4953 0.0276
-4 2 14 0.9596 0.2685
-4 2 15 -7.5371 0.0813
-4 2 16 2.4989 -0.2332
-4 2 17 -7.2472 0.0494
-4 2 18 -1.3052 0.0588
-4 2 19 -0.9412 0.0084
-4 2 20 -6.3719 0.0495
-4 2 21 4.6068 0.0295
-4 2 22 -2.1517 -0.2534
-4 2 23 -0.5415 -0.1135
-4 2 24 5.9059 0.1758
-4 2 25 -0.8702 0.0292
-4 2 26 5.9941 -0.0435
-4 2 27 4.5104 -0.0065
-4 2 28 -6.1629 -0.1927
-4 2 29 6.0182 -0.0527
-4 2 30 -6.1760 0.1379
-4 4 1 9.0631 0.0724
-4 4 2 40.3557 -0.0283
-4 4 3 46.9162 0.3017
-4 4 4 22.8017 0.0300
-4 4 5 26.6806 0.0607
-4 4 6 29.8663 -0.3610
-4 4 7 5.3410 -0.2864
-4 4 8 12.2415 0.3404
-4 4 9 -2.6807 0.1323
-4 4 10 -1.2007 -0.1726
-4 4 11 -3.1406 0.2392
-4 4 12 7.0063 -0.2060
-4 4 13 4.2398 -0.1362
-4 4 14 1.1183 0.2112
-4 4 15 -10.4285 0.0380
-4 4 16 10.3616 -0.1683
-4 4 17 -8.3208 0.0375
-4 4 18 7.6102 0.0585
-4 4 19 5.0669 -0.0044
-4 4 20 1.7845 -0.0378
-4 4 21 6.4957 0.0280
-4 4 22 1.5387 -0.2674
-4 4 23 -2.8349 -0.2244
-4 4 24 6.2467 0.0555
-4 4 25 -3.3990 -0.0158
-4 4 26 4.1512 -0.0045
-4 4 27 -1.0036 -0.0416
-4 4 28 -7.1515 -0.1190
-4 4 29 1.2899 -0.1173
-4 6 1 -24.8699 -0.0370
-4 6 2 23.1356 -0.0190
-4 6 3 13.3351 0.1214
-4 6 4 23.8748 0.0978
-4 6 5 0.3884 -0.0934
-4 6 6 29.5839 -0.1695
-4 6 7 -1.2828 -0.0799
-4 6 8 16.6276 0.0117
-4 6 9 1.2704 0.1632
-4 6 10 -0.1365 -0.1336
-4 6 11 4.9553 -0.0416
-4 6 12 2.0134 0.0519
-4 6 13 13.0799 -0.1165
-4 6 14 11.5910 0.1193
-4 6 15 -4.5935 0.1828
-4 6 16 10.3310 -0.1131
-4 6 17 -2.2137 -0.0353
-4 6 18 1.8420 0.0408
-4 6 19 6.0205 -0.1341
-4 6 20 6.9296 -0.0277
-4 6 21 -0.4873 0.0504
-4 6 22 3.5182 -0.0455
-4 6 23 -7.9063 -0.0665
-4 6 24 3.2125 0.0082
-4 6 25 -0.0846 0.0797
-4 6 26 2.1001 -0.0093
-4 6 27 4.4217 -0.0468
-4 6 28 -6.7969 -0.0103
-4 6 29 -0.3102 -0.0914
-4 8 1 -25.3292 -0.0065
-4 8 2 -1.4143 -0.0845
-4 8 3 0.3085 -0.0240
-4 8 4 0.7265 -0.0004
-4 8 5 -10.0951 -0.1537
-4 8 6 -2.4369 -0.1064
-4 8 7 -3.2331 0.0245
-4 8 8 2.5041 0.0973
-4 8 9 3.2679 0.1213
-4 8 10 -1.0499 0.1219
-4 8 11 2.2751 -0.0365
-4 8 12 -0.9625 0.0324
-4 8 13 6.9907 -0.0162
-4 8 14 15.3828 -0.0578
-4 8 15 3.0222 0.1017
-4 8 16 7.2768 0.0465
-4 8 17 6.8662 -0.0929
-4 8 18 -1.0126 0.0945
-4 8 19 4.3451 -0.0809
-4 8 20 6.3599 -0.0977
-4 8 21 1.3843 0.1084
-4 8 22 -6.6983 -0.0105
-4 8 23 -0.7435 0.0339
-4 8 24 -12.3648 -0.0285
-4 8 25 1.3722 -0.0296
-4 8 26 -5.6390 -0.0262
-4 8 27 2.2957 -0.1696
-4 8 28 0.6651 -0.0443
-4 10 1 -9.7526 0.0426
-4 10 2 -10.3360 0.0036
-4 10 3 -0.2688 -0.0420
-4 10 4 0.4080 0.0736
-4 10 5 -12.2116 -0.0891
-4 10 6 -7.3827 -0.0637
-4 10 7 -9.8178 -0.0071
-4 10 8 -3.5237 -0.0555
-4 10 9 -2.8045 0.0041
-4 10 10 -0.3228 0.0208
-4 10 11 -2.0713 0.0125
-4 10 12 0.2640 0.0307
-4 10 13 1.0230 -0.0231
-4 10 14 6.6612 -0.0471
-4 10 15 4.2060 -0.0447
-4 10 16 -1.8245 -0.0370
-4 10 17 4.0497 -0.0645
-4 10 18 -0.3719 -0.0964
-4 10 19 -1.2072 -0.0199
-4 10 20 2.4730 -0.1297
-4 10 21 6.8050 -0.1180
-4 10 22 -5.4551 -0.0160
-4 10 23 8.3968 -0.2484
-4 10 24 -0.7639 -0.0544
-4 10 25 -2.5525 -0.0915
-4 10 26 1.1696 -0.1484
-4 12 1 -4.3893 -0.0440
-4 12 2 -6.7817 0.0041
-4 12 3 -8.6666 -0.0285
-4 12 4 6.1174 -0.0520
-4 12 5 -10.5617 0.0420
-4 12 6 -2.6031 0.0129
-4 12 7 -5.2153 0.0476
-4 12 8 -1.6725 0.0379
-4 12 9 -8.6634 -0.1505
-4 12 10 3.3328 0.0002
-4 12 11 -9.4206 -0.0481
-4 12 12 4.2123 -0.0529
-4 12 13 3.4194 0.0727
-4 12 14 -0.7747 -0.0146
-4 12 15 7.8185 0.0190
-4 12 16 -4.8804 -0.0099
-4 12 17 -1.6606 -0.1087
-4 12 18 1.2884 -0.1054
-4 12 19 -8.1083 -0.1107
-4 12 20 -3.6291 0.0635
-4 12 21 -3.3652 -0.0982
-4 12 22 2.5423 -0.1004
-4 12 23 2.7578 -0.1824
-4 14 1 1.9991 0.0148
-4 14 2 -4.3073 0.0504
-4 14 3 -6.8893 0.0343
-4 14 4 -5.2169 -0.1458
-4 14 5 -7.4317 -0.1536
-4 14 6 -13.0153 -0.0228
-4 14 7 -7.1533 -0.0712
-4 14 8 -2.0037 0.1104
-4 14 9 -11.3401 -0.0938
-4 14 10 4.4848 0.0599
-4 14 11 -8.7716 0.1611
-4 14 12 1.2680 -0.0588
-4 14 13 4.7836 0.0398
-4 14 14 -9.4541 0.1609
-4 14 15 4.8411 -0.0941
-4 14 16 -7.6502 0.1246
-4 14 17 1.0199 0.1689
-4 14 18 1.5226 -0.1830
-4 14 19 1.6802 0.2874
-4 14 20 -4.6441 0.2891
-4 16 1 2.1776 0.0610
-4 16 2 -1.2275 0.0761
-4 16 3 4.5281 0.0529
-4 16 4 -6.7148 -0.0190
-4 16 5 1.3906 -0.2115
-4 16 6 -12.0723 -0.0205
-4 16 7 -5.6812 0.0825
-4 16 8 -8.6188 0.0148
-4 16 9 -2.9624 0.0100
-4 16 10 -3.1308 -0.0034
-4 16 11 0.5082 0.0778
-4 16 12 2.9174 -0.0008
-4 16 13 5.2283 -0.4436
-4 16 14 -8.0252 0.1044
-4 16 15 -2.9532 -0.3358
-4 18 1 -1.0318 0.0862
-4 18 2 -5.1186 0.0597
-4 18 3 8.0881 0.0078
-4 18 4 -5.7628 0.0407
-4 18 5 8.3523 -0.1965
-4 18 6 -1.2779 -0.0003
-3 1 3 -30.2693 -0.2317
-3 1 4 2.8416 -1.1220
-3 1 5 -23.2030 -0.4202
-3 1 6 5.0537 0.8055
-3 1 7 -18.8116 0.0091
-3 1 8 44.5941 -0.5884
-3 1 9 -7.6930 0.1490
-3 1 10 30.8923 0.1320
-3 1 11 2.9155 -0.0296
-3 1 12 -6.4725 0.0760
-3 1 13 3.1639 -0.0688
-3 1 14 8.0967 -0.2714
-3 1 15 4.0501 -0.0563
-3 1 16 4.3823 0.2862
-3 1 17 3.5680 0.0152
-3 1 18 9.2927 -0.1245
-3 1 19 1.1196 -0.1241
-3 1 20 7.7706 -0.0309
-3 1 21 -0.4966 -0.0658
-3 1 22 -2.7705 0.1670
-3 1 23 2.5894 0.0012
-3 1 24 -13.9607 -0.1482
-3 1 25 -0.0953 -0.0560
-3 1 26 -7.1848 0.0775
-3 1 27 -4.0591 0.0097
-3 1 28 7.6848 0.1933
-3 1 29 -4.2811 0.0222
-3 1 30 2.1525 -0.1499
-3 3 1 -28.0941 0.1728
-3 3 2 -47.4609 -0.6824
-3 3 3 -62.1430 -0.4873
-3 3 4 -4.8248 -0.1200
-3 3 5 -35.8454 -0.3635
-3 3 6 -11.5188 0.4185
-3 3 7 -19.7885 0.3316
-3 3 8 11.7068 -0.7291
-3 3 9 -6.3266 -0.0612
-3 3 10 6.5390 0.1917
-3 3 11 0.3045 -0.1461
-3 3 12 -9.6758 0.1420
-3 3 13 0.4454 0.0611
-3 3 14 -0.1516 -0.1751
-3 3 15 9.6818 -0.0932
-3 3 16 -11.1177 0.1547
-3 3 17 4.2089 -0.0000
-3 3 18 -3.4398 -0.1221
-3 3 19 -3.0553 -0.0716
-3 3 20 4.5150 0.0426
-3 3 21 -3.5217 -0.0253
-3 3 22 1.0281 0.2322
-3 3 23 4.4553 0.1291
-3 3 24 -5.6788 -0.0564
-3 3 25 2.9948 -0.0506
-3 3 26 0.8863 0.0528
-3 3 27 -1.6257 -0.0029
-3 3 28 10.1818 0.1871
-3 3 29 -5.7120 0.0660
-3 5 1 5.4867 -0.0878
-3 5 2 -33.9139 -0.1853
-3 5 3 -32.2177 -0.3282
-3 5 4 -22.6104 -0.0022
-3 5 5 -0.6728 0.1155
-3 5 6 -31.0783 0.2235
-3 5 7 4.0739 0.3061
-3 5 8 -8.0070 -0.1577
-3 5 9 0.6433 -0.2529
-3 5 10 1.8440 0.2466
-3 5 11 -9.4483 -0.0730
-3 5 12 -7.6576 -0.0664
-3 5 13 -9.7632 0.0923
-3 5 14 -10.3139 -0.1049
-3 5 15 9.1042 -0.0974
-3 5 16 -13.5290 0.1034
-3 5 17 -0.3883 0.0415
-3 5 18 -6.6095 -0.0250
-3 5 19 -6.9133 -0.0469
-3 5 20 -1.8179 0.0439
-3 5 21 0.3587 -0.0404
-3 5 22 -2.2533 0.0793
-3 5 23 8.6971 0.1400
-3 5 24 -9.3257 -0.0027
-3 5 25 4.2698 -0.0406
-3 5 26 0.7303 0.0187
-3 5 27 0.6266 0.0507
-3 5 28 11.9698 0.1175
-3 5 29 -2.2734 0.1441
-3 7 1 23.8764 0.0475
-3 7 2 -20.4680 -0.0330
-3 7 3 -0.3629 -0.0527
-3 7 4 -14.9440 -0.0106
-3 7 5 21.7380 0.0577
-3 7 6 -11.1039 0.1268
-3 7 7 8.3529 -0.0876
-3 7 8 -1.0729 -0.0781
-3 7 9 1.2649 -0.1574
-3 7 10 7.4864 -0.0324
-3 7 11 -5.2118 0.1028
-3 7 12 -4.2191 -0.0755
-3 7 13 -9.4565 -0.0326
-3 7 14 -17.2750 0.0330
-3 7 15 0.5630 -0.1552
-3 7 16 -6.4518 -0.0365
-3 7 17 -5.7805 0.0809
-3 7 18 -1.7341 -0.0526
-3 7 19 -3.2552 0.0501
-3 7 20 -2.6102 -0.0220
-3 7 21 5.9790 -0.0730
-3 7 22 5.2362 -0.0144
-3 7 23 9.4310 -0.0736
-3 7 24 0.5219 0.1275
-3 7 25 -0.8061 -0.0730
-3 7 26 3.9750 0.0026
-3 7 27 -2.7735 0.0435
-3 7 28 3.8705 -0.0656
-3 9 1 10.2052 -0.0633
-3 9 2 -1.7480 -0.0161
-3 9 3 -3.6898 0.0233
-3 9 4 -1.3982 -0.0204
-3 9 5 16.1604 0.1171
-3 9 6 8.3049 0.0538
-3 9 7 8.2274 -0.0373
-3 9 8 2.3177 -0.1014
-3 9 9 3.7595 -0.0995
-3 9 10 3.4119 -0.1185
-3 9 11 3.7223 -0.0492
-3 9 12 -1.0008 0.0134
-3 9 13 0.3603 -0.0383
-3 9 14 -9.7333 0.0540
-3 9 15 -1.6865 -0.0070
-3 9 16 1.0979 -0.1069
-3 9 17 -5.4099 0.0082
-3 9 18 -1.0740 0.0175
-3 9 19 -2.3620 -0.0637
-3 9 20 1.4227 0.1087
-3 9 21 -4.0570 -0.0378
-3 9 22 14.6030 0.0615
-3 9 23 -1.5432 0.0374
-3 9 24 9.0005 0.0604
-3 9 25 0.4362 0.1469
-3 9 26 3.9552 0.0811
-3 11 1 4.8321 -0.0269
-3 11 2 7.0274 -0.0375
-3 11 3 5.0883 0.0226
-3 11 4 -5.5824 -0.0713
-3 11 5 12.1456 -0.0205
-3 11 6 3.9770 -0.0005
-3 11 7 6.3927 -0.0255
-3 11 8 -0.3672 0.0468
-3 11 9 7.4614 0.0835
-3 11 10 -4.1218 -0.0018
-3 11 11 6.1228 -0.0088
-3 11 12 -4.6372 -0.0098
-3 11 13 0.4742 -0.0457
-3 11 14 -1.0353 -0.0186
-3 11 15 1.4993 -0.0315
-3 11 16 5.7728 0.0258
-3 11 17 6.1497 -0.0147
-3 11 18 -0.3550 0.1330
-3 11 19 4.9051 0.0380
-3 11 20 2.6744 0.0592
-3 11 21 -5.1641 0.2505
-3 11 22 1.1049 0.1267
-3 11 23 -6.4266 0.2306
-3 11 24 -8.9908 0.0217
-3 13 1 7.0936 -0.0062
-3 13 2 2.9911 0.0102
-3 13 3 17.5971 0.0236
-3 13 4 2.5824 0.1694
-3 13 5 12.3587 0.0155
-3 13 6 9.2163 -0.0008
-3 13 7 6.7438 0.0510
-3 13 8 -1.8625 -0.1096
-3 13 9 13.6976 0.1561
-3 13 11 9.3078 -0.1144
-3 13 12 -2.7133 0.0307
-3 13 13 -2.8445 -0.1096
-3 13 14 4.6776 -0.1458
-3 13 15 -0.1713 -0.0244
-3 13 16 5.0334 -0.0003
-3 13 17 5.9014 0.0410
-3 13 18 0.9158 0.1370
-3 13 19 7.9329 -0.0083
-3 13 20 2.6394 -0.1455
-3 13 21 7.8550 -0.0553
-3 13 22 -9.1719 0.1413
-3 15 1 1.3369 -0.0778
-3 15 2 -1.1432 -0.0658
-3 15 3 2.7929 -0.0568
-3 15 4 11.3750 0.1541
-3 15 5 6.2623 0.1574
-3 15 6 15.7261 0.0112
-3 15 7 10.3421 0.0916
-3 15 8 4.3976 -0.0588
-3 15 9 8.5338 0.0344
-3 15 10 -0.1399 0.0780
-3 15 11 1.6106 -0.1387
-3 15 13 -3.9973 0.2923
-3 15 14 14.7055 -0.1562
-3 15 15 0.4289 0.0862
-3 15 16 12.7868 0.1486
-3 15 17 -1.6833 -0.3459
-3 15 18 4.1221 0.2214
-3 17 1 0.0476 -0.0742
-3 17 2 5.0835 -0.0787
-3 17 3 -10.9504 -0.0215
-3 17 4 6.3249 -0.0084
-3 17 5 -6.7549 0.1146
-3 17 6 6.3595 -0.0553
-3 17 7 -4.0076 -0.1948
-3 17 8 9.7768 -0.0085
-3 17 9 -5.9228 -0.1118
-3 17 10 3.8785 0.1119
-3 17 11 -5.2126 0.1000
-2 0 6 -3.1080 -0.6946
-2 0 8 -51.0349 0.5747
-2 0 10 -25.5302 -0.3180
-2 0 12 -2.4222 0.1662
-2 0 14 -17.0297 0.1586
-2 0 16 -7.0922 -0.1774
-2 0 18 -11.1460 0.1787
-2 0 20 -4.0242 0.0055
-2 0 22 8.8287 -0.1381
-2 0 24 17.2651 0.1006
-2 0 26 5.0331 -0.0539
-2 0 28 -3.5280 -0.1628
-2 0 30 7.9628 0.2706
-2 2 2 55.5666 1.9811
-2 2 3 53.7384 0.4849
-2 2 4 -5.9790 0.2443
-2 2 5 35.8481 0.4136
-2 2 6 -2.2804 -0.3659
-2 2 7 30.9311 -0.2621
-2 2 8 -34.1394 0.7959
-2 2 9 14.7126 -0.0256
-2 2 10 -11.2969 -0.2804
-2 2 11 3.9232 -0.0318
-2 2 12 4.2737 0.0798
-2 2 13 0.0667 0.0134
-2 2 14 -6.0651 0.1362
-2 2 15 -4.1144 0.0295
-2 2 16 5.0578 -0.1280
-2 2 17 -1.7298 -0.0391
-2 2 18 -4.7312 0.1546
-2 2 19 -0.4407 0.1137
-2 2 20 -5.6872 0.0547
-2 2 21 -0.6590 0.0096
-2 2 22 2.7023 -0.1439
-2 2 23 -5.4427 0.0031
-2 2 24 8.0867 0.0880
-2 2 25 -0.4765 0.0924
-2 2 26 -2.0462 -0.0487
-2 2 27 2.7223 0.0432
-2 2 28 -7.6490 -0.2133
-2 2 29 4.7048 -0.0182
-2 4 1 20.7889 -0.0713
-2 4 2 32.3491 0.5632
-2 4 3 51.2102 0.4887
-2 4 4 0.9794 -0.2784
-2 4 5 13.2703 -0.1810
-2 4 6 12.0723 -0.1036
-2 4 7 10.9514 -0.4778
-2 4 8 -9.8183 0.4623
-2 4 9 8.6994 0.2340
-2 4 10 0.4831 -0.2573
-2 4 11 12.5758 0.0426
-2 4 12 10.7633 0.0675
-2 4 13 4.3644 -0.0521
-2 4 14 8.4304 0.0477
-2 4 15 -6.5105 0.0155
-2 4 16 16.0487 -0.0284
-2 4 17 3.8662 -0.0309
-2 4 18 4.0981 0.0619
-2 4 19 5.2113 0.1402
-2 4 20 -4.7665 -0.0089
-2 4 21 1.0279 0.0374
-2 4 22 0.8961 -0.1384
-2 4 23 -7.0789 -0.1065
-2 4 24 5.8553 0.0279
-2 4 25 -4.5676 0.0270
-2 4 26 -8.0709 -0.0285
-2 4 27 -0.5429 -0.0149
-2 4 28 -14.4380 -0.2044
-2 4 29 5.5880 -0.1008
-2 6 1 -8.8991 0.0258
-2 6 2 30.1972 0.2257
-2 6 3 5.2729 0.2026
-2 6 4 15.5526 -0.0606
-2 6 5 -26.8661 -0.1571
-2 6 6 13.4023 -0.1042
-2 6 7 -9.0477 -0.0447
-2 6 8 -7.6765 0.0176
-2 6 9 -0.2868 0.1864
-2 6 10 -7.3149 -0.0834
-2 6 11 12.4974 -0.0878
-2 6 12 10.7825 0.1185
-2 6 13 8.2186 0.0166
-2 6 14 15.2449 -0.0103
-2 6 15 -4.0420 0.0596
-2 6 16 8.3932 -0.0020
-2 6 17 5.4631 -0.0194
-2 6 18 2.9673 -0.0247
-2 6 19 1.8089 0.0465
-2 6 20 -2.5858 0.1178
-2 6 21 -7.8090 0.0230
-2 6 22 2.6340 0.0277
-2 6 23 -11.9099 0.0169
-2 6 24 9.4035 -0.0509
-2 6 25 -2.2021 0.1028
-2 6 26 -8.2171 0.0542
-2 6 27 1.0417 0.0181
-2 6 28 -10.6029 0.0072
-2 8 1 -8.2412 0.0187
-2 8 2 25.9054 0.0562
-2 8 3 -3.1763 0.0358
-2 8 4 8.6304 -0.0596
-2 8 5 -27.4752 -0.0120
-2 8 6 -3.7319 -0.0205
-2 8 7 -9.2617 0.1476
-2 8 8 -6.4753 0.1591
-2 8 9 -6.9561 0.0873
-2 8 10 -9.1742 0.1115
-2 8 11 -2.0925 -0.0187
-2 8 12 5.3764 -0.0387
-2 8 13 1.3833 0.0812
-2 8 14 12.7881 -0.0414
-2 8 15 1.3973 0.0543
-2 8 16 0.4747 0.1394
-2 8 17 6.5544 0.0172
-2 8 18 0.7526 0.0474
-2 8 19 -0.2444 0.0278
-2 8 20 -7.3900 0.0763
-2 8 21 -7.1520 0.1081
-2 8 22 -10.6400 -0.0954
-2 8 23 -7.2569 0.1098
-2 8 24 -2.2275 -0.1473
-2 8 25 1.1493 -0.0849
-2 8 26 -6.2385 0.0348
-2 8 27 -3.8021 0.0697
-2 10 1 1.0136 0.1259
-2 10 2 4.7324 0.0749
-2 10 3 2.7402 0.0050
-2 10 4 6.0190 0.0956
-2 10 5 -13.4539 -0.0430
-2 10 6 -4.3416 0.0164
-2 10 7 -6.2597 0.0321
-2 10 8 2.6495 -0.0045
-2 10 9 -7.4942 0.0326
-2 10 10 1.7025 0.0171
-2 10 11 -7.1839 0.0609
-2 10 12 3.4194 -0.0246
-2 10 13 -6.4457 0.0216
-2 10 14 1.4079 0.0513
-2 10 15 -4.1972 0.0456
-2 10 16 -5.5051 0.0758
-2 10 17 0.4959 0.1262
-2 10 18 1.3050 -0.0798
-2 10 19 3.2897 0.0662
-2 10 20 -7.6553 -0.0898
-2 10 21 6.1233 -0.0884
-2 10 22 -10.4296 -0.0720
-2 10 23 4.0344 -0.0891
-2 10 24 -0.2549 0.1471
-2 10 25 0.1102 -0.0293
-2 12 1 -7.9169 0.0213
-2 12 2 -3.0349 0.0033
-2 12 3 -14.9820 -0.0437
-2 12 4 2.9050 -0.0200
-2 12 5 -9.9015 0.0629
-2 12 6 -3.2929 0.0053
-2 12 7 -5.4623 0.0021
-2 12 8 4.9933 -0.0007
-2 12 9 -12.3146 -0.1002
-2 12 10 7.4526 0.0318
-2 12 11 -6.9752 0.0724
-2 12 12 6.1402 0.0333
-2 12 13 -3.4078 0.0928
-2 12 14 -1.7087 0.0920
-2 12 15 -8.9981 0.0764
-2 12 16 -6.4532 -0.0765
-2 12 17 -9.9310 -0.0348
-2 12 18 0.0776 -0.0931
-2 12 19 -4.4574 -0.1023
-2 12 20 0.0020 0.0152
-2 12 21 1.6434 -0.2166
-2 12 22 7.1098 -0.1296
-2 12 23 5.9211 0.0015
-2 14 1 -8.0348 0.0692
-2 14 2 3.0289 -0.0193
-2 14 3 -13.0391 0.0250
-2 14 4 -10.4802 -0.2188
-2 14 5 -8.9916 -0.0609
-2 14 6 -10.6646 0.0099
-2 14 7 -10.0126 -0.1453
-2 14 8 2.2239 0.0778
-2 14 9 -14.2936 -0.0668
-2 14 10 2.6610 -0.0405
-2 14 11 -7.0986 0.1629
-2 14 12 -1.4560 -0.0069
-2 14 13 -0.8296 -0.0439
-2 14 14 -8.3420 0.1617
-2 14 15 -2.8311 0.0021
-2 14 16 -8.9828 -0.1521
-2 14 17 -3.4420 -0.0350
-2 14 18 -2.4972 -0.1201
-2 14 19 -8.0876 0.0954
-2 16 1 0.8028 0.1238
-2 16 2 -0.5398 0.0317
-2 16 3 9.6634 0.0833
-2 16 4 -8.8471 -0.0834
-2 16 5 0.6084 -0.0893
-2 16 6 -9.2851 0.0731
-2 16 7 -3.0922 0.0159
-2 16 8 -7.2540 -0.0444
-2 16 9 0.9317 0.0854
-2 16 10 -4.4138 -0.2273
-2 16 11 3.9441 -0.0686
-2 16 12 -7.3321 -0.1539
-2 16 13 4.3406 -0.5743
-2 16 14 -16.5503 -0.1095
-2 16 15 1.6193 -0.0120
-2 18 1 3.1090 0.0754
-2 18 2 -10.3557 0.0462
-2 18 3 10.4021 -0.0200
-2 18 4 -3.4314 0.0236
-1 1 4 0.6220 -0.0131
-1 1 5 -20.0462 -0.1896
-1 1 6 0.7107 0.3260
-1 1 7 -22.3811 0.0671
-1 1 8 40.7951 -0.4089
-1 1 9 -12.1855 0.0308
-1 1 10 10.2454 0.3654
-1 1 11 -5.7195 0.0937
-1 1 12 5.5597 -0.2518
-1 1 13 -2.4405 -0.0274
-1 1 14 12.5446 -0.0465
-1 1 15 -0.4406 0.1265
-1 1 16 0.9594 0.0632
-1 1 17 0.7855 0.0046
-1 1 18 8.0337 -0.1361
-1 1 19 2.0171 -0.1097
-1 1 20 0.6929 -0.1415
-1 1 21 2.4209 0.0257
-1 1 22 -8.5662 0.1149
-1 1 23 3.6547 -0.0981
-1 1 24 -10.4923 -0.1451
-1 1 25 -0.1705 -0.0514
-1 1 26 -0.0524 0.0257
-1 1 27 0.3412 -0.0133
-1 1 28 -1.7951 0.1752
-1 1 29 -0.6694 0.0254
-1 3 1 -34.5824 0.5349
-1 3 2 -24.6534 -1.0803
-1 3 3 -50.6418 -0.5220
-1 3 4 19.2195 0.5732
-1 3 5 -24.6948 0.1540
-1 3 6 6.5405 -0.0690
-1 3 7 -29.8152 0.3840
-1 3 8 25.0563 -0.5048
-1 3 9 -19.1717 -0.1019
-1 3 10 -2.4570 0.2387
-1 3 11 -13.8945 0.0778
-1 3 12 -7.3032 -0.1129
-1 3 13 -3.7549 -0.0046
-1 3 14 -4.8238 -0.0006
-1 3 15 -0.8462 0.0662
-1 3 16 -12.3594 -0.0270
-1 3 17 -4.0908 0.0378
-1 3 18 2.6291 -0.1152
-1 3 19 -1.3413 -0.0908
-1 3 20 6.2538 -0.1054
-1 3 21 -0.1084 -0.0105
-1 3 22 -0.8428 0.1819
-1 3 23 5.8577 0.0377
-1 3 24 -0.7905 -0.1004
-1 3 25 2.2988 -0.0362
-1 3 26 9.6191 0.0284
-1 3 27 1.2849 -0.0559
-1 3 28 9.3302 0.1806
-1 3 29 -3.5135 -0.0032
-1 5 1 -17.3393 -0.0303
-1 5 2 -14.3453 -0.3111
-1 5 3 -19.1093 -0.2823
-1 5 4 8.1543 0.3170
-1 5 5 14.6110 0.4348
-1 5 6 3.1485 -0.0478
-1 5 7 -3.8577 0.2273
-1 5 8 19.2642 -0.0661
-1 5 9 -8.2822 -0.1700
-1 5 10 0.2702 0.1164
-1 5 11 -16.5387 0.0608
-1 5 12 -13.4296 -0.0777
-1 5 13 -3.4441 0.0280
-1 5 14 -10.9793 0.0050
-1 5 15 2.6157 0.0719
-1 5 16 -10.1376 -0.0109
-1 5 17 -6.3130 -0.0345
-1 5 18 0.2941 0.0516
-1 5 19 -2.8353 -0.1075
-1 5 20 6.7956 -0.1454
-1 5 21 2.1514 -0.0272
-1 5 22 -6.1296 0.0402
-1 5 23 8.8111 0.0445
-1 5 24 -5.3908 -0.0789
-1 5 25 3.1253 -0.0560
-1 5 26 15.1522 -0.0032
-1 5 27 -1.2460 -0.0014
-1 5 28 14.3541 0.1357
-1 7 1 -1.1178 0.0087
-1 7 2 -32.0690 -0.1394
-1 7 3 11.0935 -0.0997
-1 7 4 -4.4404 0.1048
-1 7 5 33.5260 0.0239
-1 7 6 6.5560 0.0004
-1 7 7 7.8642 -0.1359
-1 7 8 17.3007 -0.0482
-1 7 9 5.9228 -0.0173
-1 7 10 9.6090 -0.0594
-1 7 11 -5.3464 0.0758
-1 7 12 -12.2463 0.0254
-1 7 13 -2.8045 -0.0263
-1 7 14 -12.0560 0.0299
-1 7 15 0.8795 -0.0268
-1 7 16 -1.1022 -0.0386
-1 7 17 -3.3306 -0.0610
-1 7 18 2.5874 -0.0338
-1 7 19 4.7063 0.0401
-1 7 20 8.9194 -0.2379
-1 7 21 12.5964 -0.0562
-1 7 22 -4.4414 0.0899
-1 7 23 10.4758 -0.1003
-1 7 24 -4.7029 0.0563
-1 7 25 -1.0665 -0.0454
-1 7 26 12.7791 -0.1590
-1 7 27 1.0180 -0.1298
-1 9 1 -6.6176 -0.1397
-1 9 2 -24.1930 -0.0370
-1 9 3 1.5568 -0.0366
-1 9 4 -5.6347 -0.0067
-1 9 5 20.2690 0.0221
-1 9 6 4.6651 -0.0452
-1 9 7 6.2086 -0.0610
-1 9 8 1.2921 -0.0539
-1 9 9 10.2977 -0.0095
-1 9 10 4.7611 -0.0157
-1 9 11 8.6553 -0.0333
-1 9 12 -5.1801 0.0829
-1 9 13 6.7134 -0.0147
-1 9 14 -4.9808 -0.0657
-1 9 15 -0.5125 -0.0609
-1 9 16 2.1966 -0.1413
-1 9 17 -6.6554 -0.1205
-1 9 18 0.6543 -0.0583
-1 9 19 -1.4584 -0.0547
-1 9 20 13.0278 -0.0162
-1 9 21 3.6998 -0.1096
-1 9 22 7.1433 0.1361
-1 9 23 0.6247 0.0048
-1 9 24 -0.2199 -0.0527
-1 9 25 -0.4535 0.1770
-1 9 26 1.7949 0.0727
-1 11 1 -0.1874 -0.0934
-1 11 2 -3.2326 -0.0561
-1 11 3 5.2173 0.0467
-1 11 4 -7.0385 -0.1165
-1 11 5 8.7456 -0.0383
-1 11 6 -0.0330 0.0061
-1 11 7 5.1131 -0.0483
-1 11 8 -7.2891 0.0847
-1 11 9 8.9285 0.0208
-1 11 10 -6.2734 0.0043
-1 11 11 7.0355 -0.0076
-1 11 12 -5.1200 -0.0192
-1 11 13 10.9048 -0.0128
-1 11 14 4.3075 -0.0884
-1 11 15 9.1053 -0.1005
-1 11 16 6.7335 0.0263
-1 11 17 -0.0323 -0.0693
-1 11 18 -2.5596 0.0584
-1 11 19 -5.9134 0.0468
-1 11 20 4.6359 0.0446
-1 11 21 -6.6554 0.1753
-1 11 22 0.7113 -0.0829
-1 11 23 -7.4956 -0.0476
-1 11 24 -6.3042 -0.4596
-1 13 1 10.1038 -0.0201
-1 13 2 -2.1851 0.0324
-1 13 3 14.9547 0.0225
-1 13 4 2.3386 0.1164
-1 13 5 5.4776 -0.0464
-1 13 6 2.8836 0.0085
-1 13 7 8.6937 0.0695
-1 13 8 -4.4287 -0.0478
-1 13 9 15.1184 0.0387
-1 13 10 -4.8904 -0.0570
-1 13 11 7.0087 -0.1219
-1 13 12 -5.7525 -0.0521
-1 13 13 6.1220 -0.0672
-1 13 14 3.4692 -0.0793
-1 13 15 9.5149 0.0060
-1 13 16 7.9929 0.1383
-1 13 17 7.4336 0.2069
-1 13 18 -2.2612 0.0088
-1 13 19 4.3963 0.0754
-1 13 20 -6.4820 -0.0314
-1 13 21 0.0857 0.0023
-1 15 1 0.6516 -0.1310
-1 15 2 -4.0064 0.0461
-1 15 3 -1.8664 -0.0941
-1 15 4 8.7307 0.1314
-1 15 5 3.3561 0.0665
-1 15 6 4.8411 -0.0638
-1 15 7 7.8480 0.1160
-1 15 8 0.3413 0.0339
-1 15 9 8.8142 -0.0439
-1 15 10 2.3583 0.1409
-1 15 11 4.4897 -0.0379
-1 15 15 -2.8139 -0.0033
-1 15 16 9.3228 0.1748
-1 15 17 0.6807 -0.0116
-1 17 1 -6.1180 -0.1503
-1 17 2 5.8138 0.0341
-1 17 3 -12.4833 -0.0340
-1 17 4 2.4333 0.0031
-1 17 5 -3.7880 0.0448
-1 17 6 5.8398 -0.1143
-1 17 7 -6.5748 -0.1749
-1 17 8 10.0295 0.1056
-1 17 9 -7.7979 -0.2146
-1 17 10 6.2357 0.2177
0 0 6 7.4462 -0.2376
0 0 8 -30.8491 -0.0714
0 0 10 -1.1408 -0.2890
0 0 12 -9.3266 0.1889
0 0 14 -9.5886 -0.0353
0 0 16 -0.7220 -0.0236
0 0 18 -5.8854 0.0213
0 0 20 3.8431 0.1531
0 0 22 8.6861 -0.1720
0 0 24 6.9432 0.1759
0 0 26 1.7033 -0.0710
0 0 28 10.5246 -0.1433
0 2 3 25.1866 0.4750
0 2 4 -15.3394 -0.7692
0 2 5 21.1533 -0.0455
0 2 6 -5.9751 0.0702
0 2 7 32.1121 -0.0836
0 2 8 -27.2570 0.1228
0 2 9 20.1740 0.0007
0 2 10 4.6688 -0.1806
0 2 11 13.7593 -0.1000
0 2 12 0.0429 0.1243
0 2 13 6.6543 0.0266
0 2 14 0.6605 -0.0336
0 2 15 5.6264 -0.1329
0 2 16 5.7026 -0.0009
0 2 17 0.9745 -0.0152
0 2 18 -5.5594 0.1183
0 2 19 -2.7376 -0.0154
0 2 20 -1.6013 0.2003
0 2 21 -2.6839 -0.0141
0 2 22 2.5243 -0.2001
0 2 23 -4.6574 0.0115
0 2 24 0.0140 0.2402
0 2 25 -1.5963 0.0198
0 2 26 -3.6960 -0.0080
0 2 27 -5.3191 0.0638
0 2 28 2.2896 -0.0780
0 2 29 -1.1459 0.0027
0 4 0 44.1147 -0.0268
0 4 1 34.2897 -0.1510
0 4 2 -12.9058 0.2197
0 4 3 22.8131 0.3274
0 4 4 -34.4449 -0.6119
0 4 5 2.5811 -0.5044
0 4 6 -20.3327 0.2153
0 4 7 20.9865 -0.1996
0 4 8 -24.9396 0.0775
0 4 9 16.2120 0.0764
0 4 10 7.1857 -0.0665
0 4 11 15.0701 -0.0356
0 4 12 10.0104 -0.0114
0 4 13 1.7905 -0.0243
0 4 14 6.9437 0.0104
0 4 15 3.8842 -0.1408
0 4 16 8.5959 0.0320
0 4 17 5.9342 0.0138
0 4 18 -5.0642 0.0081
0 4 19 3.6088 0.0542
0 4 20 -7.5552 0.1452
0 4 21 2.4137 0.0410
0 4 22 2.9104 -0.1716
0 4 23 -5.3994 -0.1035
0 4 24 -3.4425 0.1669
0 4 25 -2.4950 0.0036
0 4 26 -13.9555 -0.0953
0 4 27 -1.2135 0.0290
0 4 28 -9.9165 -0.1245
0 4 29 4.0135 -0.0311
0 6 0 39.6396 0.0052
0 6 1 20.4998 0.0184
0 6 2 4.9123 0.1247
0 6 3 -7.7360 0.0952
0 6 4 -19.6106 -0.1561
0 6 5 -24.1160 -0.2165
0 6 6 -21.2537 0.0539
0 6 7 0.4838 0.0449
0 6 8 -26.3813 -0.0608
0 6 9 0.6781 -0.0164
0 6 10 -1.2765 0.0194
0 6 11 10.8775 -0.0581
0 6 12 14.4721 -0.0639
0 6 13 -0.5264 -0.0891
0 6 14 5.2476 0.0088
0 6 15 -3.1607 -0.0349
0 6 16 -0.1236 -0.0799
0 6 17 1.2253 0.0903
0 6 18 -6.9281 -0.0365
0 6 19 -1.3964 -0.0614
0 6 20 -6.7211 0.2464
0 6 21 -6.2519 0.0356
0 6 22 13.0535 -0.0697
0 6 23 -7.8180 0.0184
0 6 24 -0.0083 0.1257
0 6 25 1.4105 0.1024
0 6 26 -18.7994 0.0621
0 6 27 3.3777 0.0387
0 6 28 -7.5100 0.0783
0 8 0 46.2193 0.0533
0 8 1 13.0649 0.0472
0 8 2 25.6408 -0.0053
0 8 3 -12.4406 0.0407
0 8 4 -4.2560 -0.0675
0 8 5 -23.1832 0.0082
0 8 6 -10.9840 0.0217
0 8 7 -4.8372 0.0427
0 8 8 -12.9188 0.0312
0 8 9 -11.7653 -0.0837
0 8 10 -6.9889 0.0319
0 8 11 -3.6838 -0.0057
0 8 12 12.6416 -0.1144
0 8 13 -2.3564 -0.0367
0 8 14 7.7611 0.0258
0 8 15 1.5775 0.0797
0 8 16 -1.3941 0.0559
0 8 17 2.9514 0.0624
0 8 18 -5.5372 0.1535
0 8 19 -5.3054 -0.0788
0 8 20 -9.3349 0.1179
0 8 21 -10.5300 0.1238
0 8 22 7.8438 -0.2189
0 8 23 -2.4825 -0.0178
0 8 24 -0.2818 0.0181
0 8 25 1.5784 -0.1058
0 8 26 -9.0177 0.1037
0 10 0 8.7156 -0.0487
0 10 1 8.8832 0.1354
0 10 2 13.5608 0.0236
0 10 3 -4.1732 -0.0451
0 10 4 4.7000 0.1268
0 10 5 -11.9221 -0.0092
0 10 6 -0.0451 -0.0196
0 10 7 -3.5089 0.0109
0 10 8 5.2994 -0.1086
0 10 9 -8.8139 -0.0529
0 10 10 0.6200 -0.0506
0 10 11 -10.9912 -0.0375
0 10 12 4.3057 -0.0306
0 10 13 -11.4745 -0.0345
0 10 14 -2.4023 0.1101
0 10 15 1.3853 0.0960
0 10 16 -2.0671 0.0649
0 10 17 10.4649 0.0871
0 10 18 1.2863 0.0355
0 10 19 6.6076 0.0417
0 10 20 -9.2883 -0.0607
0 10 21 2.9893 0.0145
0 10 22 1.2654 0.0707
0 10 23 7.3583 -0.0516
0 10 24 6.2744 0.2568
0 12 0 -7.9214 0.0077
0 12 1 -4.6597 -0.0039
0 12 2 3.8135 0.0253
0 12 3 -8.7931 -0.0649
0 12 4 5.3189 0.0351
0 12 5 -3.6464 0.1120
0 12 6 -0.4171 -0.0554
0 12 7 -7.2209 0.0477
0 12 8 4.4801 -0.0096
0 12 9 -8.3060 -0.0320
0 12 10 6.1329 0.0637
0 12 11 -4.3380 -0.0117
0 12 12 5.6478 0.0265
0 12 13 -10.7757 0.0357
0 12 14 -8.1464 0.0266
0 12 15 -8.4032 0.0020
0 12 16 -6.5758 -0.0998
0 12 17 1.2334 -0.1469
0 12 18 6.3332 0.0124
0 12 19 5.5607 -0.1022
0 12 20 0.8487 0.0142
0 12 21 5.4280 -0.0898
0 12 22 3.0628 0.2645
0 14 0 10.6754 0.1535
0 14 1 -3.7100 0.0635
0 14 2 5.3536 -0.0462
0 14 3 -3.7968 0.0571
0 14 4 -1.5585 -0.0943
0 14 5 -0.8197 -0.0093
0 14 6 0.2839 0.0142
0 14 7 -9.7258 -0.1066
0 14 8 0.5247 0.0431
0 14 9 -12.9383 0.0439
0 14 10 1.2089 0.0304
0 14 11 -5.3798 0.1051
0 14 12 5.5363 0.0353
0 14 13 -2.0773 0.0072
0 14 14 -4.1115 0.0777
0 14 15 -2.0669 -0.1044
0 14 16 -6.6091 -0.0444
0 14 17 -4.5479 -0.1840
0 14 18 5.8350 0.0905
0 16 0 3.9053 0.0776
0 16 1 8.2960 0.1688
0 16 2 0.1114 -0.0887
0 16 3 7.6146 0.0648
0 16 4 -1.8057 0.0002
0 16 5 -2.0707 -0.0565
0 16 6 -1.1859 0.0911
0 16 7 -2.1177 0.0196
0 16 8 -3.6826 -0.0828
0 16 9 -2.7041 0.1507
0 16 10 -5.1036 -0.1133
0 16 12 -6.4589 -0.0434
0 16 13 5.7113 -0.2008
0 16 14 -7.6265 0.0080
0 18 0 -12.3823 -0.0096
0 18 1 5.0261 0.1651
0 18 2 -5.2350 -0.0710
1 1 4 -6.6760 0.7696
1 1 5 -7.7869 0.0076
1 1 6 -7.3158 0.0199
1 1 7 -16.4881 -0.1607
1 1 8 16.1741 0.2660
1 1 9 -11.2026 0.0337
1 1 10 -10.3980 0.0521
1 1 11 -9.0294 0.0181
1 1 12 3.4805 0.0004
1 1 13 -5.8428 -0.0220
1 1 14 -0.7401 0.0144
1 1 15 -4.4548 0.1148
1 1 16 -1.9583 0.1273
1 1 17 1.4348 -0.0405
1 1 18 3.5471 -0.0559
1 1 19 3.4786 0.0707
1 1 20 -2.9044 -0.1996
1 1 21 2.7486 -0.0235
1 1 22 -1.7058 0.2170
1 1 23 1.9910 -0.0471
1 1 24 0.4166 -0.3368
1 1 25 1.5468 0.0252
1 1 26 -2.3004 0.0640
1 1 27 5.6400 -0.0026
1 1 28 -10.9264 0.0322
1 1 29 2.0420 0.0831
1 3 0 -59.4365 -0.1366
1 3 1 -21.8104 0.2529
1 3 2 31.3843 -0.1394
1 3 3 -2.5275 -0.4023
1 3 4 33.9309 0.6867
1 3 5 -7.6647 0.2543
1 3 6 19.0618 -0.1769
1 3 7 -25.8605 -0.0274
1 3 8 20.5876 0.0538
1 3 9 -16.8389 0.0069
1 3 10 -11.6939 -0.0496
1 3 11 -12.6490 -0.0360
1 3 12 -4.3285 0.1035
1 3 13 -5.4972 -0.0135
1 3 14 -4.6569 -0.0327
1 3 15 -8.9869 0.1098
1 3 16 -4.8136 0.0401
1 3 17 -1.7210 0.0381
1 3 18 6.0817 -0.0894
1 3 19 -0.4792 0.0605
1 3 20 4.3560 -0.1181
1 3 21 -1.1037 -0.0202
1 3 22 1.3552 0.2527
1 3 23 3.3751 0.1470
1 3 24 5.7727 -0.2776
1 3 25 3.0238 -0.0035
1 3 26 4.1529 0.1029
1 3 27 6.8580 -0.0817
1 3 28 0.0751 -0.0246
1 3 29 0.3025 -0.0502
1 5 0 -28.2425 -0.0643
1 5 1 -32.9742 -0.0875
1 5 2 35.1410 0.0749
1 5 3 5.5963 -0.1340
1 5 4 44.3804 0.1951
1 5 5 9.1219 0.2788
1 5 6 33.3660 -0.1056
1 5 7 -10.2799 -0.0197
1 5 8 25.6633 0.0849
1 5 9 -6.0581 0.0281
1 5 10 -8.5514 -0.0126
1 5 11 -8.5050 -0.0394
1 5 12 -8.3474 0.1466
1 5 13 4.1893 0.1387
1 5 14 2.3551 -0.0945
1 5 15 0.3323 0.0693
1 5 16 0.7613 0.1461
1 5 17 -2.5247 -0.0350
1 5 18 9.1198 0.0428
1 5 19 -5.8194 0.0335
1 5 20 4.6962 -0.1407
1 5 21 -2.1101 -0.0739
1 5 22 -9.1203 0.1118
1 5 23 4.1566 0.1009
1 5 24 7.4284 -0.1960
1 5 25 -0.9712 -0.0586
1 5 26 14.5915 0.1629
1 5 27 -2.9655 0.0337
1 5 28 6.1916 0.0427
1 7 0 -39.2924 -0.1083
1 7 1 -24.7936 0.0407
1 7 2 2.7564 0.0349
1 7 3 15.3881 -0.0010
1 7 4 25.0642 0.0556
1 7 5 15.5691 0.0023
1 7 6 23.5676 0.0215
1 7 7 1.7746 -0.0316
1 7 8 21.5953 0.0082
1 7 9 8.0130 0.0862
1 7 10 -1.8097 -0.0280
1 7 11 -4.0258 0.0101
1 7 12 -16.7951 0.1393
1 7 13 2.4960 0.1437
1 7 14 -1.6030 -0.0133
1 7 15 3.6384 -0.1085
1 7 16 4.2061 0.1317
1 7 17 1.2534 -0.0025
1 7 18 8.5961 -0.1045
1 7 19 2.6269 0.1718
1 7 20 0.2906 -0.1191
1 7 21 7.1086 -0.0807
1 7 22 -16.4855 0.1615
1 7 23 1.3651 0.0315
1 7 24 7.9090 -0.1111
1 7 25 -4.2646 -0.0570
1 7 26 15.0594 -0.0825
1 7 27 -3.0676 -0.0655
1 9 0 -24.0018 0.0329
1 9 1 -15.1968 -0.0642
1 9 2 -11.3879 0.0508
1 9 3 11.0144 0.0513
1 9 4 5.6540 -0.0540
1 9 5 11.2812 0.0480
1 9 6 4.1338 0.0707
1 9 7 1.7267 0.0915
1 9 8 3.5806 0.0672
1 9 9 12.5356 0.0923
1 9 10 2.0304 0.0312
1 9 11 9.8542 0.0135
1 9 12 -12.0580 0.0788
1 9 13 4.0099 0.0537
1 9 14 -4.0504 -0.0632
1 9 15 -7.2772 -0.1066
1 9 16 -1.1036 -0.0753
1 9 17 -8.5630 0.0056
1 9 18 2.0356 -0.1457
1 9 19 -0.8339 -0.0033
1 9 20 2.9785 0.0940
1 9 21 0.4963 -0.0779
1 9 22 -11.1590 0.1100
1 9 23 -7.2852 0.1816
1 9 24 -0.6607 -0.0298
1 9 25 1.9615 0.1694
1 9 26 1.0870 0.1584
1 11 0 7.4146 0.0918
1 11 1 -3.1361 0.0063
1 11 2 -7.8207 -0.0522
1 11 3 6.5248 0.0806
1 11 4 -3.6786 -0.1306
1 11 5 5.5600 -0.1068
1 11 6 1.5088 0.0969
1 11 7 2.5490 -0.0387
1 11 8 -4.7643 0.0744
1 11 9 3.4749 0.0947
1 11 10 -3.0176 0.0110
1 11 11 7.6392 0.1014
1 11 12 -1.0352 0.0120
1 11 13 9.8398 0.0167
1 11 14 9.7412 -0.0364
1 11 15 -3.5037 -0.0108
1 11 16 0.8191 0.0431
1 11 17 -11.9925 0.0313
1 11 18 -4.8151 0.0020
1 11 19 -8.8125 -0.0079
1 11 20 4.5556 0.0223
1 11 21 -6.9598 0.0621
1 11 22 -6.5358 -0.3013
1 11 23 -9.5594 -0.1496
1 13 0 -0.3083 -0.0992
1 13 1 3.7200 0.0110
1 13 2 -7.9322 -0.0075
1 13 3 1.8081 -0.0159
1 13 5 -1.7710 -0.0929
1 13 6 2.5888 0.0384
1 13 7 7.6568 -0.0020
1 13 8 1.9558 -0.1014
1 13 9 3.2466 -0.0021
1 13 10 -4.3475 -0.0729
1 13 11 -1.8961 -0.0394
1 13 12 -6.4948 0.0013
1 13 13 3.8341 -0.0592
1 13 14 8.3893 -0.0328
1 13 15 4.1138 0.1420
1 13 16 3.6424 0.0301
1 13 17 -0.1188 0.1839
1 13 18 -8.3445 -0.0872
1 13 19 -2.2933 -0.1026
1 13 20 0.3409 -0.0102
1 15 0 -10.0631 -0.1195
1 15 1 -4.1759 -0.1172
1 15 2 -3.6911 0.0464
1 15 3 -2.2642 -0.0541
1 15 4 -2.7740 -0.0091
1 15 5 0.6070 0.0612
1 15 6 -2.3705 -0.0299
1 15 7 7.0699 0.0472
1 15 8 2.4356 -0.0344
1 15 9 8.4804 -0.1219
1 15 10 0.1956 -0.0261
1 15 11 2.3761 -0.0906
1 15 12 -5.4992 -0.0450
1 15 13 -6.5439 0.0339
1 15 14 1.3264 -0.1644
1 15 15 -6.4037 0.0424
1 15 16 0.8969 -0.1137
1 17 0 6.1937 -0.0024
1 17 1 -7.6923 -0.1696
1 17 2 1.4051 0.1070
1 17 3 1.2382 0.0603
1 17 4 -0.0292 -0.0520
1 17 5 5.9232 0.0627
1 17 6 5.0929 -0.0551
1 17 7 0.1933 -0.0962
1 17 8 6.3459 0.0370
1 17 9 1.1074 -0.2452
2 0 4 21.9166 -0.4418
2 0 6 14.5840 -0.0111
2 0 8 -1.0768 -0.2596
2 0 10 18.0648 0.0679
2 0 12 0.1373 -0.1619
2 0 14 5.2221 0.0954
2 0 16 0.8883 -0.2963
2 0 18 -1.2251 0.0579
2 0 20 2.1395 0.1274
2 0 22 -3.8095 -0.2534
2 0 24 -3.0840 0.2934
2 0 26 3.7497 -0.2110
2 0 28 9.5710 -0.0621
2 2 1 -7.8898 -0.0970
2 2 2 -37.6143 0.1974
2 2 3 -22.3720 0.3121
2 2 4 -6.9433 -0.4097
2 2 5 1.1498 -0.0031
2 2 6 -3.6046 0.0119
2 2 7 15.8960 0.2173
2 2 8 -7.9376 -0.1148
2 2 9 11.5900 -0.0266
2 2 10 16.0806 0.1451
2 2 11 10.3088 0.1127
2 2 12 1.8886 -0.1803
2 2 13 8.2804 0.0449
2 2 14 4.8150 0.0832
2 2 15 8.0256 -0.0131
2 2 16 1.6580 -0.2276
2 2 17 -3.4995 -0.0640
2 2 18 -3.2365 0.1304
2 2 19 -3.3645 -0.0990
2 2 20 -1.2077 0.0589
2 2 21 -0.9490 0.0267
2 2 22 -4.9104 -0.2157
2 2 23 -0.5743 -0.1197
2 2 24 -3.8654 0.3812
2 2 25 -3.0318 0.0308
2 2 26 3.6467 -0.0953
2 2 27 -8.3103 0.0687
2 2 28 5.4481 0.0843
2 2 29 -1.0245 -0.0215
2 4 0 20.5451 0.1501
2 4 1 16.3233 0.2191
2 4 2 -58.4990 -0.2091
2 4 3 -21.0586 0.2617
2 4 4 -43.4386 -0.1404
2 4 5 -3.2633 -0.0945
2 4 6 -29.3519 0.0181
2 4 7 12.1184 0.0557
2 4 8 -17.0105 -0.0114
2 4 9 5.7017 -0.0251
2 4 10 12.8593 0.0636
2 4 11 3.5220 0.1688
2 4 12 -0.0685 -0.2058
2 4 13 -1.3743 -0.0822
2 4 14 -4.3526 0.1629
2 4 15 5.1599 -0.0278
2 4 16 0.1312 -0.1975
2 4 17 1.3505 -0.0694
2 4 18 -7.6656 0.0569
2 4 19 6.9777 -0.0141
2 4 20 -3.2896 -0.0005
2 4 21 4.2894 0.0554
2 4 22 1.2014 -0.1757
2 4 23 -1.6716 -0.2078
2 4 24 -6.8496 0.1999
2 4 25 -1.4199 0.0321
2 4 26 -2.4438 -0.2346
2 4 27 -1.8141 -0.0000
2 4 28 -0.5130 0.0242
2 6 0 14.6658 0.1045
2 6 1 30.8810 0.0144
2 6 2 -39.5557 -0.0847
2 6 3 -15.5638 0.0492
2 6 4 -41.4893 0.0466
2 6 5 -5.2316 0.0621
2 6 6 -31.1366 -0.0464
2 6 7 1.4242 0.0343
2 6 8 -18.0124 0.0038
2 6 9 -2.4533 -0.0141
2 6 10 13.5127 -0.0322
2 6 11 4.3532 0.0386
2 6 12 8.5933 -0.1283
2 6 13 -7.6665 -0.2111
2 6 14 -8.5706 0.0941
2 6 15 -5.5704 0.1108
2 6 16 -4.1556 -0.2887
2 6 17 1.7605 -0.0646
2 6 18 -8.2991 0.0243
2 6 19 6.8861 -0.0829
2 6 20 4.4795 0.0454
2 6 21 -0.6009 0.1013
2 6 22 12.7268 -0.0488
2 6 23 -0.1313 -0.0630
2 6 24 -12.6178 0.1408
2 6 25 4.7686 0.1079
2 6 26 -11.1909 -0.1401
2 6 27 6.9414 -0.0696
2 8 0 17.7756 0.0241
2 8 1 22.5846 -0.0702
2 8 2 -9.2460 -0.0917
2 8 3 -13.1630 -0.0660
2 8 4 -18.8811 -0.0153
2 8 5 -3.6517 -0.0250
2 8 6 -11.3737 -0.1186
2 8 7 -2.7614 -0.0972
2 8 8 -10.5091 0.0377
2 8 9 -12.2731 -0.0070
2 8 10 7.7273 -0.0007
2 8 11 -0.4292 0.0033
2 8 12 20.3045 -0.0925
2 8 13 0.0334 -0.0867
2 8 14 3.0442 -0.0011
2 8 15 1.9007 0.1635
2 8 16 0.4143 -0.0454
2 8 17 4.1522 -0.1303
2 8 18 -1.7515 0.1521
2 8 19 1.5051 -0.0854
2 8 20 8.9412 -0.1077
2 8 21 -0.3741 0.0515
2 8 22 14.2518 -0.1417
2 8 23 6.7510 -0.1622
2 8 24 -10.7618 -0.0216
2 8 25 2.0431 -0.0569
2 8 26 -7.5457 0.0038
2 10 0 -1.8682 -0.1468
2 10 1 8.4218 -0.0280
2 10 2 4.8392 0.0534
2 10 3 -10.6712 -0.0745
2 10 4 -4.7287 0.1290
2 10 5 -3.6979 0.0116
2 10 6 -1.3727 -0.1365
2 10 7 1.0944 -0.0835
2 10 8 1.5050 -0.0592
2 10 9 -8.5563 -0.0794
2 10 10 0.7734 -0.0396
2 10 11 -10.3961 -0.0577
2 10 12 5.9283 -0.0401
2 10 13 -1.3385 -0.0326
2 10 14 -2.3285 0.0285
2 10 15 11.7207 0.0153
2 10 16 4.1916 0.0258
2 10 17 12.6947 -0.0228
2 10 18 2.0799 0.0169
2 10 19 7.4328 0.0664
2 10 20 1.1223 -0.1291
2 10 21 9.0785 -0.0586
2 10 22 12.9481 0.0912
2 10 23 10.3679 -0.1218
2 10 24 6.0822 -0.0913
2 12 0 -7.2853 -0.0198
2 12 1 0.4149 -0.0593
2 12 2 11.8528 0.0529
2 12 3 -0.1449 0.0079
2 12 4 1.9368 0.0280
2 12 5 0.5625 0.1660
2 12 6 -7.4540 -0.0669
2 12 7 0.0646 0.0327
2 12 8 0.1381 0.0684
2 12 9 7.2635 -0.0914
2 12 10 2.5351 -0.0046
2 12 11 2.6221 -0.0488
2 12 12 -2.4242 -0.0374
2 12 13 -3.4530 0.0312
2 12 14 -12.7883 -0.0221
2 12 15 2.4791 -0.1073
2 12 16 1.0683 -0.0831
2 12 17 7.5723 -0.0499
2 12 18 3.6143 0.0234
2 12 19 4.7754 0.0445
2 12 20 -6.4000 0.0244
2 12 21 2.2418 0.0231
2 14 0 4.7762 0.1179
2 14 1 -0.6361 0.0674
2 14 2 9.3201 0.0098
2 14 3 4.8548 0.0339
2 14 4 6.5371 -0.0214
2 14 5 4.1161 -0.0017
2 14 6 -3.9769 -0.0109
2 14 7 -3.6978 -0.0128
2 14 8 -5.7953 0.1177
2 14 9 3.9568 0.0574
2 14 10 4.4412 0.0091
2 14 11 8.0541 0.0946
2 14 12 9.3632 0.0131
2 14 13 5.0702 0.0473
2 14 14 -3.3717 0.1512
2 14 15 0.6746 -0.1067
2 14 16 1.3046 0.0825
2 14 17 -0.2278 0.1511
2 16 0 0.8181 0.0369
2 16 1 3.1940 0.1119
2 16 2 0.2129 -0.0382
2 16 3 -4.9702 -0.0570
2 16 4 2.1631 0.0356
2 16 5 -6.4877 -0.0740
2 16 6 -0.3349 0.0076
2 16 7 -6.4301 0.0034
2 16 8 -3.5015 0.0948
2 16 9 -7.8293 0.1758
2 16 10 -1.4781 0.0810
2 16 11 -2.3602 0.1061
2 16 12 3.6573 0.0664
2 18 0 -6.4224 -0.0295
2 18 1 0.1586 0.1596
2 18 2 1.7834 -0.0753
2 18 3 -10.3396 -0.1469
3 1 2 40.2422 -0.2859
3 1 3 23.2230 -0.0126
3 1 4 -19.4476 -0.1133
3 1 5 3.8616 -0.0523
3 1 6 -8.9211 0.0540
3 1 7 -3.7138 -0.1966
3 1 8 -7.4151 -0.0438
3 1 9 -4.7321 0.0485
3 1 10 -21.4265 -0.0998
3 1 11 -5.2023 -0.1385
3 1 12 -4.2795 0.1509
3 1 13 -5.4973 -0.0542
3 1 14 -6.6929 -0.1726
3 1 15 -3.4033 -0.0161
3 1 16 0.1272 0.4073
3 1 17 4.3925 0.0537
3 1 18 0.4198 -0.2022
3 1 19 2.9635 0.0082
3 1 20 1.9369 0.0138
3 1 21 -0.0807 -0.0668
3 1 22 9.0933 0.1399
3 1 23 -1.9754 0.0369
3 1 24 3.5874 -0.3416
3 1 25 0.9839 -0.0284
3 1 26 -3.0379 0.1747
3 1 27 3.6106 -0.0229
3 1 28 -2.0582 -0.0166
3 1 29 -0.6841 0.0748
3 3 0 -8.4024 -0.3696
3 3 1 20.6089 -0.2811
3 3 2 58.1120 0.0456
3 3 3 42.1057 -0.1990
3 3 4 16.6272 -0.0357
3 3 5 7.1764 -0.0831
3 3 6 14.3756 0.1430
3 3 7 -5.0917 -0.0771
3 3 8 5.3349 -0.1844
3 3 9 -2.7942 0.0041
3 3 10 -14.4372 -0.0904
3 3 11 -2.1875 -0.2132
3 3 12 2.9863 0.1850
3 3 13 -5.0995 -0.0177
3 3 14 1.4398 -0.1785
3 3 15 -6.4352 -0.0671
3 3 16 -0.6921 0.2857
3 3 17 4.0131 0.1414
3 3 18 3.8320 -0.1790
3 3 19 -2.6077 0.0065
3 3 20 2.6990 0.1083
3 3 21 -3.5129 0.0134
3 3 22 4.7286 0.1431
3 3 23 -1.7063 0.1970
3 3 24 1.8587 -0.2278
3 3 25 2.0812 -0.0753
3 3 26 -5.2096 0.1590
3 3 27 3.0986 -0.0548
3 3 28 -0.9627 -0.0812
3 5 0 2.0903 -0.0820
3 5 1 -12.7946 -0.2162
3 5 2 56.0653 0.0257
3 5 3 26.4876 -0.2035
3 5 4 36.0748 -0.1535
3 5 5 1.6970 -0.1617
3 5 6 25.7783 0.1127
3 5 7 -1.9062 0.0538
3 5 8 7.7426 -0.1188
3 5 9 1.0994 -0.0527
3 5 10 -16.1122 0.0868
3 5 11 1.8698 -0.1237
3 5 12 5.3876 0.0704
3 5 13 7.8321 0.1640
3 5 14 10.9685 -0.1753
3 5 15 1.0570 -0.0959
3 5 16 -0.0522 0.3233
3 5 17 -4.3182 0.1208
3 5 18 6.7338 -0.0619
3 5 19 -11.1781 -0.0859
3 5 20 -3.9262 0.0639
3 5 21 -2.6161 -0.0867
3 5 22 -5.3808 0.0140
3 5 23 -0.2194 0.1273
3 5 24 7.7231 -0.0833
3 5 25 -1.4118 -0.0612
3 5 26 0.8842 0.2537
3 5 27 -4.8065 0.0887
3 5 28 -0.0715 0.0810
3 7 0 0.7045 -0.0184
3 7 1 -25.6436 0.1197
3 7 2 30.9010 0.0741
3 7 3 11.1499 -0.0114
3 7 4 24.9874 -0.0061
3 7 5 -3.9902 -0.1071
3 7 6 15.1167 0.1028
3 7 7 3.8087 0.0269
3 7 8 5.1128 -0.1254
3 7 9 4.8679 -0.1238
3 7 10 -22.0120 0.0466
3 7 11 -5.3751 0.0318
3 7 12 -14.2150 -0.0013
3 7 13 5.1193 0.1168
3 7 14 4.3247 -0.0092
3 7 15 3.1172 -0.1931
3 7 16 -2.1498 0.2163
3 7 17 -7.3765 0.1879
3 7 18 -0.2461 -0.0869
3 7 19 -6.6246 0.0135
3 7 20 -14.2007 0.0631
3 7 21 0.6488 -0.0597
3 7 22 -9.0052 -0.0039
3 7 23 -5.0104 0.0636
3 7 24 15.2646 0.0090
3 7 25 -4.8307 -0.0779
3 7 26 6.6251 0.0485
3 7 27 -8.8395 0.0312
3 9 0 3.8335 0.0999
3 9 1 -12.4802 0.0711
3 9 2 6.8215 -0.0413
3 9 3 11.3663 0.0647
3 9 4 10.1219 -0.0301
3 9 5 -3.1132 0.0627
3 9 6 0.9933 0.1316
3 9 7 2.7883 0.0982
3 9 8 2.3794 -0.0709
3 9 9 13.2601 -0.0747
3 9 10 -10.0299 0.0136
3 9 11 2.6078 0.0143
3 9 12 -16.8940 0.0386
3 9 13 -4.5342 0.0109
3 9 14 -2.6339 0.0141
3 9 15 -8.1619 -0.0495
3 9 16 -6.7104 -0.0390
3 9 17 -10.5535 0.1246
3 9 18 -5.1377 -0.0462
3 9 19 -8.0955 -0.0351
3 9 20 -11.8629 0.1649
3 9 21 -8.8610 0.0571
3 9 22 -9.9847 0.0475
3 9 23 -8.9989 0.1709
3 9 24 6.8432 0.2009
3 9 25 2.1547 0.1583
3 11 0 5.9542 0.1127
3 11 1 -3.4092 0.0742
3 11 2 -9.6488 -0.1176
3 11 3 4.6265 -0.0144
3 11 4 7.5962 -0.0768
3 11 5 -1.4295 -0.1034
3 11 6 4.3945 0.0760
3 11 7 -5.3944 0.0312
3 11 8 -2.5358 -0.0317
3 11 9 -1.9502 0.0736
3 11 10 1.1609 0.0559
3 11 11 2.9277 0.0478
3 11 12 3.9161 0.0363
3 11 13 -1.8267 0.0179
3 11 14 8.2123 0.0435
3 11 15 -8.4359 0.0791
3 11 16 -3.6400 0.0656
3 11 17 -9.7426 -0.0374
3 11 18 1.9750 0.0349
3 11 19 -6.8814 -0.0160
3 11 20 2.2513 0.0509
3 11 21 -7.6457 0.1076
3 11 22 -12.5168 -0.0984
3 13 0 0.4657 -0.0412
3 13 1 -1.3278 -0.0365
3 13 2 -15.8881 -0.0169
3 13 3 -8.9160 -0.0363
3 13 4 0.0773 0.0436
3 13 5 -5.0182 -0.0773
3 13 6 10.7305 0.0182
3 13 7 -7.8278 0.0088
3 13 8 3.1569 -0.0842
3 13 9 -20.9077 0.0560
3 13 10 -2.5955 0.0821
3 13 11 -12.8717 -0.0513
3 13 12 0.1593 0.0232
3 13 13 -1.6309 -0.0695
3 13 14 7.9769 -0.0190
3 13 15 0.0409 0.0895
3 13 16 -3.0508 0.0311
3 13 17 -2.6643 -0.1136
3 13 18 1.2330 -0.0529
3 13 19 2.8293 -0.1898
3 15 0 -0.2146 -0.0677
3 15 1 3.4291 -0.0736
3 15 2 -4.9618 -0.0331
3 15 3 -0.5940 0.0672
3 15 4 -2.7930 0.0283
3 15 5 -0.0025 0.0359
3 15 6 5.7242 0.0258
3 15 7 1.3371 0.0001
3 15 8 5.8515 -0.1107
3 15 9 -3.9413 -0.0862
3 15 10 -5.1950 0.0378
3 15 11 -6.5940 -0.0719
3 15 12 -10.9486 -0.0230
3 15 13 -9.3065 0.0353
3 15 14 -1.5261 -0.1350
3 15 15 -4.7584 -0.0811
3 17 0 3.0159 0.0047
3 17 1 3.1679 -0.0866
3 17 2 0.6400 0.0416
3 17 3 15.0885 0.1207
3 17 4 2.9428 0.0339
3 17 5 14.1121 0.1141
3 17 6 3.8589 0.0008
3 17 7 9.6448 0.1214
3 17 8 3.4090 -0.1406
4 0 2 -42.2768 0.3290
4 0 4 27.2254 0.4744
4 0 6 10.0830 -0.0774
4 0 8 17.1116 0.2562
4 0 10 23.5198 -0.0736
4 0 12 7.2148 0.0363
4 0 14 7.0821 0.2243
4 0 16 -0.8582 -0.4115
4 0 18 1.0922 0.3314
4 0 20 -4.9075 -0.1125
4 0 22 -11.5318 -0.0950
4 0 24 -3.4324 0.1891
4 0 26 -1.6729 -0.2337
4 0 28 -4.5561 -0.0311
4 2 0 -20.9107 0.4166
4 2 1 -41.2342 0.0832
4 2 2 -47.1482 0.2494
4 2 3 -43.6158 -0.1171
4 2 4 11.3856 0.2644
4 2 5 -10.6865 0.1085
4 2 6 -1.5507 -0.1955
4 2 7 -2.2637 0.0412
4 2 8 7.5449 0.3701
4 2 9 0.6628 -0.0107
4 2 10 17.5707 -0.0242
4 2 11 1.9939 0.1366
4 2 12 0.1524 -0.0169
4 2 13 7.3495 0.0711
4 2 14 2.1687 0.1660
4 2 15 2.8619 0.0839
4 2 16 0.2961 -0.3584
4 2 17 -7.5578 -0.1300
4 2 18 -0.2097 0.2789
4 2 19 -0.2388 0.0458
4 2 20 -4.2193 -0.1460
4 2 21 4.2632 -0.0409
4 2 22 -8.5893 -0.0364
4 2 23 5.6395 -0.0757
4 2 24 0.0626 0.2171
4 2 25 0.5666 0.0971
4 2 26 2.3243 -0.1168
4 2 27 0.2921 0.0650
4 2 28 -3.8368 0.0328
4 4 0 -11.0127 0.1785
4 4 1 -23.4015 0.2699
4 4 2 -47.5975 0.2074
4 4 3 -41.7459 0.1728
4 4 4 -11.7304 0.1283
4 4 5 -4.8579 0.1311
4 4 6 -14.2742 -0.1981
4 4 7 -1.8280 -0.1944
4 4 8 0.3066 0.3328
4 4 9 -3.3968 0.0789
4 4 10 11.8781 -0.1247
4 4 11 -4.8048 0.1413
4 4 12 -12.1720 0.0093
4 4 13 -0.1869 -0.0266
4 4 14 -5.5593 0.1609
4 4 15 1.9720 0.1051
4 4 16 2.7731 -0.2623
4 4 17 0.2642 -0.1485
4 4 18 -4.4197 0.1807
4 4 19 8.9215 0.1484
4 4 20 1.6171 -0.1578
4 4 21 4.2132 -0.0087
4 4 22 -0.1342 -0.0241
4 4 23 1.9394 -0.1240
4 4 24 -0.2347 0.0461
4 4 25 -0.2280 0.0427
4 4 26 4.3718 -0.1728
4 4 27 4.5075 -0.0244
4 4 28 -0.5528 -0.0710
4 6 0 -8.4507 -0.0461
4 6 1 11.4540 -0.0157
4 6 2 -34.0899 0.0759
4 6 3 -15.0401 0.1837
4 6 4 -16.6226 0.0722
4 6 5 7.1178 0.1718
4 6 6 -10.7337 -0.0677
4 6 7 -1.4435 -0.0930
4 6 8 6.3175 0.1671
4 6 9 1.2834 0.1909
4 6 10 23.8874 -0.1326
4 6 11 0.7056 -0.0545
4 6 12 -2.2926 0.1552
4 6 13 -9.0010 -0.0965
4 6 14 -5.0940 0.0501
4 6 15 -0.4948 0.1498
4 6 16 6.0365 -0.2700
4 6 17 10.6715 -0.1429
4 6 18 -1.2309 0.0743
4 6 19 8.0085 0.1740
4 6 20 12.2752 -0.0365
4 6 21 -1.2660 0.0545
4 6 22 4.3230 0.1139
4 6 23 2.3695 -0.0281
4 6 24 -9.1227 -0.0122
4 6 25 2.1722 0.0679
4 6 26 -0.7283 -0.1375
4 6 27 7.9944 -0.0541
4 8 0 -9.2431 -0.0639
4 8 1 14.7289 -0.0946
4 8 2 -15.2688 0.0125
4 8 3 -5.9784 0.0026
4 8 4 -8.1086 -0.0611
4 8 5 8.1492 -0.0041
4 8 6 -0.7804 -0.0517
4 8 7 -7.6970 0.0159
4 8 8 3.0720 0.1683
4 8 9 -5.8784 0.2029
4 8 10 25.4679 0.0010
4 8 11 6.5839 -0.0821
4 8 12 16.4860 0.0687
4 8 13 0.0297 0.0278
4 8 14 2.0294 -0.0529
4 8 15 3.7756 0.0846
4 8 16 10.9589 -0.0387
4 8 17 13.0387 -0.1748
4 8 18 9.0366 0.0685
4 8 19 6.1992 0.0672
4 8 20 15.6597 -0.0480
4 8 21 2.9360 -0.0194
4 8 22 1.6122 0.0063
4 8 23 6.1537 -0.0431
4 8 24 -12.8976 -0.1570
4 8 25 1.7774 -0.0054
4 8 26 -4.5899 0.1037
4 10 0 -3.5779 -0.0870
4 10 1 2.8021 -0.0444
4 10 2 1.3389 0.1672
4 10 3 -8.0819 0.0033
4 10 4 -9.6593 0.0464
4 10 5 5.1548 -0.0160
4 10 6 2.2888 -0.0353
4 10 7 -1.2863 -0.0115
4 10 8 0.5421 0.0836
4 10 9 -9.4711 0.0708
4 10 10 4.3336 -0.0411
4 10 11 -0.9124 -0.0283
4 10 12 5.0560 -0.0246
4 10 13 5.6045 -0.0198
4 10 14 -2.1216 -0.0377
4 10 15 6.7052 -0.0746
4 10 16 5.6494 0.0191
4 10 17 10.7346 -0.0061
4 10 18 0.9462 -0.0341
4 10 19 9.9352 0.0039
4 10 20 6.0516 -0.0846
4 10 21 10.0576 -0.1022
4 10 22 7.8705 -0.0355
4 10 23 4.6786 -0.0652
4 10 24 -1.4457 -0.2051
4 12 0 3.2983 -0.0385
4 12 1 4.7160 0.0054
4 12 2 13.9738 0.0455
4 12 3 5.0939 0.0290
4 12 4 -11.3865 -0.0166
4 12 5 5.1104 0.0643
4 12 6 -4.5143 -0.0103
4 12 7 15.1995 -0.0387
4 12 8 2.1748 0.0229
4 12 9 18.1252 -0.0770
4 12 10 -4.2184 -0.0937
4 12 11 6.6033 0.0164
4 12 12 -7.3614 -0.0085
4 12 13 1.2771 0.0178
4 12 14 -7.8604 -0.0778
4 12 15 1.6209 -0.0609
4 12 16 -0.1515 -0.0708
4 12 17 3.7837 0.0923
4 12 18 -10.7690 0.0169
4 12 19 -1.9379 -0.0754
4 12 20 -7.4943 -0.1105
4 14 0 -0.3446 0.0382
4 14 1 -1.2964 0.0723
4 14 2 11.9365 0.0211
4 14 3 8.2799 -0.0636
4 14 4 -4.2420 -0.0754
4 14 5 4.4913 0.0211
4 14 6 -10.9833 -0.0335
4 14 7 14.9107 -0.0304
4 14 8 -4.0436 0.0091
4 14 9 24.3748 -0.0332
4 14 10 4.8084 -0.1574
4 14 11 11.9459 0.0695
4 14 12 5.9297 -0.0013
4 14 13 2.4942 0.0322
4 14 14 -0.7775 0.0331
4 14 15 0.7346 0.0079
4 14 16 5.4564 -0.0377
4 16 0 -3.7960 0.0562
4 16 1 -8.6329 0.0184
4 16 2 -1.0714 0.0178
4 16 3 -9.7287 -0.1054
4 16 4 -4.6217 -0.1139
4 16 5 -9.1696 -0.0395
4 16 6 -6.2887 -0.0057
4 16 7 -6.3240 -0.0938
4 16 8 -3.8417 0.1308
4 16 9 -6.0527 0.0832
4 16 10 3.4224 -0.0706
4 16 11 -1.2846 -0.0275
4 18 0 1.1292 -0.0401
4 18 1 -5.1291 0.1335
4 18 2 1.8105 -0.0518
4 18 3 -16.9888 -0.0685
5 1 0 55.5163 0.1662
5 1 1 27.6601 0.1169
5 1 2 36.2216 -0.4134
5 1 3 22.9262 0.2530
5 1 4 -22.7838 -0.3199
5 1 5 7.1094 -0.0542
5 1 6 -3.2362 0.1817
5 1 7 3.4075 0.0386
5 1 8 -17.1022 -0.3440
5 1 9 0.8343 0.0353
5 1 10 -19.3213 0.2142
5 1 11 -0.2292 -0.0432
5 1 12 -4.5267 -0.2537
5 1 13 -4.1894 -0.0259
5 1 14 -4.4653 -0.1185
5 1 15 0.5092 0.0146
5 1 16 -0.5174 0.3025
5 1 17 5.4673 0.0155
5 1 18 -2.3285 -0.3414
5 1 19 0.0435 -0.0971
5 1 20 6.1937 0.1504
5 1 21 -4.0265 0.0403
5 1 22 9.0682 -0.0305
5 1 23 -5.3388 -0.0221
5 1 24 0.6974 -0.1450
5 1 25 -1.9455 -0.0184
5 1 26 4.7703 0.1218
5 1 27 -1.9226 -0.0656
5 1 28 7.6703 0.0042
5 3 0 27.6134 -0.1176
5 3 1 46.3031 0.0810
5 3 2 30.2938 -0.3988
5 3 3 42.9886 0.1014
5 3 4 -10.9919 0.0318
5 3 5 8.6663 -0.0399
5 3 6 6.3452 0.2058
5 3 7 6.5697 0.2286
5 3 8 -7.0096 -0.4441
5 3 9 5.1894 -0.0391
5 3 10 -10.1822 0.2002
5 3 11 2.8047 -0.0362
5 3 12 9.4748 -0.1440
5 3 13 -6.2776 -0.0923
5 3 14 0.2324 -0.0790
5 3 15 0.5349 -0.0927
5 3 16 -2.6499 0.1816
5 3 17 5.0575 0.1309
5 3 18 0.8537 -0.2676
5 3 19 -5.7847 -0.1034
5 3 20 1.5202 0.1776
5 3 21 -6.2420 0.0782
5 3 22 3.7815 0.0168
5 3 23 -5.7232 0.0258
5 3 24 -2.4627 -0.0557
5 3 25 -2.4346 -0.0590
5 3 26 -0.3483 0.0606
5 3 27 -6.6136 -0.0419
5 3 28 5.2203 0.0322
5 5 0 5.5141 0.0073
5 5 1 16.7672 -0.0353
5 5 2 19.4044 -0.3033
5 5 3 22.8209 -0.2236
5 5 4 -1.9468 0.0111
5 5 5 -6.5899 -0.0113
5 5 6 4.1684 0.0464
5 5 7 0.0972 0.2768
5 5 8 -10.9786 -0.2183
5 5 9 0.0519 -0.1822
5 5 10 -13.3254 0.2048
5 5 11 4.5399 0.0531
5 5 12 12.8142 -0.2263
5 5 13 3.5551 0.0006
5 5 14 -1.0885 -0.0418
5 5 15 -2.0802 -0.0863
5 5 16 -5.3605 0.1575
5 5 17 -7.1124 0.0837
5 5 18 3.5057 -0.1164
5 5 19 -7.2217 -0.2380
5 5 20 -8.9312 0.0828
5 5 21 -0.5382 -0.0019
5 5 22 -1.7064 -0.0821
5 5 23 -0.9632 0.0243
5 5 24 1.8784 0.0105
5 5 25 0.1512 0.0067
5 5 26 -1.7119 0.1203
5 5 27 -7.3674 0.0330
5 7 0 4.3337 0.0993
5 7 1 -8.0321 0.0632
5 7 2 11.2931 -0.0567
5 7 3 1.9657 -0.1232
5 7 4 0.2187 0.0682
5 7 5 -11.0514 -0.0238
5 7 6 -2.1002 -0.0314
5 7 7 3.5316 -0.0332
5 7 8 -14.5882 -0.1184
5 7 9 -5.1931 -0.2107
5 7 10 -28.5351 0.0098
5 7 11 -4.3350 0.1700
5 7 12 -4.1423 -0.2269
5 7 13 5.6762 -0.0544
5 7 14 -5.1273 0.0731
5 7 15 -6.3350 -0.0762
5 7 16 -12.7039 0.0955
5 7 17 -13.1958 0.0827
5 7 18 -5.4486 -0.0806
5 7 19 0.1554 -0.1613
5 7 20 -13.4521 -0.0747
5 7 21 2.3261 0.0132
5 7 22 1.6600 -0.1074
5 7 23 -2.7451 -0.0365
5 7 24 8.3706 0.0609
5 7 25 -0.5210 -0.0671
5 7 26 1.4647 -0.0531
5 9 0 2.6592 0.0297
5 9 1 -1.9146 -0.0145
5 9 2 3.9303 -0.1243
5 9 3 4.6236 -0.0149
5 9 4 3.2821 0.0391
5 9 5 -5.5328 0.0351
5 9 6 -4.3417 -0.0430
5 9 7 11.0357 -0.1062
5 9 8 -2.2746 -0.1279
5 9 9 7.0427 -0.1388
5 9 10 -17.8285 -0.0117
5 9 11 -6.0260 0.0725
5 9 12 -8.9017 -0.0266
5 9 13 -1.6617 -0.0477
5 9 14 -1.8032 0.0535
5 9 15 -5.3113 0.0657
5 9 16 -11.7256 -0.0614
5 9 17 -12.3916 0.0475
5 9 18 -7.1840 -0.0400
5 9 19 -5.0193 -0.0481
5 9 20 -8.2049 -0.0234
5 9 21 -4.3210 0.0014
5 9 22 2.0853 0.0541
5 9 23 -2.1394 -0.0183
5 9 24 7.9563 0.1169
5 9 25 0.9934 0.0867
5 11 0 -8.7222 0.0351
5 11 1 -1.2918 0.0073
5 11 2 -3.7865 -0.0999
5 11 3 1.9207 0.0123
5 11 4 12.6564 -0.0136
5 11 5 -5.9155 0.0008
5 11 6 -6.3979 -0.0338
5 11 7 -6.1640 -0.0201
5 11 8 -0.1352 -0.0280
5 11 9 -1.3555 -0.0113
5 11 10 4.4400 0.0457
5 11 11 -3.0514 0.0116
5 11 12 4.3767 -0.0049
5 11 13 -1.7871 0.0381
5 11 14 6.5394 0.0675
5 11 15 -0.5767 0.0713
5 11 16 3.5296 0.0100
5 11 17 -5.8620 -0.0540
5 11 18 11.2531 0.0230
5 11 19 -2.5793 0.1427
5 11 20 1.2982 0.1136
5 11 21 -1.6254 0.1294
5 11 23 -0.3767 0.0942
5 13 0 -5.9475 0.0163
5 13 1 -5.1131 -0.0471
5 13 2 -10.0378 0.0110
5 13 3 -6.7285 0.0713
5 13 4 12.3355 0.0636
5 13 5 -6.4950 -0.0200
5 13 6 0.9893 0.0308
5 13 7 -26.5436 0.0792
5 13 8 -0.4833 0.0590
5 13 9 -26.6579 0.0885
5 13 10 3.5703 0.1059
5 13 11 -6.8403 -0.0657
5 13 12 2.0350 -0.0274
5 13 13 1.7442 -0.0428
5 13 14 2.8559 0.0616
5 13 15 0.0135 0.0278
5 13 16 1.3859 -0.0007
5 13 17 -0.7424 -0.0634
5 13 18 12.4641 -0.0155
5 15 0 3.3583 -0.0756
5 15 1 6.9140 0.0060
5 15 2 -2.3512 -0.0295
5 15 3 1.9854 0.0826
5 15 4 10.9181 0.1276
5 15 5 2.1879 -0.0604
5 15 6 9.8960 0.0163
5 15 7 -10.6715 0.0701
5 15 8 3.2504 0.0089
5 15 9 -10.2352 -0.0028
5 15 10 -6.0005 0.1801
5 15 11 -1.0458 0.0210
5 15 12 -7.1226 0.0321
5 15 13 -1.5278 0.1103
5 17 0 1.6393 -0.0482
5 17 1 7.8790 -0.0843
5 17 2 3.1883 0.0414
5 17 3 15.6535 0.0093
5 17 4 6.8418 0.1033
5 17 5 16.3135 0.1640
5 17 6 2.1319 -0.0850
6 0 0 -70.5417 -0.9832
6 0 2 -23.7276 0.4045
6 0 4 20.4902 0.0039
6 0 6 0.1945 -0.1840
6 0 8 17.6399 0.1407
6 0 10 15.7487 -0.3108
6 0 12 5.5112 0.4202
6 0 14 5.3209 0.0161
6 0 16 2.5107 -0.1506
6 0 18 4.4092 0.2909
6 0 20 -5.7542 -0.1448
6 0 22 -5.1086 0.0334
6 0 24 -0.5698 0.0980
6 0 26 -8.0791 -0.1100
6 0 28 -5.6964 -0.0287
6 2 0 -49.3895 -0.4873
6 2 1 -38.4960 -0.4617
6 2 2 -17.0086 0.4019
6 2 3 -27.2640 -0.2133
6 2 4 18.4037 -0.2226
6 2 5 -8.0696 0.0278
6 2 6 -3.9091 -0.1658
6 2 7 -7.4908 -0.1320
6 2 8 13.1439 0.2657
6 2 9 -5.6932 -0.0304
6 2 10 10.9037 -0.2726
6 2 11 -1.5569 -0.0848
6 2 12 -3.2082 0.3152
6 2 13 5.9234 0.0981
6 2 14 3.1128 -0.0062
6 2 15 -4.0307 0.0264
6 2 16 3.3084 -0.1043
6 2 17 -6.4895 -0.0399
6 2 18 2.9950 0.2738
6 2 19 3.2792 0.0377
6 2 20 -3.8357 -0.1326
6 2 21 6.7598 -0.0749
6 2 22 -3.7133 -0.0017
6 2 23 7.2972 0.0409
6 2 24 1.4075 0.1048
6 2 25 3.6796 0.0235
6 2 26 -5.9012 -0.0154
6 2 27 5.1858 0.0609
6 2 28 -6.6764 0.0400
6 4 0 -9.3141 0.0029
6 4 1 -35.9028 -0.1871
6 4 2 -2.1961 0.3635
6 4 3 -23.4357 0.1025
6 4 4 16.4547 -0.2846
6 4 5 2.5143 -0.1511
6 4 6 -2.6717 -0.0157
6 4 7 -4.2238 -0.3215
6 4 8 10.3106 0.2204
6 4 9 -4.5722 0.0940
6 4 10 4.5315 -0.2502
6 4 11 -2.8691 -0.0854
6 4 12 -12.5763 0.2121
6 4 13 3.9315 0.1160
6 4 14 4.7385 -0.0069
6 4 15 -0.9526 0.0323
6 4 16 2.0915 -0.0158
6 4 17 1.8008 -0.0807
6 4 18 -1.1425 0.1410
6 4 19 7.0789 0.1332
6 4 20 5.2133 -0.1349
6 4 21 3.3251 -0.0192
6 4 22 -0.8546 -0.0258
6 4 23 2.4698 0.0125
6 4 24 0.4275 0.0283
6 4 25 1.8380 -0.0242
6 4 26 -1.8175 -0.0456
6 4 27 8.0648 0.0107
6 6 0 7.8749 -0.0711
6 6 1 -8.3878 -0.0444
6 6 2 1.7676 0.1676
6 6 3 -1.4708 0.1617
6 6 4 10.9531 -0.0916
6 6 5 14.2672 -0.1467
6 6 6 5.1796 0.0716
6 6 7 3.5406 -0.0850
6 6 8 17.7297 0.0063
6 6 9 6.4238 0.1670
6 6 10 15.8883 -0.0561
6 6 11 -2.2944 -0.1715
6 6 12 -4.9482 0.2591
6 6 13 -2.6267 0.0781
6 6 14 10.3213 -0.0612
6 6 15 8.2090 0.0302
6 6 16 5.1536 -0.0461
6 6 17 7.9137 0.0088
6 6 18 -0.3963 0.0442
6 6 19 -2.0964 0.1596
6 6 20 11.6179 0.0516
6 6 21 -1.4313 -0.0295
6 6 22 -1.3794 0.0983
6 6 23 0.0517 0.0173
6 6 24 -2.5632 0.0278
6 6 25 -1.7441 0.0128
6 6 26 0.7573 -0.0343
6 6 27 5.5930 0.0456
6 8 0 2.8244 -0.0230
6 8 1 0.7548 0.0543
6 8 2 -2.5681 0.0566
6 8 3 1.8452 0.0413
6 8 4 3.5436 -0.0909
6 8 5 5.4365 -0.0345
6 8 6 4.2090 0.0591
6 8 7 -7.7627 0.1466
6 8 8 10.7205 0.0498
6 8 9 4.5338 0.0727
6 8 10 23.1141 0.0824
6 8 11 4.4339 -0.1245
6 8 12 3.5850 0.0994
6 8 13 -2.2319 0.1072
6 8 14 8.3144 -0.0890
6 8 15 9.5068 -0.0343
6 8 16 13.8534 0.0493
6 8 17 7.7626 0.0160
6 8 18 5.7590 0.1096
6 8 19 -6.3775 0.0733
6 8 20 6.2574 0.1552
6 8 21 -1.3378 0.0280
6 8 22 -5.5228 0.0049
6 8 23 -0.2872 0.0839
6 8 24 -5.3222 0.0064
6 8 25 -1.2662 0.0625
6 10 0 8.3938 -0.0020
6 10 1 -4.7905 0.0318
6 10 2 -4.2207 0.0921
6 10 3 -3.8041 -0.0247
6 10 4 -4.7281 0.0063
6 10 5 2.2447 0.0019
6 10 6 6.6804 0.0857
6 10 7 -8.9433 0.1234
6 10 8 -3.5756 0.0448
6 10 9 -4.2538 0.0368
6 10 10 4.9117 -0.0047
6 10 11 5.5219 -0.0250
6 10 12 -1.5820 -0.0124
6 10 13 -1.2948 -0.0178
6 10 14 -3.9487 -0.0321
6 10 15 0.8519 -0.0863
6 10 16 1.3997 0.0619
6 10 17 6.6839 0.0520
6 10 18 -4.5595 0.0125
6 10 19 0.0604 -0.0337
6 10 20 0.5788 -0.0377
6 10 21 -0.1300 0.0514
6 10 22 0.0198 -0.0946
6 10 23 -1.8723 -0.0072
6 10 24 -3.8294 0.0819
6 12 0 11.5266 -0.0390
6 12 1 3.3767 -0.0232
6 12 2 -1.2227 -0.0118
6 12 3 0.0744 -0.1036
6 12 4 -9.1462 -0.0173
6 12 5 7.7300 0.0018
6 12 6 13.2783 -0.0009
6 12 7 18.1186 -0.0293
6 12 8 -2.8638 -0.0297
6 12 9 10.6086 -0.0450
6 12 10 -8.5668 0.0157
6 12 11 2.7727 0.0411
6 12 12 -4.5346 0.0507
6 12 13 -2.3036 0.0048
6 12 14 -7.2619 -0.0679
6 12 15 -0.8457 -0.0278
6 12 16 -10.9780 0.0251
6 12 17 1.1458 -0.0160
6 12 18 -17.2529 -0.0363
6 12 19 -8.5647 -0.3156
6 14 0 1.7910 0.0400
6 14 1 -0.7733 -0.0271
6 14 2 0.7804 0.0126
6 14 3 -2.8754 -0.0612
6 14 4 -12.8594 -0.0704
6 14 5 3.8047 0.0869
6 14 6 0.6325 -0.0220
6 14 7 26.5132 -0.1037
6 14 8 -2.2110 -0.0686
6 14 9 16.1623 -0.0515
6 14 10 -0.6173 -0.0942
6 14 11 -2.8804 0.0333
6 14 12 2.9893 0.0352
6 14 13 -3.2187 -0.0513
6 14 14 1.4388 -0.0366
6 14 15 3.4526 -0.1175
6 16 0 -2.3935 0.1250
6 16 1 -7.6886 0.0257
6 16 2 -5.4228 -0.0211
6 16 3 -11.4773 0.0462
6 16 4 -13.4355 -0.1149
6 16 5 -11.0353 -0.0006
6 16 6 -5.1203 0.0661
6 16 7 -2.6421 -0.1162
6 16 8 -1.0883 -0.0177
6 16 9 -8.1122 0.1058
6 16 10 4.0192 -0.1173
6 18 0 1.2983 -0.0566
6 18 1 -3.0450 0.2627
6 18 2 -0.3019 -0.0033
6 18 3 -14.1084 0.0579
7 1 0 57.6348 1.1466
7 1 1 15.4214 0.3026
7 1 2 6.9697 -0.3370
7 1 3 8.6491 0.0570
7 1 4 -13.3753 0.3685
7 1 5 3.4115 -0.0092
7 1 6 6.9054 0.1084
7 1 7 4.3033 -0.0006
7 1 8 -12.6937 0.0526
7 1 9 4.4749 0.0599
7 1 10 -8.5815 0.2629
7 1 11 1.3202 0.0915
7 1 12 -2.4947 -0.3672
7 1 13 -2.4154 -0.0401
7 1 14 -6.0248 0.0677
7 1 15 4.0939 0.0141
7 1 16 -5.2586 0.0613
7 1 17 4.4324 -0.0755
7 1 18 -5.8234 -0.2024
7 1 19 -1.0537 0.0361
7 1 20 2.8967 0.0736
7 1 21 -4.0573 0.0448
7 1 22 -0.2379 0.0018
7 1 23 -3.8780 0.0031
7 1 24 -0.1376 -0.1753
7 1 25 -1.0379 0.0547
7 1 26 6.7398 0.0583
7 1 27 -0.9278 -0.0892
7 3 0 22.6442 0.2658
7 3 1 31.5585 0.4186
7 3 2 -6.4752 -0.2303
7 3 3 14.6731 -0.1056
7 3 4 -16.9765 0.5153
7 3 5 2.7508 0.0745
7 3 6 5.3406 -0.0046
7 3 7 9.0272 0.1415
7 3 8 -11.3001 -0.0719
7 3 9 7.1537 0.0394
7 3 10 -2.5001 0.2348
7 3 11 -0.1061 0.1358
7 3 12 7.3276 -0.2000
7 3 13 -5.3311 -0.1514
7 3 14 -5.7314 0.0437
7 3 15 5.3395 0.0089
7 3 16 -3.1899 -0.0258
7 3 17 1.6757 0.0748
7 3 18 -4.1255 -0.1377
7 3 19 -4.9054 -0.0076
7 3 20 -1.8087 0.1257
7 3 21 -4.4889 -0.0084
7 3 22 0.4203 0.0889
7 3 23 -4.0798 -0.0249
7 3 24 -0.2478 -0.1433
7 3 25 -2.4457 0.0057
7 3 26 5.3313 -0.0033
7 3 27 -5.0605 -0.0119
7 5 0 -11.4117 -0.0149
7 5 1 21.2777 0.0925
7 5 2 -14.8199 -0.1602
7 5 3 0.6162 -0.1542
7 5 4 -19.5384 0.2149
7 5 5 -11.8062 0.2938
7 5 6 -2.9988 -0.0933
7 5 7 -1.1410 0.1359
7 5 8 -11.8943 0.0661
7 5 9 -0.6284 -0.0902
7 5 10 -2.6513 0.1290
7 5 11 1.5256 0.1183
7 5 12 6.0278 -0.1470
7 5 13 -3.6600 -0.1113
7 5 14 -9.0431 0.0187
7 5 15 -4.2157 0.0344
7 5 16 3.3301 -0.0107
7 5 17 -4.3845 0.0364
7 5 18 -1.3771 0.0255
7 5 19 -1.8310 -0.0628
7 5 20 -9.6739 0.0671
7 5 21 -1.4659 -0.0165
7 5 22 1.9518 0.0247
7 5 23 0.1874 0.0147
7 5 24 0.4848 -0.0944
7 5 25 0.4864 0.0247
7 5 26 0.4184 0.0776
7 5 27 -5.0322 -0.0086
7 7 0 -11.3630 -0.0074
7 7 1 4.3081 -0.0202
7 7 2 -3.0721 -0.0386
7 7 3 -7.4475 0.0080
7 7 4 -10.1883 0.0941
7 7 5 -10.8142 0.1507
7 7 6 -4.8672 -0.0015
7 7 7 -3.4352 -0.0895
7 7 8 -13.8718 0.0860
7 7 9 -7.4792 -0.0226
7 7 10 -14.3315 -0.0966
7 7 11 1.9509 0.1067
7 7 12 0.1551 -0.1025
7 7 13 -2.0909 -0.0977
7 7 14 -11.9043 0.0612
7 7 15 -11.4263 0.0097
7 7 16 -3.1504 -0.0216
7 7 17 0.6509 -0.0546
7 7 18 -0.8116 -0.0618
7 7 19 9.3684 -0.0038
7 7 20 -6.1193 -0.1455
7 7 21 -0.0734 0.0053
7 7 22 3.9215 -0.0401
7 7 23 2.0267 -0.0297
7 7 24 -0.3053 -0.0993
7 7 25 2.4006 -0.0756
7 7 26 -1.6957 -0.0500
7 9 0 -4.9775 -0.0206
7 9 1 6.0498 -0.0861
7 9 2 6.9740 -0.0324
7 9 3 0.9331 0.0143
7 9 4 -1.0618 0.0366
7 9 5 1.7385 -0.0175
7 9 6 -0.0059 -0.0396
7 9 7 9.7319 -0.1186
7 9 8 -0.3159 -0.0031
7 9 9 -2.7252 0.0435
7 9 10 -11.5888 -0.0397
7 9 11 -3.9928 0.0049
7 9 12 3.2986 0.0386
7 9 13 1.7630 -0.0316
7 9 14 -3.6901 0.0249
7 9 15 -4.7313 0.0512
7 9 16 -6.6773 -0.0897
7 9 17 0.5897 -0.0840
7 9 18 1.7703 -0.1029
7 9 19 8.7988 -0.0242
7 9 20 0.2852 -0.0772
7 9 21 2.4169 -0.1453
7 9 22 3.1009 0.0464
7 9 23 3.4719 -0.0752
7 9 24 3.1941 -0.1550
7 9 25 1.3991 -0.0624
7 11 0 -8.9491 0.0620
7 11 1 4.5103 0.0583
7 11 2 9.4890 0.0114
7 11 3 2.4932 0.0888
7 11 4 -0.6622 -0.0274
7 11 5 -3.8456 -0.0405
7 11 6 -11.1931 -0.0419
7 11 7 0.6295 -0.0660
7 11 8 9.7507 -0.0083
7 11 9 -0.7209 0.0027
7 11 10 3.7116 -0.0431
7 11 11 -4.6075 -0.0413
7 11 12 6.1398 -0.0114
7 11 13 3.9258 0.0163
7 11 14 9.5865 0.0297
7 11 15 1.3822 0.0001
7 11 16 10.9035 -0.0235
7 11 17 -0.6938 -0.0583
7 11 18 13.1269 0.0738
7 11 19 8.3337 0.1395
7 11 20 0.7717 0.2073
7 11 21 5.7896 0.0564
7 11 22 -3.2133 0.0815
7 11 23 1.7182 0.1178
7 13 0 -4.6204 0.0122
7 13 1 0.6529 0.0865
7 13 2 6.7814 -0.0034
7 13 3 6.5311 0.0541
7 13 4 1.3388 0.0068
7 13 5 -8.7302 -0.0680
7 13 6 -15.6363 0.0175
7 13 7 -23.0077 0.0927
7 13 8 8.0213 0.0036
7 13 9 -7.1211 0.0465
7 13 10 7.4528 -0.0686
7 13 11 3.6334 -0.0746
7 13 12 0.7352 -0.0685
7 13 13 2.5019 -0.0101
7 13 14 4.6681 0.0249
7 13 15 -3.9409 0.0867
7 13 16 7.9808 -0.0685
7 13 17 0.0664 0.1345
7 15 0 -0.7341 -0.1140
7 15 1 6.9295 0.0414
7 15 2 7.7165 -0.0075
7 15 3 13.7678 -0.0909
7 15 4 12.9913 0.0399
7 15 5 2.7923 -0.0941
7 15 6 -0.7480 -0.0561
7 15 7 -12.3784 0.0581
7 15 8 3.5638 0.0363
7 15 9 3.1983 -0.0704
7 15 10 -1.1548 0.0336
7 15 11 10.5328 0.0913
7 15 12 -2.4375 -0.0917
7 17 0 0.2671 -0.0624
7 17 1 2.8940 -0.2194
7 17 2 6.2522 0.0026
7 17 3 13.4347 -0.1110
7 17 4 6.4877 -0.0310
7 17 5 13.7885 0.1737
8 0 0 -44.6220 -0.9356
8 0 2 2.9644 0.2763
8 0 4 2.9836 -0.3449
8 0 6 -14.3158 0.0363
8 0 8 6.2411 -0.2264
8 0 10 3.9871 -0.1875
8 0 12 5.9525 0.2296
8 0 14 7.2754 -0.0991
8 0 16 6.1392 -0.1087
8 0 18 6.9613 0.1265
8 0 20 -0.1967 -0.0400
8 0 22 4.0326 -0.0451
8 0 24 -0.2265 0.1964
8 2 0 -30.2478 -0.4553
8 2 1 -14.2707 -0.2544
8 2 2 8.0924 0.1662
8 2 3 -3.7763 0.2176
8 2 4 6.1603 -0.4523
8 2 5 -3.5183 0.0809
8 2 6 -10.4019 0.0386
8 2 7 -8.2315 0.0897
8 2 8 10.1353 -0.1263
8 2 9 -7.0623 -0.1194
8 2 10 1.8096 -0.1734
8 2 11 0.3550 -0.1081
8 2 12 0.1082 0.1767
8 2 13 2.8448 0.1050
8 2 14 7.8312 -0.0412
8 2 15 -7.2504 -0.0075
8 2 16 6.5223 -0.0432
8 2 17 -4.4372 -0.0251
8 2 18 7.2247 0.1429
8 2 19 1.5921 -0.0527
8 2 20 1.1964 -0.0789
8 2 21 4.1192 0.0237
8 2 22 3.3238 -0.0548
8 2 23 2.2403 -0.0327
8 2 24 0.1693 0.2771
8 2 25 -1.1660 -0.0000
8 2 26 -3.2556 -0.0576
8 2 27 -0.5222 0.0136
8 4 0 2.4944 0.0491
8 4 1 -19.1153 -0.0384
8 4 2 20.2586 0.0337
8 4 3 0.9656 0.2800
8 4 4 17.4293 -0.3161
8 4 5 0.9914 -0.1634
8 4 6 -2.7443 0.0870
8 4 7 -7.3006 -0.0333
8 4 8 8.6565 -0.0928
8 4 9 -2.9378 -0.0429
8 4 10 -2.2597 -0.1551
8 4 11 2.8905 -0.0837
8 4 12 -4.0028 0.0412
8 4 13 5.0115 0.1139
8 4 14 5.9953 0.0134
8 4 15 -0.8649 -0.0758
8 4 16 -1.0373 -0.0365
8 4 17 2.9867 -0.1216
8 4 18 8.0287 -0.0224
8 4 19 2.9893 0.0072
8 4 20 6.6261 -0.1423
8 4 21 2.3349 0.0847
8 4 22 -0.1887 -0.1059
8 4 23 0.4378 -0.0387
8 4 24 0.3328 0.1973
8 4 25 -0.0756 -0.0057
8 4 26 -1.6478 -0.0871
8 4 27 2.9923 -0.0710
8 6 0 14.5272 0.0638
8 6 1 -10.3851 -0.0222
8 6 2 13.0774 0.0047
8 6 3 10.6937 -0.0399
8 6 4 18.1741 -0.0731
8 6 5 12.6666 -0.2330
8 6 6 2.0468 -0.0292
8 6 7 5.1195 0.0593
8 6 8 7.3398 -0.1460
8 6 9 2.3288 0.0304
8 6 10 3.0143 0.0038
8 6 11 -1.0564 -0.0394
8 6 12 -0.4550 0.0339
8 6 13 8.1353 0.0516
8 6 14 5.1736 0.0366
8 6 15 7.2963 -0.0359
8 6 16 -8.1979 -0.0553
8 6 17 -2.0697 -0.0477
8 6 18 3.4108 -0.0619
8 6 19 -2.3342 -0.0529
8 6 20 6.2630 -0.0054
8 6 21 3.5134 0.0219
8 6 22 -2.3526 -0.0179
8 6 23 -1.8254 -0.0541
8 6 24 4.0364 0.1308
8 6 25 -1.2463 0.0536
8 6 26 3.5545 -0.1011
8 8 0 2.0219 0.0793
8 8 1 -4.8324 0.0410
8 8 2 -5.7594 -0.0186
8 8 3 4.2982 -0.0919
8 8 4 5.3971 -0.0854
8 8 5 3.6195 -0.0478
8 8 6 -3.3491 -0.0938
8 8 7 1.5267 0.0463
8 8 8 4.8896 -0.0536
8 8 9 4.6841 -0.0724
8 8 10 8.6525 0.0636
8 8 11 0.3612 0.0251
8 8 12 -3.0191 -0.0406
8 8 13 5.8190 0.0177
8 8 14 7.4490 0.0134
8 8 15 5.4142 0.0028
8 8 16 -0.1266 0.0456
8 8 17 -10.0295 0.0368
8 8 18 -2.9788 0.1205
8 8 19 -9.4298 -0.0474
8 8 20 -0.0113 0.1258
8 8 21 0.3332 0.1032
8 8 22 -1.6111 0.0282
8 8 23 -4.1000 0.0312
8 8 24 2.1502 0.1639
8 8 25 -0.5289 0.1054
8 10 0 1.0086 -0.0660
8 10 1 -7.6052 -0.0059
8 10 2 -10.8020 -0.0174
8 10 3 -1.4578 -0.0267
8 10 4 3.7898 0.0290
8 10 5 -1.9165 0.0661
8 10 6 -2.6071 0.0204
8 10 7 -7.0966 0.0452
8 10 8 -7.8984 -0.0044
8 10 9 3.2724 -0.0242
8 10 10 2.4900 -0.0098
8 10 11 5.1116 0.0714
8 10 12 -8.4488 -0.0499
8 10 13 -3.0887 -0.0187
8 10 14 -3.2481 0.0126
8 10 15 -0.8632 0.0458
8 10 16 -4.3184 0.0378
8 10 17 -5.7054 0.1140
8 10 18 -7.6155 -0.0062
8 10 19 -10.8982 0.0055
8 10 20 1.0788 -0.0972
8 10 21 -4.3651 0.1294
8 10 22 1.3539 -0.0132
8 10 23 -2.1662 0.0108
8 10 24 -3.1381 0.1919
8 12 0 1.7342 -0.0845
8 12 1 -5.0866 -0.1259
8 12 2 -9.5057 0.0010
8 12 3 -3.4390 -0.0285
8 12 4 12.8737 0.0298
8 12 5 7.6652 0.0724
8 12 6 13.3469 -0.0050
8 12 7 5.6516 -0.0147
8 12 8 -15.3791 0.0573
8 12 9 0.9131 0.0051
8 12 10 -5.9790 0.1088
8 12 11 1.5688 0.1081
8 12 12 -5.2024 0.0315
8 12 13 -2.2385 0.0502
8 12 14 -10.9324 -0.0461
8 12 15 2.5597 0.0434
8 12 16 -13.0416 -0.0134
8 12 17 -2.3608 0.0122
8 12 18 -10.0703 -0.1538
8 12 21 -6.6833 -0.2280
8 12 22 3.2070 -0.0858
8 14 0 1.3000 0.0470
8 14 1 -9.7283 -0.0968
8 14 2 -9.4160 0.0496
8 14 3 -15.5709 0.1236
8 14 4 3.2719 0.0312
8 14 5 6.0053 0.0903
8 14 6 10.8059 0.0502
8 14 7 15.5396 -0.0745
8 14 8 -12.0478 0.0353
8 14 10 -4.0828 0.0639
8 14 11 -9.2844 0.0024
8 14 12 1.0237 0.0949
8 14 13 0.2792 -0.1058
8 14 14 -0.6370 0.0366
8 16 0 2.3368 0.0891
8 16 1 -6.2064 0.0753
8 16 2 -10.6234 -0.0033
8 16 3 -16.2650 0.1173
8 16 4 -7.7579 0.0015
8 16 5 -7.6051 -0.0529
8 16 6 3.1337 0.0063
8 16 7 -1.5862 0.0782
8 16 8 -1.7948 -0.0586
8 18 0 -1.1290 -0.0278
8 18 1 0.2919 0.2934
8 18 2 -2.1482 0.1661
9 1 0 22.3833 0.0451
9 1 1 1.7631 -0.0826
9 1 2 -8.5946 -0.2433
9 1 3 -2.0696 -0.1147
9 1 4 8.0435 0.0531
9 1 5 0.4414 -0.1103
9 1 6 18.1391 -0.1560
9 1 7 3.4219 -0.1753
9 1 8 -3.3917 0.1834
9 1 9 3.9409 0.1146
9 1 10 -1.2054 0.1490
9 1 11 -0.6279 -0.0346
9 1 12 -7.3004 -0.1150
9 1 13 -0.8179 -0.0463
9 1 14 -6.7779 0.0182
9 1 15 5.7557 -0.0107
9 1 16 -5.7810 0.1656
9 1 17 3.9399 -0.0172
9 1 18 -6.7079 -0.1876
9 1 19 -0.9328 0.0527
9 1 20 -1.8352 0.0794
9 1 21 -2.6382 -0.0202
9 1 22 -5.5826 0.0064
9 1 23 0.5340 0.0762
9 1 24 -0.5776 -0.2763
9 1 25 2.8676 -0.0417
9 3 0 6.9961 -0.2097
9 3 1 6.7268 -0.2029
9 3 2 -15.8205 -0.0245
9 3 3 -2.5271 -0.3693
9 3 4 -3.5925 0.1968
9 3 5 6.5671 -0.0798
9 3 6 7.8080 -0.0687
9 3 7 9.4799 -0.1051
9 3 8 -8.8601 0.0742
9 3 9 3.2684 0.1483
9 3 10 2.1591 0.1343
9 3 11 -4.1115 0.0606
9 3 12 -1.4169 -0.0286
9 3 13 -3.0787 -0.0690
9 3 14 -7.8213 -0.0162
9 3 15 4.7494 0.0436
9 3 16 -5.9753 0.1423
9 3 17 1.0093 0.1129
9 3 18 -10.2958 -0.1074
9 3 19 -1.4933 -0.0277
9 3 20 -4.8448 0.1379
9 3 21 -2.9621 -0.0714
9 3 22 -4.2641 0.0292
9 3 23 1.2656 0.0695
9 3 24 -1.4328 -0.2871
9 3 25 3.1724 -0.0045
9 3 26 -0.9743 0.1645
9 3 27 0.4423 0.1392
9 5 0 -10.7218 -0.1115
9 5 1 9.5896 -0.1272
9 5 2 -23.3742 0.0330
9 5 3 -8.1503 -0.1176
9 5 4 -19.7455 0.0291
9 5 5 -1.4246 0.1057
9 5 6 4.0859 0.0124
9 5 7 2.5609 -0.0612
9 5 8 -2.4692 0.0777
9 5 9 -0.1700 0.0051
9 5 10 2.5371 0.1086
9 5 11 -4.1991 -0.0027
9 5 12 1.6948 0.0054
9 5 13 -8.1638 -0.0197
9 5 14 1.3704 -0.0834
9 5 15 -3.0527 0.0726
9 5 16 4.6037 0.1803
9 5 17 -1.2288 0.1693
9 5 18 -10.6789 0.0719
9 5 19 -1.8920 -0.0110
9 5 20 -5.1194 0.1549
9 5 21 -4.0511 -0.0708
9 5 22 -1.1590 0.0620
9 5 23 1.0000 0.0898
9 5 24 -5.4377 -0.1665
9 5 25 0.5040 -0.0399
9 5 26 -3.1337 0.1803
9 7 0 -1.4186 -0.0998
9 7 1 5.5655 0.0814
9 7 2 -5.6261 0.0556
9 7 3 -9.6077 0.1764
9 7 4 -14.2883 0.0683
9 7 5 -10.8405 0.0855
9 7 6 6.0451 0.1553
9 7 7 -6.3803 -0.0367
9 7 8 -2.1629 0.0504
9 7 9 -0.2482 -0.0131
9 7 10 -2.6303 -0.0019
9 7 11 -3.6388 -0.0272
9 7 12 2.5696 -0.0037
9 7 13 -12.7034 0.0442
9 7 14 1.2142 -0.0826
9 7 15 -1.0520 -0.0092
9 7 16 9.4160 0.0832
9 7 17 9.5365 0.0989
9 7 18 0.0617 -0.0453
9 7 19 0.8211 0.0623
9 7 20 0.1285 -0.0332
9 7 21 -4.0352 -0.0555
9 7 22 -1.2660 -0.0196
9 7 23 2.8262 0.0584
9 7 24 -8.2500 -0.0926
9 7 25 -0.9910 -0.1054
9 9 0 6.8821 -0.0169
9 9 1 5.2899 -0.0154
9 9 2 8.0827 0.0268
9 9 3 -1.4241 0.0425
9 9 4 -2.8566 0.0283
9 9 5 -1.6485 -0.0055
9 9 6 10.8596 0.0724
9 9 7 0.0685 0.0584
9 9 8 0.5235 0.0224
9 9 9 -4.0750 0.0354
9 9 10 -2.8389 0.0457
9 9 11 -5.8003 -0.0607
9 9 12 6.8254 0.0337
9 9 13 -4.4500 0.0492
9 9 14 -2.7091 -0.0565
9 9 15 2.9430 -0.0618
9 9 16 4.7807 -0.0296
9 9 17 11.8925 -0.0116
9 9 18 5.1218 -0.0915
9 9 19 7.1941 0.0057
9 9 20 -1.9452 -0.0353
9 9 21 0.8599 -0.1433
9 9 22 -1.6340 -0.0911
9 9 23 1.9309 -0.0128
9 9 24 0.3686 -0.1567
9 11 0 1.8805 0.1334
9 11 1 5.1015 0.0678
9 11 2 5.2775 -0.0109
9 11 3 -2.1654 -0.0143
9 11 4 -13.1511 -0.0449
9 11 5 -1.8120 -0.0635
9 11 6 2.5695 -0.0024
9 11 7 4.3820 -0.0113
9 11 8 12.2070 -0.0381
9 11 9 -3.8035 -0.0358
9 11 10 1.3347 -0.0131
9 11 11 -5.2511 -0.1096
9 11 12 8.8725 0.0128
9 11 13 2.5301 -0.0415
9 11 14 7.9060 0.0246
9 11 15 0.2907 -0.1439
9 11 16 8.7662 0.0290
9 11 17 7.1158 -0.1227
9 11 18 3.7034 0.1115
9 11 19 12.5264 0.0624
9 11 20 -5.6404 0.1817
9 11 21 2.7578 0.0062
9 11 22 -2.1823 0.0003
9 13 0 0.7677 0.0251
9 13 1 10.6158 0.0943
9 13 2 3.9935 -0.0774
9 13 3 7.3283 -0.1286
9 13 4 -21.5518 -0.0228
9 13 5 -8.2909 -0.0502
9 13 6 -8.4916 -0.0188
9 13 7 -5.6018 0.0644
9 13 8 19.1024 -0.0862
9 13 9 3.4144 -0.0082
9 13 10 3.8928 -0.0773
9 13 11 1.8363 -0.1136
9 13 12 2.9498 -0.0226
9 13 13 -2.4602 -0.0371
9 13 14 7.2305 0.0517
9 13 15 -8.1235 0.0146
9 15 0 -3.8066 -0.0332
9 15 1 13.4687 0.0533
9 15 2 9.2481 -0.0259
9 15 3 17.6650 -0.1279
9 15 4 -4.8322 -0.0256
9 15 5 -2.3859 0.0156
9 15 6 -4.5713 -0.0401
9 15 7 -5.5539 -0.0546
9 15 8 10.2382 0.0071
9 15 9 10.5302 -0.0189
9 15 10 -0.9397 -0.0861
9 15 11 7.7918 0.1715
9 17 0 -0.8647 -0.0470
9 17 1 0.9991 -0.1084
9 17 2 7.0689 -0.0788
9 17 3 10.0212 0.0461
9 17 4 -1.6123 0.0693
9 17 5 5.3806 0.1577
10 0 0 -6.8929 0.5597
10 0 2 7.8498 0.2717
10 0 4 -19.4292 0.4151
10 0 6 -22.1457 0.2319
10 0 8 -0.5939 -0.0617
10 0 10 3.0460 -0.1715
10 0 12 9.4292 0.0957
10 0 14 0.2220 -0.0129
10 0 16 2.0726 -0.2450
10 0 18 3.8359 0.2529
10 0 20 1.2795 -0.1891
10 0 22 5.8374 -0.0100
10 0 24 2.0780 0.1612
10 2 0 -6.7470 0.5466
10 2 1 3.1162 0.3009
10 2 2 7.3254 0.1606
10 2 3 4.9614 0.1187
10 2 4 -13.2585 0.1830
10 2 5 -3.0453 0.1664
10 2 6 -12.6404 0.1077
10 2 7 -4.1627 0.1440
10 2 8 5.9268 -0.0107
10 2 9 -2.0275 -0.1235
10 2 10 0.7469 -0.1684
10 2 11 4.3227 0.0040
10 2 12 8.3737 0.0984
10 2 13 1.1861 0.0113
10 2 14 6.1840 0.0039
10 2 15 -7.8267 0.0202
10 2 16 5.5124 -0.1955
10 2 17 -3.1117 -0.0380
10 2 18 6.3399 0.2778
10 2 19 3.7786 0.0632
10 2 20 3.4959 -0.1506
10 2 21 3.7527 0.0037
10 2 22 6.2572 0.0971
10 2 23 -3.3880 -0.0558
10 2 24 2.6299 0.1949
10 2 25 -4.4724 0.0372
10 2 26 5.1160 -0.3396
10 4 0 4.6334 0.2800
10 4 1 -1.2562 0.3903
10 4 2 22.2989 0.0468
10 4 3 1.5869 0.2410
10 4 4 8.0875 0.0361
10 4 5 -10.7804 0.0877
10 4 6 -7.0113 -0.0024
10 4 7 -5.7224 0.0301
10 4 8 4.3282 0.0734
10 4 9 1.1636 -0.0804
10 4 10 -3.4323 -0.1609
10 4 11 5.9078 -0.0144
10 4 12 0.6971 0.0436
10 4 13 5.1667 0.0172
10 4 14 2.2607 0.0177
10 4 15 -0.2020 -0.0352
10 4 16 5.1926 -0.2349
10 4 17 0.5602 -0.1577
10 4 18 11.5989 0.1103
10 4 19 2.3008 0.1159
10 4 20 4.7639 -0.2009
10 4 21 4.0576 0.0251
10 4 22 5.7251 0.0364
10 4 23 -2.5443 -0.0823
10 4 24 4.9065 0.1671
10 4 25 -1.7083 -0.0368
10 4 26 3.7075 -0.2819
10 6 0 5.9063 0.0208
10 6 1 -5.2010 -0.0407
10 6 2 26.0922 -0.0248
10 6 3 8.0447 -0.0544
10 6 4 20.1899 0.0255
10 6 5 5.2091 0.0029
10 6 6 -11.4403 -0.0767
10 6 7 2.0275 0.0395
10 6 8 -1.3762 0.0351
10 6 9 -0.2390 0.0912
10 6 10 -1.9719 -0.1163
10 6 11 8.9786 -0.0017
10 6 12 -6.6647 0.0828
10 6 13 10.9440 -0.0513
10 6 14 -9.4650 0.0750
10 6 15 -1.7484 -0.0056
10 6 16 -5.4708 -0.2028
10 6 17 -3.3168 -0.1819
10 6 18 5.3185 0.0194
10 6 19 3.6383 0.0584
10 6 20 -0.6281 -0.1368
10 6 21 4.9583 0.0103
10 6 22 5.7647 -0.0141
10 6 23 -0.8855 -0.0850
10 6 24 10.3816 0.0425
10 6 25 1.5558 0.0904
10 6 26 4.6196 -0.1758
10 8 0 -8.2472 0.0638
10 8 1 -3.9827 -0.0869
10 8 2 5.0463 -0.0453
10 8 3 7.0242 -0.1132
10 8 4 7.5445 -0.0644
10 8 5 11.4013 -0.0469
10 8 6 -13.4280 -0.1173
10 8 7 4.2369 -0.0790
10 8 8 2.0952 -0.0036
10 8 9 1.2155 0.0346
10 8 10 0.3099 -0.0580
10 8 11 12.6772 -0.0266
10 8 12 -5.5537 0.0686
10 8 13 10.1165 -0.0926
10 8 14 -2.7233 0.0496
10 8 15 -7.6083 0.0330
10 8 16 -9.3944 -0.0483
10 8 17 -8.7099 -0.1269
10 8 18 -3.3688 0.1235
10 8 19 1.4948 0.0238
10 8 20 0.1090 0.0520
10 8 21 1.7579 0.0808
10 8 22 4.3670 0.0762
10 8 23 -0.7456 -0.0399
10 8 24 6.0599 0.0077
10 8 25 3.1111 0.0593
10 10 0 -4.0541 -0.0781
10 10 1 -1.2764 0.0166
10 10 2 -0.6613 0.0301
10 10 3 5.0126 0.0087
10 10 4 3.6787 0.0346
10 10 5 1.9039 -0.0070
10 10 6 -12.4581 -0.0112
10 10 7 -2.7278 -0.0590
10 10 8 -1.7347 -0.0154
10 10 9 5.5576 0.0140
10 10 10 -0.4609 -0.0640
10 10 11 8.5535 0.0375
10 10 12 -6.8890 0.0326
10 10 13 0.9085 -0.0062
10 10 14 -1.0998 0.0290
10 10 15 -4.1766 0.1182
10 10 16 -5.6041 0.0123
10 10 17 -8.9555 0.0241
10 10 18 1.8024 0.0101
10 10 19 -6.3768 -0.0160
10 10 20 7.7059 -0.0133
10 10 21 1.6210 0.0586
10 10 22 0.6310 0.1286
10 10 23 3.0630 -0.0137
10 12 0 1.4551 -0.0691
10 12 1 -3.5834 -0.0282
10 12 2 5.4545 0.0761
10 12 3 3.8073 0.0783
10 12 4 21.8259 -0.0153
10 12 5 2.7997 0.0120
10 12 6 -3.6526 0.0019
10 12 7 -2.8779 -0.0191
10 12 8 -13.9289 0.0632
10 12 9 2.5351 0.0392
10 12 10 -0.8874 0.0105
10 12 11 3.2377 0.1471
10 12 12 -7.1340 -0.0175
10 12 13 1.1560 0.0768
10 12 14 -7.6398 -0.0760
10 12 15 4.0307 0.1290
10 12 16 -2.3791 -0.0361
10 12 19 -9.7364 -0.1279
10 12 20 5.3972 -0.1188
10 14 0 3.7514 0.0004
10 14 1 -15.0625 -0.0464
10 14 2 1.3728 0.0592
10 14 3 -9.8444 0.1391
10 14 4 21.3582 0.0002
10 14 5 7.4992 -0.0341
10 14 6 -0.0117 0.0399
10 14 7 4.9559 -0.0323
10 14 8 -16.1197 -0.0046
10 14 9 -5.4118 -0.0477
10 14 10 1.9164 -0.0054
10 14 11 -1.9185 -0.0017
10 14 12 -1.1508 0.0399
10 16 0 4.4374 0.0221
10 16 1 -7.5723 -0.0940
10 16 2 -6.1668 -0.0030
10 16 3 -10.7023 -0.1066
10 16 4 6.5104 -0.1053
10 16 5 2.6241 -0.1094
10 16 6 1.8258 -0.1395
10 18 0 -2.6933 0.1360
10 18 1 2.4496 -0.0455
11 1 0 -1.7496 -0.4622
11 1 1 -4.3180 -0.1013
11 1 2 -2.5358 -0.2141
11 1 3 -5.1525 0.2013
11 1 4 23.1136 -0.5429
11 1 5 -2.1376 -0.1106
11 1 6 15.0271 -0.1537
11 1 7 -0.4277 -0.0502
11 1 8 -3.1326 -0.0763
11 1 9 -0.3244 0.0023
11 1 10 -5.7035 0.2590
11 1 11 -4.1748 -0.0789
11 1 12 -7.2779 -0.2325
11 1 13 0.5019 0.0593
11 1 14 5.1618 0.0358
11 1 15 6.1345 -0.0317
11 1 16 0.4935 0.1541
11 1 17 -0.2846 -0.0242
11 1 18 -0.3629 -0.3447
11 1 19 -5.6153 -0.0647
11 1 20 -1.5346 0.2549
11 1 21 -2.4075 0.0198
11 1 22 -6.8384 -0.1393
11 1 23 2.2018 -0.0243
11 1 24 -4.1963 0.0057
11 1 25 1.7786 -0.1100
11 3 0 0.1454 -0.4217
11 3 1 -6.5561 -0.2964
11 3 2 -8.2458 -0.1850
11 3 3 0.1266 0.0142
11 3 4 9.1787 -0.1202
11 3 5 8.2352 -0.1404
11 3 6 5.7791 -0.0038
11 3 7 1.2743 0.0070
11 3 8 -6.2555 -0.1868
11 3 9 -1.5094 0.0767
11 3 10 -0.1110 0.2083
11 3 11 -6.4833 0.0576
11 3 12 -7.3814 -0.1651
11 3 13 -2.2900 -0.0273
11 3 14 -4.1774 0.0819
11 3 15 4.9188 -0.0491
11 3 16 -4.5729 0.1331
11 3 17 -0.6980 0.0454
11 3 18 -4.7693 -0.3169
11 3 19 -7.2148 -0.1441
11 3 20 -4.0990 0.2059
11 3 21 -4.4579 0.0711
11 3 22 -6.3912 -0.1617
11 3 23 4.4463 0.0297
11 3 24 -4.1521 0.0301
11 3 25 1.4084 0.1059
11 3 26 -5.2655 0.4532
11 5 0 -11.3432 -0.0299
11 5 1 0.3512 -0.1642
11 5 2 -35.1885 -0.1262
11 5 3 1.7348 -0.1410
11 5 4 -12.4249 -0.0572
11 5 5 6.6837 -0.0899
11 5 6 12.5878 -0.0425
11 5 7 0.2918 0.0403
11 5 8 -0.2781 -0.1655
11 5 9 -1.4430 -0.0829
11 5 10 5.4951 0.1976
11 5 11 -8.2470 0.0434
11 5 12 7.2623 -0.1655
11 5 13 -5.8860 -0.0439
11 5 14 5.0022 0.0403
11 5 15 2.1347 -0.0223
11 5 16 -3.2472 0.1631
11 5 17 1.6186 0.1421
11 5 18 -4.8253 -0.1260
11 5 19 -3.4287 -0.1525
11 5 20 -0.9726 0.2315
11 5 21 -5.1178 0.0854
11 5 22 -8.5703 -0.0672
11 5 23 1.4679 0.0491
11 5 24 -6.9273 -0.0066
11 5 25 -1.6192 0.0436
11 5 26 -2.8344 0.2670
11 7 0 -3.5810 0.0599
11 7 1 3.8543 0.1364
11 7 2 -30.2613 0.0046
11 7 3 -9.2249 0.0415
11 7 4 -12.2601 0.0093
11 7 5 -12.4534 0.0173
11 7 6 17.2380 0.0241
11 7 7 -2.1245 0.0147
11 7 8 -1.0612 -0.0354
11 7 9 -2.8062 -0.1303
11 7 10 3.8350 0.0998
11 7 11 -18.1348 0.1295
11 7 12 10.7743 -0.1592
11 7 13 -6.1091 0.0501
11 7 14 9.6768 0.0393
11 7 15 9.6143 -0.0222
11 7 16 6.3959 0.0942
11 7 17 2.6361 0.1366
11 7 18 2.8182 -0.1041
11 7 19 -4.2231 -0.1257
11 7 20 2.1098 0.0844
11 7 21 -2.7925 0.0333
11 7 22 -9.0727 0.0164
11 7 23 -0.9186 0.0355
11 7 24 -9.1879 0.1110
11 7 25 -2.5371 -0.0864
11 9 0 2.8886 0.0100
11 9 1 0.0126 -0.0072
11 9 2 -7.9210 -0.0394
11 9 3 -8.7694 0.0329
11 9 4 1.4852 -0.0076
11 9 5 -9.3164 0.0796
11 9 6 14.0793 0.0326
11 9 7 1.2609 0.1053
11 9 8 -4.1391 0.0444
11 9 9 -5.6633 0.0037
11 9 10 1.9261 0.0429
11 9 11 -16.7401 0.0862
11 9 12 3.4343 -0.1130
11 9 13 -2.8692 0.0402
11 9 14 1.7438 0.0184
11 9 15 7.4849 -0.0228
11 9 16 6.4625 -0.0044
11 9 17 3.0987 0.0875
11 9 18 -2.9172 -0.0860
11 9 19 -1.0929 -0.0563
11 9 20 -5.3481 -0.0573
11 9 21 -2.9235 -0.0530
11 9 22 -2.1492 -0.0868
11 9 23 -3.3073 0.0472
11 11 0 -6.2951 0.0565
11 11 1 -5.2278 -0.0327
11 11 2 -8.4639 -0.0741
11 11 3 -8.0821 0.0038
11 11 4 -6.8983 0.0060
11 11 5 0.9909 0.0212
11 11 6 9.6532 -0.0200
11 11 7 4.6240 0.0198
11 11 8 1.7830 0.0029
11 11 9 -5.4023 -0.0145
11 11 10 0.9942 0.0300
11 11 11 -5.9233 -0.0751
11 11 12 6.2717 -0.0477
11 11 13 -0.4681 -0.0315
11 11 14 3.1616 0.0022
11 11 15 0.2336 -0.1151
11 11 16 -1.9139 -0.0438
11 11 17 6.8974 -0.0644
11 11 18 -11.2028 -0.0198
11 11 19 4.1070 0.0831
11 11 20 -7.1347 -0.0273
11 13 0 -7.9576 -0.0171
11 13 1 4.9718 -0.0327
11 13 2 -13.4242 -0.0440
11 13 3 -0.8115 -0.0784
11 13 4 -23.4101 0.0691
11 13 5 -3.6119 0.0457
11 13 6 6.7884 -0.0211
11 13 7 -1.7166 0.0487
11 13 9 -1.3703 0.0110
11 13 10 -3.2833 0.0484
11 13 11 -1.8140 -0.1127
11 13 12 5.2859 0.0110
11 13 13 -4.8149 0.0504
11 13 14 3.2972 0.1018
11 15 0 -7.4244 -0.0042
11 15 1 11.6483 0.1000
11 15 2 -3.7189 0.0381
11 15 3 6.7008 0.0587
11 15 4 -14.9930 0.0584
11 15 5 -9.4481 0.0624
11 15 6 5.1694 0.0307
11 15 7 -6.8691 -0.0303
11 15 8 5.6185 0.1309
11 15 9 2.9336 0.1974
11 17 0 -0.7609 -0.1524
11 17 1 -1.3570 0.2313
11 17 2 2.1227 0.0286
11 17 3 1.3734 0.2715
11 17 4 -6.9856 0.2853
11 17 5 -4.6367 0.0734
12 0 0 8.3861 -0.4026
12 0 2 0.9890 0.1113
12 0 4 -22.3973 0.4444
12 0 6 -9.0181 0.1180
12 0 8 5.9500 0.1733
12 0 10 8.1331 -0.2935
12 0 12 -2.4800 0.3854
12 0 14 -15.6173 -0.1332
12 0 16 -4.0741 -0.0654
12 0 18 -4.0081 0.2544
12 0 20 2.9316 -0.3384
12 0 22 10.0457 0.1675
12 0 24 5.1498 0.0112
12 2 0 -0.3517 -0.1035
12 2 1 7.4050 -0.2042
12 2 2 -3.3656 0.1909
12 2 3 3.9824 -0.3966
12 2 4 -18.2196 0.1518
12 2 5 2.0090 0.0726
12 2 6 -3.2776 0.0298
12 2 7 2.8475 -0.0037
12 2 8 6.6454 0.1754
12 2 9 3.0564 0.0242
12 2 10 5.9964 -0.2873
12 2 11 7.8904 -0.0918
12 2 12 5.3564 0.3151
12 2 13 -1.6440 0.0123
12 2 14 -6.1629 -0.1458
12 2 15 -6.2384 0.0693
12 2 16 -3.1204 0.0465
12 2 17 6.9969 0.0403
12 2 18 -2.6251 0.3235
12 2 19 11.7738 0.0850
12 2 20 2.9641 -0.2594
12 2 21 2.7086 -0.0911
12 2 22 6.3167 0.1633
12 2 23 -2.5952 0.0466
12 2 24 4.5529 -0.3081
12 2 25 0.7870 -0.0571
12 4 0 7.8076 0.1026
12 4 1 5.0927 0.0810
12 4 2 20.1879 0.2596
12 4 3 -7.8435 0.0691
12 4 4 -2.9531 -0.0859
12 4 5 -7.3470 0.0636
12 4 6 -6.1996 0.1098
12 4 7 1.5900 -0.1111
12 4 8 2.8806 0.2402
12 4 9 0.0363 0.0535
12 4 10 -4.1358 -0.2245
12 4 11 6.1206 -0.0909
12 4 12 0.2278 0.2389
12 4 13 2.4149 0.1602
12 4 14 -0.3632 -0.1582
12 4 15 -3.5931 0.0656
12 4 16 0.2659 0.0427
12 4 17 1.1485 -0.0412
12 4 18 -1.4021 0.2344
12 4 19 8.0141 0.1156
12 4 20 2.2107 -0.2291
12 4 21 4.5918 -0.1526
12 4 22 5.2593 0.1528
12 4 23 -3.2410 0.0184
12 4 24 2.7037 -0.1889
12 4 25 3.0683 -0.2047
12 6 0 20.8284 -0.1494
12 6 1 -1.5382 -0.0013
12 6 2 46.2419 0.1404
12 6 3 2.0889 0.1610
12 6 4 6.4948 0.0301
12 6 5 4.8652 -0.0066
12 6 6 -17.2318 0.1490
12 6 7 1.1001 0.0093
12 6 8 1.0144 0.0605
12 6 9 4.3276 0.1596
12 6 10 -10.4584 -0.1600
12 6 11 13.6366 -0.1636
12 6 12 -14.2724 0.1934
12 6 13 -0.5751 0.1186
12 6 14 -6.4904 -0.1286
12 6 15 -8.5624 0.0365
12 6 16 -1.6556 0.0120
12 6 17 -3.0707 -0.0787
12 6 18 -5.9188 0.0879
12 6 19 2.5869 0.1148
12 6 20 -0.9119 -0.1967
12 6 21 4.3669 -0.1676
12 6 22 10.1722 0.0162
12 6 23 0.7651 0.0227
12 6 24 4.9268 -0.1183
12 8 0 8.9811 -0.0781
12 8 1 -1.1987 -0.0268
12 8 2 25.6559 0.0653
12 8 3 12.7203 -0.0043
12 8 4 -3.3064 0.0025
12 8 5 13.0942 -0.0943
12 8 6 -16.0403 -0.0062
12 8 7 -2.4910 -0.0311
12 8 8 3.9371 -0.0557
12 8 9 10.8117 0.0192
12 8 10 -5.3507 -0.0182
12 8 11 21.8616 -0.1891
12 8 12 -5.8424 0.0942
12 8 13 -3.2372 0.0146
12 8 14 -4.9759 -0.1522
12 8 15 -8.2396 -0.0119
12 8 16 -5.2850 0.0090
12 8 17 2.1987 -0.0504
12 8 18 -1.2765 0.0659
12 8 19 2.3905 0.1260
12 8 20 1.8246 -0.0476
12 8 21 2.7732 -0.0232
12 8 22 6.8662 -0.0904
12 10 0 8.2117 -0.0197
12 10 1 7.1137 0.0430
12 10 2 6.5938 0.0921
12 10 3 9.1653 -0.0427
12 10 4 -6.9683 0.0169
12 10 5 1.5494 -0.0481
12 10 6 -8.8080 0.0133
12 10 7 -6.3082 -0.0669
12 10 8 4.1396 -0.0583
12 10 9 6.9915 -0.0467
12 10 10 -2.5228 0.0120
12 10 11 11.7138 -0.0079
12 10 12 -1.7815 0.0951
12 10 13 -0.5314 0.0041
12 10 14 -2.0018 -0.0186
12 10 15 -1.2160 0.0330
12 10 16 3.2548 0.0523
12 10 17 -1.2119 0.0167
12 10 18 13.2277 0.0311
12 10 19 1.4493 0.0048
12 12 0 13.5191 0.0271
12 12 1 7.5136 0.0437
12 12 2 13.8393 0.0092
12 12 3 4.5139 -0.0236
12 12 4 10.5408 -0.0715
12 12 5 -2.0558 -0.0082
12 12 6 -5.8681 0.0451
12 12 7 -1.1054 -0.0161
12 12 8 0.3691 -0.0352
12 12 9 3.4906 0.0246
12 12 10 0.3960 -0.0139
12 12 11 2.3689 0.0932
12 12 12 -7.6007 0.0532
12 12 13 1.8511 -0.1033
12 12 14 -1.6519 -0.0222
12 12 15 1.2167 0.0528
12 14 0 11.4935 0.0358
12 14 1 -6.2334 0.0236
12 14 2 14.7447 -0.0635
12 14 3 -1.7018 0.0011
12 14 4 16.7007 -0.0298
12 14 5 8.8037 -0.0176
12 14 6 -8.6797 0.0093
12 14 7 7.8544 -0.0525
12 14 8 -0.9646 -0.1675
12 14 9 1.1532 -0.1147
12 14 10 8.0075 -0.0405
12 14 11 2.7109 -0.0394
12 16 0 5.3046 0.1023
12 16 1 -2.7693 -0.2142
12 16 2 3.0892 -0.1194
12 16 3 -0.4714 -0.2164
12 16 4 7.3334 -0.1186
12 18 0 -2.7742 0.2871
13 1 0 -4.6834 1.3561
13 1 1 -3.0648 0.4037
13 1 2 2.6664 -0.0639
13 1 3 -4.6846 0.4096
13 1 4 14.9406 0.0304
13 1 5 -4.4994 0.0118
13 1 6 -1.9175 -0.0950
13 1 7 -2.6582 -0.0225
13 1 8 -8.9155 -0.0836
13 1 9 -4.2517 -0.0909
13 1 10 -6.3185 0.3141
13 1 11 -5.4138 0.1092
13 1 12 8.9809 -0.4192
13 1 13 3.5655 0.0353
13 1 14 16.5804 0.2104
13 1 15 1.6233 0.0037
13 1 16 5.9010 -0.1541
13 1 17 -8.9771 -0.0343
13 1 18 5.1349 -0.1379
13 1 19 -6.8478 0.0084
13 1 20 -7.3180 0.2700
13 1 21 0.0625 0.0280
13 1 22 -11.1577 -0.1391
13 1 23 -0.4751 -0.0239
13 1 24 -4.0585 0.2752
13 1 25 -1.2194 0.0150
13 3 0 2.6148 0.2752
13 3 1 -5.5816 0.4231
13 3 2 1.1941 -0.2093
13 3 3 3.0048 0.1787
13 3 4 10.9250 0.3330
13 3 5 -1.4723 -0.0072
13 3 6 -1.4624 -0.1453
13 3 7 -2.2574 0.0465
13 3 8 -4.0188 -0.1673
13 3 9 -0.6766 -0.0500
13 3 10 -2.3528 0.2420
13 3 11 -7.1460 0.1419
13 3 12 -2.4959 -0.2989
13 3 13 2.0406 -0.1841
13 3 14 7.6722 0.1925
13 3 15 2.4431 -0.0524
13 3 16 8.7805 -0.2350
13 3 17 -11.0463 -0.0388
13 3 18 5.8990 -0.1584
13 3 19 -12.4000 -0.0140
13 3 20 -1.7636 0.2164
13 3 21 -1.1855 0.0999
13 3 22 -1.4169 -0.0919
13 3 23 1.8671 -0.0826
13 3 24 -2.0178 0.4614
13 3 25 -4.0569 0.1854
13 5 0 -22.5864 0.0282
13 5 1 -1.6595 -0.0574
13 5 2 -34.1017 -0.2418
13 5 3 5.8499 -0.2551
13 5 4 4.3243 0.1089
13 5 5 -1.6566 0.0849
13 5 6 8.6620 -0.2822
13 5 7 -0.2164 0.0037
13 5 8 -0.3070 -0.0456
13 5 9 0.8953 -0.1219
13 5 10 12.6723 0.1715
13 5 11 -6.5685 0.1245
13 5 12 8.3447 -0.2115
13 5 13 2.4613 -0.2818
13 5 14 3.5889 0.1443
13 5 15 7.0011 -0.0046
13 5 16 7.2253 -0.1939
13 5 17 2.1930 0.0486
13 5 18 9.7002 -0.0542
13 5 19 -6.1049 0.0052
13 5 20 -0.5280 0.1814
13 5 21 -4.5509 0.1718
13 5 22 -3.6359 -0.0962
13 5 23 1.0247 -0.0955
13 5 24 0.7846 0.1780
13 7 0 -28.1328 0.1576
13 7 1 1.0948 -0.0472
13 7 2 -39.0383 -0.1347
13 7 3 -10.2388 -0.1036
13 7 4 8.9624 -0.0197
13 7 5 -10.0456 0.0981
13 7 6 15.2610 -0.0949
13 7 7 1.4686 -0.0968
13 7 8 -1.8532 0.0937
13 7 9 -14.3032 -0.0259
13 7 10 12.8905 0.0583
13 7 11 -15.3843 0.2046
13 7 12 9.4882 -0.0241
13 7 13 10.7359 -0.1610
13 7 14 2.3763 0.1761
13 7 15 8.0431 0.0208
13 7 16 4.9296 -0.1087
13 7 17 1.0549 0.0254
13 7 18 8.0831 0.0041
13 7 19 -1.0007 -0.0177
13 7 20 -1.5699 0.1294
13 7 21 -4.5119 0.1291
13 9 0 -12.4721 0.0249
13 9 1 -3.5042 -0.0440
13 9 2 -9.2266 -0.1078
13 9 3 -11.7081 0.0204
13 9 4 15.7037 0.0119
13 9 5 -4.0640 0.0624
13 9 6 10.2322 0.0254
13 9 7 7.6512 0.0524
13 9 8 -2.4016 0.0782
13 9 9 -14.4923 0.0690
13 9 10 3.4990 -0.0389
13 9 11 -14.8248 0.0358
13 9 12 -0.6042 0.0191
13 9 13 6.6726 -0.0528
13 9 14 2.2995 0.1270
13 9 15 -0.6301 -0.0100
13 9 16 -2.8742 -0.0293
13 9 17 -3.7822 -0.0593
13 9 18 -8.0916 0.0438
13 9 19 -2.3204 -0.0693
13 11 0 -12.2918 -0.0182
13 11 1 -10.8127 -0.0018
13 11 2 -3.1437 -0.0136
13 11 3 -4.1106 0.0484
13 11 4 4.0562 0.0192
13 11 5 3.4235 -0.0447
13 11 6 1.1423 -0.0614
13 11 7 5.9803 0.0226
13 11 8 -3.7109 0.0463
13 11 9 -3.7594 -0.0215
13 11 10 3.5319 -0.0475
13 11 11 -4.5305 -0.0601
13 11 12 6.3082 -0.0873
13 11 13 0.1206 0.1047
13 11 14 1.4413 -0.0021
13 11 15 -0.5918 -0.0928
13 11 16 -13.2327 -0.0666
13 13 0 -13.8460 -0.0432
13 13 1 -2.9696 -0.0586
13 13 2 -14.4944 0.0800
13 13 3 0.9826 -0.0049
13 13 4 -10.2811 -0.0002
13 13 5 -4.2224 -0.0465
13 13 6 2.9580 -0.0407
13 13 7 -5.3172 0.0327
13 13 8 -5.5168 0.1136
13 13 9 -1.9562 -0.0099
13 13 10 -1.9251 -0.0581
13 13 11 -1.3201 0.0465
13 13 12 8.4876 -0.0907
13 15 0 -9.0812 -0.0374
13 15 1 4.7048 0.0448
13 15 2 -9.6918 0.1320
13 15 3 0.4291 0.0486
13 15 4 -6.0545 -0.0671
13 15 5 -13.3595 -0.1023
13 15 6 6.9006 0.0413
13 15 7 -8.0712 0.0754
13 17 0 -0.1563 -0.2108
13 17 1 -3.3265 0.2386
13 17 2 -0.8893 0.1517
13 17 3 -2.1571 0.1583
13 17 4 -2.2506 0.0733
13 17 5 -8.1707 -0.1558
14 0 0 7.2143 -2.1755
14 0 2 1.0128 -0.0350
14 0 4 -6.2862 -0.3900
14 0 6 9.0722 0.2449
14 0 8 10.0115 -0.0262
14 0 10 0.0274 -0.2232
14 0 12 -19.5519 0.3816
14 0 14 -15.0970 -0.3184
14 0 16 -4.4573 0.1629
14 0 18 -2.1592 0.0029
14 0 20 16.3418 -0.1458
14 0 22 14.9092 0.1577
14 0 24 1.2942 0.1241
14 2 0 -5.9537 -1.1690
14 2 1 1.8623 -0.7163
14 2 2 -6.9597 0.0649
14 2 3 3.3684 -0.2275
14 2 4 -7.3383 -0.5390
14 2 5 5.3143 0.0011
14 2 6 6.8685 0.2257
14 2 7 1.8979 0.0813
14 2 8 5.7958 -0.0274
14 2 9 5.5090 0.0124
14 2 10 3.9046 -0.2432
14 2 11 6.1158 -0.1585
14 2 12 -7.8259 0.3209
14 2 13 -5.7942 0.0968
14 2 14 -14.6182 -0.1824
14 2 15 3.7075 -0.0371
14 2 16 -9.5503 0.2465
14 2 17 15.9420 0.0449
14 2 18 -4.1356 -0.0472
14 2 19 6.1551 -0.0651
14 2 20 6.4677 -0.1475
14 2 21 -2.7910 -0.0000
14 2 22 4.5725 0.0368
14 2 23 1.3815 0.0197
14 2 24 1.9482 -0.4353
14 4 0 4.7903 0.0110
14 4 1 2.2997 -0.1563
14 4 2 8.0727 0.1400
14 4 3 -4.0292 0.1993
14 4 4 -7.5764 -0.3860
14 4 5 4.2648 -0.1502
14 4 6 0.9533 0.3453
14 4 7 -4.0580 0.0530
14 4 8 -1.1609 -0.0295
14 4 9 -4.6404 0.0599
14 4 10 -5.5830 -0.1329
14 4 11 4.9269 -0.0839
14 4 12 -2.7226 0.2219
14 4 13 -2.9291 0.2856
14 4 14 -10.8242 -0.1176
14 4 15 -1.9637 -0.0573
14 4 16 -15.4552 0.2581
14 4 17 7.4995 -0.0068
14 4 18 -8.9955 -0.0535
14 4 19 9.6732 -0.0742
14 4 20 -1.2805 -0.1210
14 4 21 0.3485 0.0047
14 4 22 -3.6679 0.0432
14 6 0 33.6714 -0.0318
14 6 1 0.4580 0.1561
14 6 2 31.8042 0.1641
14 6 3 4.2511 0.1814
14 6 4 -13.0982 -0.0111
14 6 5 7.0475 -0.1487
14 6 6 -6.4152 0.2065
14 6 7 -2.7029 0.1777
14 6 8 -2.0762 -0.1603
14 6 9 7.1338 -0.0186
14 6 10 -18.3491 -0.0689
14 6 11 5.8096 -0.1268
14 6 12 -7.2152 0.0452
14 6 13 -10.4971 0.2562
14 6 14 -1.9357 -0.0655
14 6 15 -7.9245 -0.1191
14 6 16 -11.6176 0.1862
14 6 17 -3.8955 -0.0875
14 6 18 -11.3424 -0.0744
14 6 19 4.9304 -0.1216
14 6 20 2.1592 -0.0669
14 6 21 5.5174 -0.0776
14 8 0 23.3462 -0.0428
14 8 1 0.3604 0.0653
14 8 2 13.7961 0.0948
14 8 3 11.8791 0.0002
14 8 4 -22.2526 -0.0473
14 8 5 2.9321 -0.0572
14 8 6 -11.0040 -0.0197
14 8 7 -4.0660 0.0528
14 8 8 -1.3107 -0.0925
14 8 9 21.6283 -0.0894
14 8 10 -7.2289 -0.0145
14 8 11 7.8990 -0.0278
14 8 12 1.3426 -0.1517
14 8 13 -13.7458 0.1300
14 8 14 1.2354 -0.0962
14 8 15 0.9730 -0.0338
14 8 16 -0.0617 0.0726
14 8 17 1.4077 -0.0108
14 8 18 -0.3029 -0.0893
14 8 19 2.1454 -0.0485
14 10 0 7.8038 0.0282
14 10 1 5.6863 0.0016
14 10 2 -6.5465 0.0180
14 10 3 5.7977 -0.0008
14 10 4 -14.9841 -0.0238
14 10 5 -3.6314 0.0520
14 10 6 -2.8451 0.0270
14 10 7 -9.5635 -0.0515
14 10 8 -0.4101 -0.0510
14 10 9 9.5187 0.0347
14 10 10 -2.7591 0.0373
14 10 11 4.7367 0.1007
14 10 12 -2.5680 -0.0250
14 10 13 -3.7047 -0.0125
14 10 14 -1.5421 -0.0442
14 10 15 4.2902 0.1651
14 10 16 12.7935 -0.0174
14 10 17 0.9332 0.1546
14 12 0 9.0223 0.0154
14 12 1 6.1286 -0.0028
14 12 2 2.3093 -0.0671
14 12 3 -1.1610 0.0155
14 12 4 2.7800 0.0398
14 12 5 1.1523 0.1185
14 12 6 4.9985 0.0738
14 12 7 -1.1532 0.0145
14 12 8 4.3484 -0.0461
14 12 9 1.3269 0.0858
14 12 10 -6.5081 0.1291
14 12 11 0.8293 -0.0926
14 12 12 -12.1389 0.0861
14 12 13 -2.2687 -0.2864
14 12 14 0.4644 -0.0905
14 14 0 9.3154 -0.0245
14 14 1 -3.6774 0.0487
14 14 2 9.7715 -0.0714
14 14 3 -2.1562 0.0621
14 14 4 4.1378 0.1587
14 14 5 11.2392 0.1025
14 14 6 -1.7264 -0.0282
14 14 7 6.1827 -0.0963
14 14 8 9.0270 -0.1137
14 14 9 1.0867 -0.0969
14 16 0 2.6555 0.0179
14 16 1 -2.2364 -0.1051
14 16 2 2.6221 -0.1310
14 16 3 1.1739 -0.0137
14 16 4 -1.0311 0.1425
15 1 0 0.2340 1.6144
15 1 1 0.6865 0.3997
15 1 2 1.6483 -0.0289
15 1 3 -2.7156 0.1029
15 1 4 -0.2801 0.5950
15 1 5 -2.2287 -0.0172
15 1 6 -11.0325 -0.3654
15 1 7 -2.0682 -0.1048
15 1 8 -6.1051 0.2249
15 1 9 -6.2282 0.0760
15 1 10 3.3915 0.1696
15 1 11 -1.6973 0.0905
15 1 12 16.5798 -0.2542
15 1 13 3.8112 0.0551
15 1 14 9.2564 0.2079
15 1 15 -6.2986 0.1477
15 1 16 4.5323 -0.1368
15 1 17 -7.6710 -0.0103
15 1 18 -2.4801 0.1151
15 1 19 2.7104 0.0645
15 1 20 -17.3083 -0.0041
15 1 21 3.0626 -0.0189
15 1 22 -9.4031 -0.0979
15 1 23 -1.8042 0.2253
15 3 0 11.0897 0.2249
15 3 1 -0.6013 0.3112
15 3 2 5.3423 0.0523
15 3 3 -2.1587 -0.1710
15 3 4 2.3873 0.5656
15 3 5 -4.0504 0.1161
15 3 6 -4.8497 -0.4001
15 3 7 5.6085 -0.1449
15 3 8 0.3053 0.1694
15 3 9 -0.5690 0.0280
15 3 10 -1.5526 0.1007
15 3 11 -3.9633 0.0645
15 3 12 5.9153 -0.2059
15 3 13 4.1087 -0.1502
15 3 14 15.6049 0.1090
15 3 15 -7.2959 0.0747
15 3 16 12.5693 -0.1320
15 3 17 -13.3923 -0.0390
15 3 18 3.3015 0.1515
15 3 19 -2.2699 0.0754
15 3 20 0.7362 -0.0038
15 3 21 4.9091 -0.1648
15 3 22 3.5827 -0.0193
15 3 23 -0.0049 -0.1500
15 5 0 -16.1642 -0.1970
15 5 1 -1.9602 -0.1838
15 5 2 -12.3364 -0.0435
15 5 3 -3.6509 -0.1783
15 5 4 7.9097 0.1259
15 5 5 -5.1455 0.2078
15 5 6 -2.8572 -0.2663
15 5 7 10.6623 -0.2201
15 5 8 6.1209 0.2068
15 5 9 2.4887 0.0657
15 5 10 13.2940 -0.0070
15 5 11 -3.2887 0.0350
15 5 12 3.8364 -0.1097
15 5 13 5.4526 -0.1855
15 5 14 10.2671 0.0183
15 5 15 3.7773 0.2028
15 5 16 17.2798 -0.1066
15 5 17 -2.7391 0.0532
15 5 18 8.0416 0.1283
15 5 19 -9.0752 0.0510
15 5 20 0.7834 -0.0057
15 5 21 -1.6458 -0.1785
15 7 0 -28.9301 -0.0176
15 7 1 0.2006 -0.0792
15 7 2 -11.2398 -0.0548
15 7 3 -8.7737 0.0162
15 7 4 21.2593 0.0230
15 7 5 -0.9126 0.0420
15 7 6 4.0721 -0.0320
15 7 7 2.0040 -0.1495
15 7 8 6.0942 0.1183
15 7 9 -17.6288 0.1604
15 7 10 12.6214 0.0253
15 7 11 0.9345 0.0082
15 7 12 -3.1451 0.0888
15 7 13 13.1663 -0.1120
15 7 14 -2.3193 -0.0531
15 7 15 1.5347 0.1909
15 7 16 7.1107 -0.0749
15 7 17 1.8804 0.1500
15 7 18 4.5840 0.0521
15 7 19 -6.2136 0.1128
15 9 0 -9.1314 -0.0489
15 9 1 0.4636 -0.0059
15 9 2 9.7859 0.0392
15 9 3 -7.2462 -0.0092
15 9 4 22.7516 0.0620
15 9 5 5.9336 -0.0259
15 9 6 7.7398 -0.0101
15 9 7 5.6665 0.0495
15 9 8 4.3065 0.0356
15 9 9 -17.2002 -0.0352
15 9 10 -0.3864 0.0439
15 9 11 2.7010 -0.1441
15 9 12 -3.1658 0.1167
15 9 13 7.9385 -0.0557
15 9 14 -1.9716 -0.0291
15 9 15 -7.1875 -0.0899
15 9 16 -8.9107 0.0200
15 9 17 -1.6489 0.0170
15 11 0 -0.6202 -0.0151
15 11 1 -2.2786 0.0296
15 11 2 10.6668 0.0782
15 11 3 -2.5229 -0.0563
15 11 4 3.6215 -0.0498
15 11 5 1.6711 -0.1337
15 11 6 -4.2695 -0.0746
15 11 7 7.4708 -0.0108
15 11 8 1.9030 0.0406
15 11 9 -3.6552 -0.1338
15 11 10 7.8613 -0.0777
15 11 11 0.8715 0.0528
15 11 12 11.8631 0.0010
15 11 13 3.0077 0.1105
15 11 14 0.4060 0.1042
15 11 15 0.0783 -0.3201
15 13 0 -3.9576 0.0400
15 13 1 3.0135 -0.0174
15 13 2 -1.8552 0.0087
15 13 3 1.6139 -0.0789
15 13 4 -4.4580 -0.1420
15 13 5 -8.2595 -0.0940
15 13 6 -5.4877 0.0013
15 13 7 -1.9971 0.0390
15 13 8 -3.8316 -0.0168
15 13 9 -2.1605 0.0177
15 13 10 8.1126 -0.2691
15 13 11 0.8504 0.3153
15 15 0 -2.6425 0.1510
15 15 1 6.9826 0.0379
15 15 2 -2.4566 0.0057
15 15 3 0.1257 -0.0663
15 15 4 2.5896 -0.2268
15 15 5 -10.3819 -0.0629
16 0 0 0.9864 -0.8656
16 0 2 -0.7530 0.1085
16 0 4 5.3043 -0.4555
16 0 6 11.5004 0.4475
16 0 8 2.5686 -0.3167
16 0 10 -8.6970 -0.0382
16 0 12 -12.7559 0.0815
16 0 14 -1.0807 -0.2186
16 0 16 -3.1570 0.1175
16 0 18 8.2109 0.0033
16 0 20 21.1051 -0.0460
16 0 22 6.9405 0.0496
16 2 0 -10.9560 -0.2500
16 2 1 -0.5807 -0.1077
16 2 2 -4.0778 -0.0843
16 2 3 2.6725 0.1878
16 2 4 3.5214 -0.4857
16 2 5 0.7876 -0.0498
16 2 6 5.5501 0.4496
16 2 7 -0.3344 0.1115
16 2 8 0.9926 -0.3183
16 2 9 6.7809 -0.1072
16 2 10 -0.1883 -0.0607
16 2 11 0.2245 -0.0130
16 2 12 -9.1348 0.1740
16 2 13 -1.9684 -0.0233
16 2 14 -7.9080 -0.1395
16 2 15 12.0984 -0.0601
16 2 16 -4.1255 -0.0413
16 2 17 5.2874 0.0393
16 2 18 3.7749 -0.0575
16 2 19 -9.3018 -0.0491
16 2 20 6.0390 0.2242
16 2 21 -5.8602 0.1072
16 2 22 0.2372 0.1872
16 4 0 -5.3531 0.3133
16 4 1 3.1328 0.2234
16 4 2 1.1119 -0.1675
16 4 3 6.6595 0.1343
16 4 4 1.2809 -0.2202
16 4 5 0.7849 -0.2084
16 4 6 3.7293 0.3024
16 4 7 -15.6421 0.2405
16 4 8 -5.5940 -0.2307
16 4 9 -2.6640 -0.0857
16 4 10 -2.4319 0.0623
16 4 11 3.5052 0.0070
16 4 12 -4.8520 0.0942
16 4 13 -1.6130 0.0549
16 4 14 -14.9179 -0.1072
16 4 15 5.1891 -0.1061
16 4 16 -11.0480 -0.0521
16 4 17 8.4949 0.0629
16 4 18 -1.9031 -0.0846
16 4 19 3.1852 0.0875
16 4 20 -4.4525 0.0895
16 4 21 -4.1597 0.3764
16 4 22 -4.6103 0.0619
16 6 0 18.7738 0.1441
16 6 1 1.6400 0.1046
16 6 2 4.5380 -0.0160
16 6 3 7.7033 -0.0581
16 6 4 -9.0972 0.0101
16 6 5 -2.2664 -0.0380
16 6 6 4.5712 0.0601
16 6 7 -9.4505 0.1897
16 6 8 -10.8602 -0.1122
16 6 9 6.8233 -0.2084
16 6 10 -12.1932 0.0775
16 6 11 -1.1712 0.0052
16 6 12 3.1701 0.0428
16 6 13 -6.1691 -0.0219
16 6 14 -4.4726 0.0365
16 6 15 -1.9464 -0.2533
16 6 16 -11.4000 -0.0498
16 6 17 2.0667 -0.0221
16 6 18 -2.2301 0.0005
16 6 19 10.1121 0.1465
16 6 20 2.7031 0.1133
16 8 0 13.3517 0.0426
16 8 1 -3.5217 -0.0558
16 8 2 -9.7921 -0.0979
16 8 3 5.0101 -0.0304
16 8 4 -22.0257 -0.0316
16 8 5 -9.0362 0.0271
16 8 6 -5.9341 0.0412
16 8 7 0.8379 -0.0350
16 8 8 -7.2179 0.0059
16 8 9 17.5879 -0.0411
16 8 10 0.4097 -0.0510
16 8 11 -10.6410 0.1134
16 8 12 8.9583 -0.0134
16 8 13 -7.4228 -0.0112
16 8 14 4.9013 0.1474
16 8 15 5.5683 -0.1432
16 8 16 2.2793 -0.0082
16 8 17 0.9596 -0.2055
16 8 18 1.6426 0.0338
16 10 0 -2.1582 0.0125
16 10 1 -3.0649 -0.0311
16 10 2 -16.3967 -0.1409
16 10 3 6.2714 0.0673
16 10 4 -10.4439 0.0612
16 10 5 -6.8640 0.0561
16 10 6 -3.1200 0.0645
16 10 7 -6.6079 -0.0454
16 10 8 -4.1239 -0.0611
16 10 9 7.1922 0.1693
16 10 10 -0.5406 -0.0222
16 10 11 -8.0459 0.0283
16 10 12 -5.8388 -0.0100
16 10 13 -2.5200 0.0173
16 10 14 1.5673 0.0059
16 10 15 4.7926 0.2314
16 12 0 -3.2984 -0.0103
16 12 1 -3.8310 -0.0393
16 12 2 -6.9324 -0.0419
16 12 3 4.2206 0.0681
16 12 4 5.7725 0.0989
16 12 5 4.1581 0.1051
16 12 6 6.4630 0.0253
16 12 7 -2.9371 0.0040
16 12 8 -3.5583 0.0333
16 12 9 3.4370 0.0029
16 12 10 -13.3597 0.1750
16 12 11 -3.1294 -0.3169
16 12 12 -15.4038 -0.0895
16 12 13 -5.7657 -0.1174
16 14 0 -0.4823 -0.1399
16 14 1 -8.7104 -0.0517
16 14 2 -0.8350 0.0960
16 14 3 0.8470 0.0208
16 14 4 -0.4497 0.1384
16 14 5 8.2794 -0.0816
16 14 6 0.4999 -0.0777
16 14 7 0.4521 -0.2022
16 14 8 1.8731 0.1533
17 1 0 6.2979 -0.3833
17 1 1 0.2800 -0.1523
17 1 2 2.7571 -0.0746
17 1 3 0.2109 -0.1095
17 1 4 -6.7513 0.2544
17 1 5 0.0822 0.0301
17 1 6 -5.5894 -0.4077
17 1 7 -3.7494 0.0444
17 1 8 0.6752 0.3467
17 1 9 -5.4464 0.0772
17 1 10 4.8091 -0.0212
17 1 11 1.3251 -0.0441
17 1 12 4.6517 -0.1245
17 1 13 -1.8681 0.1742
17 1 14 -0.0949 0.1626
17 1 15 -7.3741 0.0101
17 1 16 3.4497 0.0547
17 1 17 3.6206 -0.0706
17 1 18 -7.5126 -0.1410
17 1 19 9.7299 -0.0311
17 1 20 -10.7423 -0.2189
17 1 21 2.9040 0.0951
17 3 0 11.9118 -0.4330
17 3 1 -3.5214 -0.3609
17 3 2 -1.1269 0.2608
17 3 3 -5.3235 -0.0739
17 3 4 -5.2216 0.1690
17 3 5 2.6990 0.1718
17 3 6 0.6159 -0.3249
17 3 7 8.4796 -0.1665
17 3 8 1.8105 0.2666
17 3 9 -3.2999 0.0745
17 3 10 -2.9599 -0.0500
17 3 11 -1.0031 -0.0318
17 3 12 5.2086 -0.0555
17 3 13 -2.3643 -0.0062
17 3 14 7.2581 0.2126
17 3 15 -11.1645 -0.0568
17 3 16 0.3369 0.1102
17 3 17 -1.9039 -0.0344
17 3 18 -1.9475 -0.1614
17 3 19 8.2906 -0.0601
17 3 20 4.1023 -0.3221
17 3 21 5.9195 -0.2623
17 5 0 -3.0461 -0.2324
17 5 1 -4.9754 -0.1904
17 5 2 -3.2006 0.1308
17 5 3 -9.1050 0.1373
17 5 4 -3.7405 0.0025
17 5 5 7.8348 0.0469
17 5 6 -4.6020 -0.0753
17 5 7 18.6846 -0.2107
17 5 8 10.4896 0.0714
17 5 9 -1.0485 0.1579
17 5 10 4.4676 -0.1330
17 5 11 -2.8438 -0.0019
17 5 12 0.1264 -0.0045
17 5 13 0.0645 0.0922
17 5 14 9.2395 0.1584
17 5 15 -2.6746 0.0427
17 5 16 5.7088 0.1186
17 5 17 -7.3512 -0.2662
17 5 18 -1.5338 -0.0741
17 5 19 -6.4489 -0.4341
17 5 20 0.9413 -0.0779
17 7 0 -11.6083 -0.0315
17 7 1 2.7568 0.1062
17 7 2 7.6331 0.0807
17 7 3 -1.8915 0.0618
17 7 4 9.7470 -0.0237
17 7 5 12.9320 -0.0733
17 7 6 -0.9394 -0.0578
17 7 7 0.9568 0.0176
17 7 8 11.1953 -0.0718
17 7 9 -11.0415 0.1299
17 7 10 1.4810 -0.0537
17 7 11 8.8736 -0.0287
17 7 12 -10.0706 -0.1002
17 7 13 2.1887 0.1316
17 7 14 -1.6784 -0.0303
17 7 15 -2.2280 0.1627
17 7 16 2.1054 0.0829
17 7 17 -3.0169 -0.0731
17 7 18 -2.4899 -0.1845
17 9 0 -1.5244 0.0535
17 9 1 6.1585 0.0663
17 9 2 15.6718 0.1565
17 9 3 -3.6728 -0.0449
17 9 4 13.6199 -0.1044
17 9 5 12.7153 0.0484
17 9 6 6.6111 -0.0781
17 9 7 -1.1431 0.0995
17 9 8 2.4919 0.0254
17 9 9 -7.4328 -0.1509
17 9 10 -6.9249 0.0334
17 9 11 15.3412 -0.0394
17 9 12 -3.0738 -0.1121
17 9 13 0.0064 0.0288
17 9 14 -4.7926 -0.1096
17 9 15 -6.4600 0.0838
17 9 16 -7.1725 0.0225
17 11 0 5.8636 0.0453
17 11 1 4.2702 0.0805
17 11 2 10.1287 0.1081
17 11 3 -10.2907 -0.0699
17 11 4 -3.9574 -0.1282
17 11 5 2.9745 -0.0494
17 11 6 -1.4615 -0.0023
17 11 7 4.7835 0.0240
17 11 8 3.7481 0.0500
17 11 9 -2.2818 -0.0447
17 11 10 8.0677 -0.0557
17 11 11 7.9883 0.2194
17 11 12 13.3335 0.0769
17 11 13 1.9249 -0.0358
17 13 0 4.7153 0.0253
17 13 1 7.4539 0.0968
17 13 2 4.1365 -0.0221
17 13 3 -5.8446 0.0274
17 13 4 -4.6655 -0.0223
17 13 5 -5.2085 0.0770
17 13 6 -1.5323 0.0171
17 13 7 -1.3449 0.1449
17 13 8 4.1343 -0.1799
17 13 9 -5.7127 0.1884
17 13 10 10.8284 -0.2146
17 13 11 4.0497 0.3378
17 15 0 2.8043 0.2653
17 15 1 7.7270 0.2293
17 15 2 2.1425 -0.1246
18 0 0 -8.6178 1.1984
18 0 2 -3.6110 0.1834
18 0 4 7.9899 -0.1196
18 0 6 2.9924 0.2890
18 0 8 -2.6453 -0.2038
18 0 10 -3.9576 0.0613
18 0 12 0.9123 0.0836
18 0 14 -1.7702 -0.0967
18 0 16 -8.4221 0.0719
18 0 18 5.0670 0.0664
18 2 0 -9.4073 0.7950
18 2 1 2.2339 0.4466
18 2 2 1.6010 -0.1418
18 2 3 0.5518 -0.0047
18 2 4 4.7541 -0.0643
18 2 5 -0.7438 -0.1680
18 2 6 -2.9694 0.2771
18 2 7 2.9424 0.0083
18 2 8 -0.3116 -0.2634
18 2 9 5.8079 0.0041
18 2 10 1.5529 0.0647
18 2 11 -0.3116 0.0516
18 2 12 -1.3573 0.0917
18 2 13 7.3561 0.0051
18 2 14 -0.2331 -0.2552
18 2 15 9.1145 0.1046
18 2 16 0.0641 -0.0139
18 2 17 -8.0208 -0.0696
18 2 18 1.8617 0.4306
18 2 19 -12.2073 -0.0271
18 4 0 -3.5635 0.2640
18 4 1 6.8393 0.2794
18 4 2 6.4720 -0.2358
18 4 3 8.0771 -0.2411
18 4 4 5.6096 -0.0125
18 4 5 -10.5267 -0.0664
18 4 6 -2.7113 0.1251
18 4 7 -16.4501 0.1975
18 4 8 -4.5845 -0.0683
18 4 9 2.2459 -0.0505
18 4 10 2.7513 0.0457
18 4 11 3.3315 0.0121
18 4 12 -2.0764 -0.1076
18 4 13 4.1484 0.0175
18 4 14 -3.7713 -0.2531
18 4 15 7.6354 0.1576
18 4 16 3.4654 0.0548
18 4 17 4.3058 0.2040
18 4 18 1.2611 0.2877
18 4 19 -1.8841 0.3208
18 6 0 5.1015 0.0429
18 6 1 0.8383 -0.0734
18 6 2 -2.3610 -0.0498
18 6 3 1.4383 -0.1080
18 6 4 3.8252 0.0031
18 6 5 -18.2125 0.1243
18 6 6 3.1054 0.0518
18 6 7 -10.5541 0.0383
18 6 8 -12.4977 0.1125
18 6 9 5.0647 -0.1207
18 6 10 -0.5396 0.0851
18 6 11 -1.0598 -0.0398
18 6 12 5.7660 -0.0026
18 6 13 2.0595 -0.1043
18 6 14 -2.7208 -0.2097
18 6 15 1.8913 0.1857
18 6 16 -0.1260 -0.0704
18 6 17 6.1908 0.6207
18 6 18 4.1694 0.1832
18 8 0 4.3545 -0.1017
18 8 1 -6.6113 -0.0777
18 8 2 -11.9403 -0.0729
18 8 3 -4.2380 0.0431
18 8 4 -7.6950 0.0988
18 8 5 -17.1051 -0.0576
18 8 6 -3.1195 0.1023
18 8 7 6.4983 -0.0962
18 8 8 -3.5955 0.0567
18 8 9 4.8027 0.0636
18 8 10 7.9551 0.0263
18 8 11 -13.7778 -0.0264
18 8 12 8.0576 0.1406
18 8 13 3.2544 -0.0792
18 8 14 4.5363 -0.0537
18 8 15 3.3703 -0.0851
18 8 16 3.5183 -0.0301
18 10 0 -2.4814 -0.1599
18 10 1 -3.4602 -0.0756
18 10 2 -8.3658 -0.0527
18 10 3 8.2113 0.0602
18 10 4 -0.6225 0.1724
18 10 5 -10.5553 -0.1024
18 10 6 -2.4722 -0.0455
18 10 7 -0.2485 -0.0374
18 10 8 2.7358 -0.0859
18 10 9 -1.4355 0.1218
18 10 10 2.1133 0.0169
18 10 11 -12.5861 -0.1346
18 10 12 -6.0333 0.0280
18 10 13 3.3304 -0.0098
18 10 14 3.7120 -0.0144
18 12 0 -6.7478 -0.0367
18 12 1 -3.5434 -0.1453
18 12 2 -3.4401 -0.0797
18 12 3 11.3051 0.0324
18 12 4 8.6920 0.0271
18 12 5 -0.6344 -0.0234
18 12 6 1.2954 -0.0387
18 12 7 0.6570 -0.1089
18 12 8 -3.6511 0.0704
18 12 9 3.0084 -0.1453
18 12 10 -10.7905 0.0804
18 12 11 -5.8728 -0.2590
18 12 12 -11.3283 -0.2051
18 14 0 -4.5333 -0.0850
18 14 1 -6.0981 -0.2025
18 14 2 -3.4525 0.0134
18 14 3 4.9996 -0.2232
18 14 4 -2.5037 -0.0718
18 14 5 1.7643 -0.2931
19 1 0 10.1287 -1.2522
19 1 1 -0.0929 -0.3266
19 1 2 -0.4361 -0.0048
19 1 3 1.2284 0.0850
19 1 4 -5.2163 0.1179
19 1 5 -2.2244 0.1624
19 1 6 2.5969 -0.2064
19 1 7 -5.7157 0.0666
19 1 8 1.4291 0.1687
19 1 9 -3.3580 -0.1132
19 1 10 0.1280 -0.1064
19 1 11 -1.1644 -0.0212
19 1 12 -1.5414 -0.1573
19 1 13 -7.6483 -0.0065
19 1 14 4.6420 0.2443
19 1 15 -3.7126 -0.0796
19 1 16 8.4243 -0.1071
19 1 17 7.5830 0.0296
19 3 0 2.7177 -0.3656
19 3 1 -4.5603 -0.2810
19 3 2 -7.0959 0.2410
19 3 3 -4.0294 0.2801
19 3 4 0.2822 0.0282
19 3 5 5.4977 0.1116
19 3 6 8.1268 -0.1791
19 3 7 4.1634 -0.1257
19 3 8 -0.4834 0.1120
19 3 9 -4.4314 -0.0415
19 3 10 -3.6577 0.0227
19 3 11 -2.7527 -0.0439
19 3 12 0.6958 0.0680
19 3 13 -9.4018 -0.1499
19 3 14 -2.4201 0.1889
19 3 15 -8.0937 -0.0275
19 3 16 -4.1292 -0.3280
19 3 17 3.7337 0.1875
19 5 0 -1.2914 -0.0305
19 5 1 -4.2920 0.0461
19 5 2 -2.7847 0.0933
19 5 3 -3.0613 0.1990
19 5 4 -5.7360 0.0558
19 5 5 20.7135 -0.1183
19 5 6 2.0581 -0.0928
19 5 7 16.0386 -0.1197
19 5 8 7.7335 -0.0624
19 5 9 -3.1661 0.0245
19 5 10 -2.5917 0.0465
19 5 11 -3.1527 0.0393
19 5 12 -1.2024 0.1467
19 5 13 -3.8461 -0.0710
19 5 14 1.1837 0.1567
19 5 15 -4.5336 -0.3880
19 5 16 -4.0195 -0.2249
19 5 17 -5.7500 -0.6436
19 5 18 -2.0656 -0.1982
19 7 0 -2.0285 0.0421
19 7 1 4.9787 0.0477
19 7 2 7.3553 0.0010
19 7 3 9.9041 -0.0609
19 7 4 -3.5401 -0.0005
19 7 5 20.6017 -0.0454
19 7 6 -0.9518 -0.1086
19 7 7 -2.5251 0.0447
19 7 8 7.2236 -0.0736
19 7 9 -2.4874 0.0339
19 7 10 -5.0485 -0.0189
19 7 11 5.2748 0.0812
19 7 12 -6.0514 0.0225
19 7 13 -4.0056 -0.0695
19 7 14 -1.2326 0.2899
19 7 15 0.1308 -0.4079
19 7 16 -2.9002 0.0297
19 7 17 -2.7803 -0.7903
19 9 0 -1.3599 0.1794
19 9 1 3.3251 -0.0085
19 9 2 5.9749 -0.0621
19 9 3 2.9946 -0.0257
19 9 4 1.6782 -0.0973
19 9 5 13.7372 0.1748
19 9 6 1.2583 0.0297
19 9 7 -7.8142 -0.0318
19 9 8 -6.2377 0.0467
19 9 9 4.0124 -0.1164
19 9 10 -7.4905 0.0103
19 9 11 11.3875 0.1072
19 9 12 -0.8092 0.0177
19 9 13 -5.8312 0.0299
19 9 14 -5.0005 0.1348
19 9 15 -1.7915 0.1681
19 11 0 4.8735 0.1432
19 11 1 -1.7899 0.1110
19 11 2 -0.3551 -0.0158
19 11 3 -10.2972 -0.0981
19 11 4 -7.7513 -0.0422
19 11 5 7.3252 0.0757
19 11 6 -1.5465 0.1409
19 11 7 -0.7279 0.0080
19 11 8 -3.6808 0.0190
19 11 9 3.2263 -0.0046
19 11 10 4.8647 -0.0002
19 11 11 6.2644 0.1748
19 11 12 8.1472 0.1512
19 13 0 7.0299 0.0570
19 13 1 2.0495 0.1460
19 13 2 1.5964 0.1312
19 13 3 -7.0108 0.0484
19 13 4 -2.8655 0.0675
19 13 5 0.2099 0.1440
19 13 6 1.6639 -0.0169
19 13 7 -5.6009 0.1723
20 0 0 -10.6308 1.3686
20 0 2 2.7997 -0.0613
20 0 4 4.9109 -0.2740
20 0 6 -2.7228 0.2490
20 0 8 -1.5417 -0.1072
20 0 10 0.6218 0.0943
20 0 12 1.0513 0.1779
20 0 14 -10.5956 -0.2269
20 2 0 -3.0762 0.6474
20 2 1 -0.3098 0.2194
20 2 2 5.1161 -0.1987
20 2 3 1.0297 -0.2082
20 2 4 -3.1074 -0.1497
20 2 5 2.2735 -0.1477
20 2 6 -7.2832 0.2117
20 2 7 5.0285 0.0676
20 2 8 1.0962 -0.1564
20 2 9 3.9711 0.0744
20 2 10 1.2662 0.0477
20 2 11 4.6059 0.0501
20 2 12 0.5393 0.0661
20 2 13 12.9675 0.1251
20 2 14 -0.8547 -0.1723
20 2 15 5.2454 -0.2482
20 4 0 1.7523 0.0115
20 4 1 4.4940 -0.0649
20 4 2 3.6749 -0.1835
20 4 3 4.2969 -0.2483
20 4 4 -2.9782 -0.0822
20 4 5 -15.5567 0.0378
20 4 6 -7.5716 0.2021
20 4 7 -10.6297 0.1730
20 4 8 -1.0277 -0.0601
20 4 9 3.5613 0.0469
20 4 10 2.9789 -0.1508
20 4 11 3.6107 0.0158
20 4 12 -0.3541 -0.0643
20 4 13 6.9215 0.1379
20 4 14 2.9142 0.1716
20 4 15 6.4928 -0.0008
20 6 0 -2.7244 0.0328
20 6 1 -1.1829 -0.0710
20 6 2 -3.5466 -0.0282
20 6 3 -8.0567 0.0435
20 6 4 9.0806 -0.0908
20 6 5 -23.1743 0.1049
20 6 6 0.2548 0.1076
20 6 7 -6.3091 0.0138
20 6 8 -7.3959 -0.0207
20 6 9 1.7058 -0.0639
20 6 10 2.9236 -0.0564
20 6 11 0.9520 -0.0733
20 6 12 0.9335 -0.0811
20 6 13 2.6693 0.2568
20 6 14 -0.6954 -0.1098
20 6 15 0.1326 0.7124
20 8 0 -0.4428 -0.0390
20 8 1 -4.9770 0.0735
20 8 2 -4.3855 0.0454
20 8 3 -14.0112 0.0321
20 8 4 5.2426 -0.0407
20 8 5 -12.7077 -0.0558
20 8 6 2.5539 0.0371
20 8 7 10.9090 0.0543
20 8 8 2.4259 -0.0549
20 8 9 -3.5612 -0.0440
20 8 10 5.5764 -0.0651
20 8 11 -5.3241 -0.0697
20 8 12 2.0015 -0.1957
20 8 13 3.4720 0.2089
20 8 14 3.4859 -0.3422
20 10 0 -1.2275 -0.0934
20 10 1 4.1753 0.0169
20 10 2 2.5620 0.1363
20 10 3 0.5408 0.0315
20 10 4 4.3161 -0.0757
20 10 5 -8.6309 -0.0967
20 10 6 3.2563 -0.1355
20 10 7 5.1739 0.1877
20 10 8 9.6947 -0.0368
20 10 9 -7.1101 0.0840
20 10 10 1.0046 -0.1178
20 10 11 -4.2051 -0.1281
20 10 12 -2.6665 -0.2166
20 12 0 -7.6277 -0.1143
20 12 1 4.0006 -0.0231
20 12 2 3.3156 -0.0493
20 12 3 6.0598 0.1512
20 12 4 6.5240 -0.0766
20 12 5 -3.9200 -0.0660
20 12 6 1.9462 -0.0873
20 12 7 3.6155 0.0063
20 12 8 2.6557 0.0618
20 14 0 -4.9175 -0.1122
20 14 1 -0.0833 -0.1135
21 1 0 3.9486 -1.0052
21 1 1 2.6905 -0.1293
21 1 2 -5.1405 0.2720
21 1 3 -0.5738 0.0976
21 1 4 0.8793 0.3020
21 1 5 -4.2447 0.0976
21 1 6 3.6621 -0.2465
21 1 7 -4.4400 -0.0535
21 1 8 -0.1514 0.2354
21 1 9 -1.6136 -0.0360
21 1 10 -1.5497 -0.1633
21 1 11 -4.6678 -0.0363
21 1 12 -0.9746 -0.0915
21 1 13 -9.1932 0.0400
21 1 14 7.1124 0.2632
21 3 0 -3.0526 -0.1697
21 3 1 -0.9645 -0.0039
21 3 2 -1.6028 0.2858
21 3 3 -4.0621 0.1662
21 3 4 9.8461 0.0958
21 3 5 5.0674 0.0379
21 3 6 7.1168 -0.3064
21 3 7 0.9478 -0.1766
21 3 8 -1.8851 0.1941
21 3 9 -3.3387 -0.0123
21 3 10 -0.4182 0.0561
21 3 11 -5.1778 -0.0604
21 3 12 -0.0846 -0.1165
21 3 13 -11.2301 0.0448
21 3 14 -2.8449 -0.2955
21 5 0 4.5017 -0.0314
21 5 1 -3.9727 0.1177
21 5 2 1.9879 0.1233
21 5 3 1.6486 0.0307
21 5 4 -3.8561 0.0848
21 5 5 21.9135 -0.0226
21 5 6 2.9158 -0.1579
21 5 7 9.6262 -0.0971
21 5 8 3.1527 0.1381
21 5 9 -2.0530 0.0337
21 5 10 -1.2834 0.0551
21 5 11 -2.1998 0.0439
21 5 12 2.2666 -0.1770
21 5 13 -3.0759 -0.1295
21 7 0 7.5340 -0.0886
21 7 1 4.2691 -0.0205
21 7 2 1.2877 0.0593
21 7 3 15.0874 -0.0979
21 7 4 -14.9479 0.0841
21 7 5 12.7471 -0.0355
21 7 6 -3.9578 -0.0392
21 7 7 -5.0500 0.0630
21 7 8 3.0295 0.1181
21 7 9 1.8164 0.2128
21 7 10 -1.0585 0.0086
21 7 11 0.4493 0.0073
21 7 12 1.5537 0.1358
21 9 0 1.0168 -0.0813
21 9 1 -0.1942 -0.0549
21 9 2 -2.7465 -0.0108
21 9 3 10.6442 0.0289
21 9 4 -6.4784 0.1574
21 9 5 3.0646 -0.0599
21 9 6 -5.6728 -0.0154
21 9 7 -10.5629 -0.2007
21 9 8 -7.9990 0.0735
21 9 9 6.3107 0.0770
21 9 10 -1.8953 0.2258
21 9 11 1.5736 0.0343
21 9 12 -0.2323 0.3574
21 11 0 4.6962 -0.0220
21 11 1 -7.9773 -0.1206
21 11 2 -6.3591 -0.0448
21 11 3 -0.3017 -0.1202
22 0 0 -1.0973 1.1660
22 0 2 4.9958 -0.4466
22 0 4 -0.2948 -0.2430
22 0 6 -1.3007 0.2380
22 0 8 0.9201 -0.3513
22 0 10 4.8526 0.2377
22 0 12 2.8904 -0.0404
22 2 0 3.2771 0.6018
22 2 1 -2.9743 0.1925
22 2 2 0.3937 -0.4269
22 2 3 3.2633 -0.0133
22 2 4 -7.9571 -0.0871
22 2 5 2.7490 -0.0381
22 2 6 -2.5115 0.2875
22 2 7 2.9056 0.1093
22 2 8 1.6507 -0.3211
22 2 9 1.2289 -0.0867
22 2 10 0.8376 0.1606
22 2 11 6.6373 0.0594
22 2 12 1.9699 0.0989
22 2 13 11.3100 -0.3282
22 4 0 -1.3113 0.0765
22 4 1 6.5806 -0.0096
22 4 2 -3.0070 -0.2675
22 4 3 2.5959 -0.0985
22 4 4 -4.6327 0.0174
22 4 5 -14.6001 -0.0493
22 4 6 -2.8724 0.2581
22 4 7 -4.9277 0.1971
22 4 8 0.5246 -0.2214
22 4 9 2.0623 -0.0431
22 4 10 -1.0485 0.0711
22 4 11 2.5515 -0.0394
22 4 12 -1.8357 0.4555
22 4 13 5.6003 -0.3080
22 6 0 -11.9530 0.1076
22 6 1 3.1604 -0.0321
22 6 2 3.3680 -0.1025
22 6 3 -7.8872 0.0691
22 6 4 17.0461 -0.0398
22 6 5 -15.6299 -0.0858
22 6 6 1.8047 -0.0010
22 6 7 -2.6133 -0.1161
22 6 8 -4.2827 -0.1055
22 6 9 -0.2463 -0.2189
22 6 10 -2.1284 0.2168
22 6 11 0.7530 -0.0197
22 6 12 -4.7337 0.2977
22 8 0 -5.9838 0.1222
22 8 1 -4.4984 -0.0441
22 8 2 6.5244 -0.1594
22 8 3 -13.4449 0.0909
22 8 4 16.1110 -0.0366
22 8 5 1.5529 0.1291
22 8 6 6.1458 0.0847
22 8 7 9.6498 -0.1256
22 8 8 1.0444 -0.0762
22 8 9 -3.7606 -0.3028
22 8 10 -1.5442 -0.0818
22 8 11 -0.6557 0.1072
22 10 0 -1.3229 0.2012
22 10 1 4.4123 0.0782
22 10 2 6.0753 -0.1353
22 10 3 -6.5350 0.0337
23 1 0 -1.8725 -1.0542
23 1 1 2.9750 -0.2938
23 1 2 0.3904 0.5607
23 1 3 -2.3659 -0.0599
23 1 4 2.8820 -0.0113
23 1 5 -3.2783 0.0362
23 1 6 -0.5282 -0.0972
23 1 7 -0.7157 0.0350
23 1 8 -2.4556 0.3713
23 1 9 0.7813 0.1244
23 1 10 -6.0897 -0.3306
23 1 11 -4.1991 -0.0030
23 1 12 -4.8422 0.1084
23 3 0 -2.2852 -0.3060
23 3 1 -3.9569 -0.2692
23 3 2 5.0956 0.4364
23 3 3 -3.3170 0.0803
23 3 4 6.3696 -0.1870
23 3 5 4.6071 -0.0217
23 3 6 -0.8428 -0.2428
23 3 7 0.3675 -0.1803
23 3 8 -1.3720 0.2868
23 3 9 -0.1043 0.1194
23 3 10 0.9166 -0.2262
23 3 11 -3.5493 0.0492
23 3 12 -1.2238 -0.3636
23 5 0 7.8645 -0.1129
23 5 1 -12.0561 -0.0590
23 5 2 -4.8915 0.1612
23 5 3 2.1158 0.1348
23 5 4 -10.0056 -0.0402
23 5 5 15.8980 0.1661
23 5 6 -0.1107 -0.0470
23 5 7 3.7089 -0.0553
23 5 8 2.3737 0.0397
23 5 9 -0.5384 0.1316
23 5 10 3.2722 -0.4127
23 5 11 -0.4419 0.1338
23 5 12 3.9898 -0.6876
23 7 0 9.4022 -0.0686
23 7 1 0.3250 0.0412
23 7 2 -15.1058 0.0850
23 7 3 8.1962 -0.1659
23 7 4 -22.9915 -0.0823
23 7 5 1.5595 0.1111
23 7 6 -2.8807 -0.0064
23 7 7 -3.2296 0.3863
23 7 8 4.4394 -0.0936
23 7 9 1.9114 0.3042
23 7 10 5.0576 -0.3031
23 7 11 0.6810 -0.1215
23 9 0 1.0787 -0.0998
23 9 1 3.3896 0.0867
23 9 2 -8.6708 0.2792
23 9 3 8.0827 -0.1893
24 0 0 -2.2917 1.1298
24 0 2 -3.6855 -0.5648
24 0 4 -1.0421 0.1656
24 0 6 0.9377 -0.1239
24 0 8 4.3015 -0.2211
24 0 10 9.3152 0.3607
24 0 12 5.9163 -0.2516
24 2 0 -0.0673 0.6048
24 2 1 0.1606 0.4841
24 2 2 -6.5213 -0.5045
24 2 3 3.6612 -0.0403
24 2 4 -2.2671 0.3362
24 2 5 1.2824 0.0724
24 2 6 3.0439 -0.0029
24 2 7 -1.2892 -0.0100
24 2 8 2.1453 -0.2559
24 2 9 -2.4645 -0.1497
24 2 10 3.2283 0.3141
24 2 11 3.0509 -0.0746
24 2 12 4.0319 -0.0070
24 4 0 -1.3226 0.1369
24 4 1 12.8236 0.2111
24 4 2 0.9586 -0.3084
24 4 3 -0.9425 -0.2933
24 4 4 3.3710 0.2059
24 4 5 -9.7869 0.0437
24 4 6 1.5791 0.0960
24 4 7 -0.8116 0.2005
24 4 8 -0.7153 -0.0573
24 4 9 -0.5048 -0.1011
24 4 10 -2.0709 0.4056
24 4 11 0.1657 -0.2288
24 6 0 -4.8234 0.1221
24 6 1 10.1204 0.1158
24 6 2 19.8496 0.0142
24 6 3 -4.1464 -0.0714
24 6 4 18.6332 0.0378
24 6 5 -7.6150 -0.2794
24 6 6 -1.4203 -0.0052
24 6 7 -0.6765 -0.1954
24 6 8 -5.2375 0.2864
24 6 9 -0.8346 -0.1294
24 6 10 -5.1991 0.5528
24 8 0 -1.0472 -0.0623
25 1 0 8.2777 -0.6980
25 1 1 0.2223 -0.4185
25 1 2 7.2959 0.4029
25 1 3 -3.3057 0.1414
25 1 4 0.1298 -0.3435
25 1 5 -1.2800 0.0487
25 1 6 -1.4401 0.2605
25 1 7 2.6424 0.1988
25 1 8 -3.6654 0.0333
25 1 9 2.4367 0.0790
25 1 10 -5.8677 -0.2926
25 1 11 -1.0514 0.1307
25 3 0 2.6522 -0.1179
25 3 1 -6.7283 -0.2635
25 3 2 4.0086 0.3416
25 3 3 -0.6882 0.2466
25 3 4 -2.6505 -0.3773
25 3 5 2.3427 -0.2713
25 3 6 -3.2136 0.0440
25 3 7 0.9837 -0.0586
25 3 8 -0.2970 0.0816
25 3 9 2.6743 0.0979
25 3 10 -0.5319 -0.2584
25 5 0 -2.0449 -0.1524
25 5 1 -13.9368 -0.1440
25 5 2 -14.4203 0.1190
25 5 3 4.6547 0.3441
25 5 4 -8.9858 -0.0371
25 5 5 7.7660 -0.0036
25 5 6 2.5189 -0.0734
25 5 7 -0.3297 -0.1311
26 0 0 -15.7234 0.4480
26 0 2 -7.1913 -0.2380
26 0 4 -0.9122 0.2351
26 0 6 -0.6256 -0.2326
26 2 0 -11.1435 0.0644
26 2 1 2.9379 0.1519
26 2 2 -5.5879 -0.1473
26 2 3 3.7866 -0.2098
26 2 4 2.7032 0.3398
26 2 5 0.3645 0.1878
26 4 0 0.7347 -0.0333
26 4 1 8.4012 -0.0515
0 0 0 0.0 0.0
;
_olex2_submission_special_instructions 'No special instructions were received'
loop_
_space_group_symop_operation_xyz
'x, y, z'
'-x, y, -z+1/2'
'x+1/2, y+1/2, z'
'-x+1/2, y+1/2, -z+1/2'
'-x, -y, -z'
'x, -y, z-1/2'
'-x+1/2, -y+1/2, -z'
'x+1/2, -y+1/2, z-1/2'
loop_
_atom_site_label
_atom_site_type_symbol
_atom_site_fract_x
_atom_site_fract_y
_atom_site_fract_z
_atom_site_U_iso_or_equiv
_atom_site_adp_type
_atom_site_occupancy
_atom_site_site_symmetry_order
_atom_site_calc_flag
_atom_site_refinement_flags_posn
_atom_site_refinement_flags_adp
C1 C 0.6728(8) 0.1609(14) 0.4964(8) 0.050(5) Uani 1 1 d . .
H1 H 0.7099 0.1289 0.4945 0.060 Uiso 1 1 calc R .
C2 C 0.6700(9) 0.2008(18) 0.5470(8) 0.067(6) Uani 1 1 d . .
H2 H 0.7032 0.1912 0.5795 0.080 Uiso 1 1 calc R .
C3 C 0.6181(8) 0.2550(14) 0.5497(8) 0.050(5) Uani 1 1 d . .
H3 H 0.6170 0.2865 0.5831 0.060 Uiso 1 1 calc R .
C4 C 0.5678(7) 0.2614(11) 0.5016(7) 0.036(4) Uani 1 1 d . .
C5 C 0.5733(8) 0.2164(13) 0.4529(7) 0.042(4) Uani 1 1 d . .
H5 H 0.5396 0.2209 0.4202 0.051 Uiso 1 1 calc R .
C6 C 0.5053(8) 0.3115(12) 0.5008(7) 0.039(4) Uani 1 1 d . .
C7 C 0.5640(7) 0.4646(12) 0.5219(7) 0.037(4) Uani 1 1 d . .
H7A H 0.6002 0.4294 0.5158 0.044 Uiso 1 1 calc R .
H7B H 0.5750 0.4865 0.5611 0.044 Uiso 1 1 calc R .
C8 C 0.4489(8) 0.4518(12) 0.5180(7) 0.039(4) Uani 1 1 d . .
H8A H 0.4542 0.4726 0.5570 0.046 Uiso 1 1 calc R .
H8B H 0.4130 0.4085 0.5084 0.046 Uiso 1 1 calc R .
Co1 Co 0.43332(8) 0.53755(12) 0.23211(7) 0.0163(4) Uani 1 1 d . .
Mo1 Mo 0.49114(6) 0.69455(9) 0.17973(5) 0.0266(3) Uani 1 1 d . .
Mo2 Mo 0.64754(6) 0.69993(10) 0.22443(6) 0.0314(3) Uani 1 1 d . .
Mo3 Mo 0.72452(5) 0.53691(9) 0.31182(5) 0.0265(3) Uani 1 1 d . .
Mo4 Mo 0.63923(5) 0.37437(9) 0.35745(5) 0.0227(3) Uani 1 1 d . .
Mo5 Mo 0.48266(5) 0.38455(8) 0.31336(5) 0.0195(3) Uani 1 1 d . .
N1 N 0.6255(6) 0.1661(10) 0.4506(5) 0.036(3) Uani 1 1 d . .
N2 N 0.5083(6) 0.4041(10) 0.5123(6) 0.037(3) Uani 1 1 d . .
O1 O 0.4348(5) 0.6669(8) 0.1182(5) 0.039(3) Uani 1 1 d . .
O2 O 0.4864(6) 0.8141(9) 0.1841(5) 0.047(3) Uani 1 1 d . .
O3 O 0.5715(4) 0.6831(7) 0.1624(4) 0.031(2) Uani 1 1 d . .
O4 O 0.6435(5) 0.8192(9) 0.2362(5) 0.051(3) Uani 1 1 d . .
O5 O 0.7021(5) 0.6915(8) 0.1846(4) 0.042(3) Uani 1 1 d . .
O6 O 0.7004(5) 0.6660(7) 0.2993(4) 0.029(2) Uani 1 1 d . .
O7 O 0.7748(5) 0.5238(8) 0.2683(5) 0.040(3) Uani 1 1 d . .
O8 O 0.7727(5) 0.5472(9) 0.3779(5) 0.048(3) Uani 1 1 d . .
O9 O 0.6991(4) 0.4074(7) 0.3138(4) 0.026(2) Uani 1 1 d . .
O10 O 0.6855(4) 0.3850(8) 0.4252(4) 0.036(2) Uani 1 1 d . .
O11 O 0.6338(5) 0.2568(7) 0.3428(4) 0.032(2) Uani 1 1 d . U
O12 O 0.5585(4) 0.3973(7) 0.3732(4) 0.023(2) Uani 1 1 d . .
O13 O 0.4809(4) 0.2657(7) 0.3068(4) 0.026(2) Uani 1 1 d . U
O14 O 0.4239(5) 0.4130(7) 0.3461(4) 0.029(2) Uani 1 1 d . .
O15 O 0.4967(4) 0.5363(7) 0.3000(3) 0.0214(19) Uani 1 1 d . .
O16 O 0.4378(4) 0.4065(7) 0.2323(4) 0.026(2) Uani 1 1 d . .
O17 O 0.3634(4) 0.5446(7) 0.2668(4) 0.028(2) Uani 1 1 d . .
O18 O 0.3671(4) 0.5268(6) 0.1593(4) 0.0208(19) Uani 1 1 d . .
O19 O 0.4371(4) 0.6703(6) 0.2341(4) 0.0197(18) Uani 1 1 d . U
O20 O 0.4553(5) 0.2670(9) 0.4901(6) 0.050(3) Uani 1 1 d . .
O22 O 0.5373(7) 0.1019(10) 0.3359(7) 0.076(5) Uani 1 1 d . .
H22A H 0.5287 0.0854 0.2988 0.114 Uiso 1 1 d GR .
H22B H 0.5170 0.1579 0.3337 0.114 Uiso 1 1 d GR .
O23 O 0.6368(9) 0.0560(14) 0.2917(9) 0.098(6) Uani 1 1 d . .
H23A H 0.6002 0.0218 0.2733 0.147 Uiso 1 1 d GR .
H23B H 0.6684 0.0098 0.2932 0.147 Uiso 1 1 d GR .
O24 O 0.7287(6) 0.1058(10) 0.3875(7) 0.067(4) Uani 1 1 d . .
H24A H 0.7420 0.1058 0.3552 0.101 Uiso 1 1 d GR .
H24B H 0.7453 0.0515 0.4036 0.101 Uiso 1 1 d GR .
O25 O 0.6283(9) -0.0307(13) 0.3996(8) 0.089(5) Uani 1 1 d . U
Zn1 Zn 0.63262(9) 0.11053(15) 0.37294(9) 0.0437(5) Uani 1 1 d . .
C9 C 0.6607(7) 0.2378(13) 0.2120(7) 0.043(4) Uani 1 1 d . .
H9 H 0.6483 0.2118 0.2428 0.051 Uiso 1 1 calc R .
C10 C 0.6399(7) 0.1970(12) 0.1581(6) 0.036(3) Uani 1 1 d . .
H10 H 0.6142 0.1435 0.1518 0.043 Uiso 1 1 calc R .
C11 C 0.6592(7) 0.2401(12) 0.1153(6) 0.036(4) Uani 1 1 d . .
H11 H 0.6445 0.2164 0.0785 0.043 Uiso 1 1 calc R .
C12 C 0.6997(6) 0.3176(11) 0.1235(6) 0.026(3) Uani 1 1 d . .
C13 C 0.7187(7) 0.3503(12) 0.1769(7) 0.036(4) Uani 1 1 d . .
H13 H 0.7472 0.4006 0.1846 0.044 Uiso 1 1 calc R .
C14 C 0.7200(7) 0.3650(11) 0.0767(7) 0.032(3) Uani 1 1 d . .
C15 C 0.7749(9) 0.2206(12) 0.0570(7) 0.045(4) Uani 1 1 d . .
H15A H 0.7687 0.1996 0.0932 0.054 Uiso 1 1 calc R .
H15B H 0.8207 0.2261 0.0608 0.054 Uiso 1 1 calc R .
C16 C 0.7537(9) 0.3511(11) -0.0110(7) 0.043(4) Uani 1 1 d . .
H16A H 0.7990 0.3604 -0.0083 0.052 Uiso 1 1 calc R .
H16B H 0.7318 0.4109 -0.0193 0.052 Uiso 1 1 calc R .
N3 N 0.6980(6) 0.3134(10) 0.2198(5) 0.037(3) Uani 1 1 d . .
N4 N 0.7446(7) 0.3116(10) 0.0427(5) 0.039(3) Uani 1 1 d . .
O21 O 0.7076(5) 0.4479(8) 0.0689(5) 0.041(3) Uani 1 1 d . .
loop_
_atom_site_aniso_label
_atom_site_aniso_U_11
_atom_site_aniso_U_22
_atom_site_aniso_U_33
_atom_site_aniso_U_23
_atom_site_aniso_U_13
_atom_site_aniso_U_12
C1 0.033(8) 0.065(13) 0.055(11) 0.010(10) 0.013(8) 0.017(8)
C2 0.049(11) 0.101(18) 0.042(10) -0.002(11) -0.004(8) 0.038(12)
C3 0.033(8) 0.067(13) 0.043(10) -0.019(9) -0.005(7) 0.008(8)
C4 0.033(8) 0.036(9) 0.038(9) 0.021(7) 0.007(6) 0.000(7)
C5 0.034(8) 0.054(11) 0.040(9) 0.023(8) 0.012(7) 0.007(8)
C6 0.041(9) 0.041(10) 0.035(8) 0.016(7) 0.008(7) -0.005(7)
C7 0.024(7) 0.043(9) 0.040(9) -0.001(7) 0.003(6) 0.002(7)
C8 0.040(8) 0.035(9) 0.044(9) 0.004(7) 0.018(7) 0.009(7)
Co1 0.0164(7) 0.0140(8) 0.0200(8) 0.0010(7) 0.0075(6) 0.0023(6)
Mo1 0.0308(6) 0.0245(6) 0.0275(6) 0.0032(5) 0.0129(5) -0.0026(5)
Mo2 0.0287(6) 0.0314(7) 0.0375(7) 0.0015(6) 0.0148(5) -0.0114(5)
Mo3 0.0194(5) 0.0319(7) 0.0300(6) -0.0069(5) 0.0097(5) -0.0075(5)
Mo4 0.0172(5) 0.0279(6) 0.0236(6) 0.0020(5) 0.0061(4) 0.0040(4)
Mo5 0.0170(5) 0.0192(6) 0.0233(6) 0.0034(5) 0.0073(4) 0.0000(4)
N1 0.037(7) 0.040(8) 0.032(7) 0.011(6) 0.011(5) 0.011(6)
N2 0.022(6) 0.041(8) 0.051(8) -0.002(6) 0.015(6) 0.004(5)
O1 0.039(6) 0.037(6) 0.044(6) 0.006(5) 0.014(5) 0.007(5)
O2 0.063(8) 0.047(7) 0.039(6) 0.007(6) 0.026(6) -0.002(6)
O3 0.023(5) 0.039(6) 0.035(5) 0.001(5) 0.012(4) 0.000(4)
O4 0.037(6) 0.056(8) 0.058(8) 0.002(6) 0.009(6) -0.007(6)
O5 0.042(6) 0.048(7) 0.034(6) -0.002(5) 0.006(5) -0.015(5)
O6 0.035(5) 0.032(6) 0.022(5) -0.005(4) 0.013(4) -0.022(4)
O7 0.026(5) 0.046(7) 0.053(7) -0.017(6) 0.018(5) -0.012(5)
O8 0.034(6) 0.068(9) 0.038(6) -0.027(6) 0.004(5) -0.018(6)
O9 0.028(5) 0.028(5) 0.027(5) -0.012(4) 0.015(4) 0.000(4)
O10 0.020(5) 0.053(7) 0.030(5) 0.002(5) -0.001(4) -0.004(5)
O11 0.033(2) 0.032(2) 0.033(2) 0.0006(10) 0.0082(11) 0.0006(10)
O12 0.021(4) 0.028(5) 0.020(4) 0.012(4) 0.007(3) 0.008(4)
O13 0.026(3) 0.023(3) 0.028(3) 0.0014(18) 0.0071(18) -0.0004(18)
O14 0.032(5) 0.033(6) 0.027(5) 0.010(4) 0.014(4) 0.003(4)
O15 0.023(4) 0.030(5) 0.014(4) -0.010(4) 0.009(3) 0.003(4)
O16 0.023(4) 0.022(5) 0.033(5) 0.006(4) 0.008(4) 0.002(4)
O17 0.019(4) 0.039(6) 0.031(5) -0.004(5) 0.017(4) 0.004(4)
O18 0.019(4) 0.020(5) 0.025(5) 0.010(4) 0.008(4) 0.006(4)
O19 0.020(2) 0.019(2) 0.020(2) -0.0002(10) 0.0055(11) 0.0006(10)
O20 0.028(6) 0.047(7) 0.070(9) -0.007(6) 0.006(5) -0.008(5)
O22 0.060(9) 0.045(9) 0.105(13) -0.005(8) -0.013(8) 0.003(7)
O23 0.082(12) 0.095(14) 0.131(16) -0.012(12) 0.051(12) 0.011(11)
O24 0.048(7) 0.052(8) 0.115(12) 0.039(8) 0.046(8) 0.032(6)
O25 0.089(5) 0.089(5) 0.090(5) 0.002(2) 0.023(2) 0.001(2)
Zn1 0.0380(10) 0.0432(12) 0.0558(12) 0.0141(10) 0.0226(9) 0.0155(9)
C9 0.032(8) 0.057(11) 0.044(9) 0.014(8) 0.020(7) 0.021(8)
C10 0.035(8) 0.037(9) 0.037(8) 0.002(7) 0.013(6) 0.009(7)
C11 0.031(7) 0.045(10) 0.028(8) -0.017(7) 0.002(6) 0.007(7)
C12 0.016(6) 0.036(8) 0.027(7) 0.001(6) 0.004(5) 0.006(6)
C13 0.028(7) 0.040(9) 0.038(8) -0.017(7) 0.005(6) -0.012(7)
C14 0.030(7) 0.026(8) 0.040(8) -0.002(7) 0.011(6) 0.008(6)
C15 0.062(11) 0.042(10) 0.039(9) 0.001(8) 0.029(8) 0.014(8)
C16 0.074(12) 0.026(8) 0.039(9) 0.005(7) 0.031(8) 0.018(8)
N3 0.038(7) 0.048(9) 0.026(6) 0.013(6) 0.009(5) 0.027(6)
N4 0.055(8) 0.033(7) 0.034(7) 0.001(6) 0.021(6) 0.011(6)
O21 0.048(6) 0.035(7) 0.038(6) -0.008(5) 0.010(5) 0.000(5)
loop_
_atom_type_symbol
_atom_type_description
_atom_type_scat_dispersion_real
_atom_type_scat_dispersion_imag
_atom_type_scat_source
C C 0.0033 0.0016 'International Tables Vol C Tables 4.2.6.8 and 6.1.1.4'
H H 0.0000 0.0000 'International Tables Vol C Tables 4.2.6.8 and 6.1.1.4'
Co Co 0.3494 0.9721 'International Tables Vol C Tables 4.2.6.8 and 6.1.1.4'
Mo Mo -1.6832 0.6857 'International Tables Vol C Tables 4.2.6.8 and 6.1.1.4'
N N 0.0061 0.0033 'International Tables Vol C Tables 4.2.6.8 and 6.1.1.4'
O O 0.0106 0.0060 'International Tables Vol C Tables 4.2.6.8 and 6.1.1.4'
Zn Zn 0.2839 1.4301 'International Tables Vol C Tables 4.2.6.8 and 6.1.1.4'
loop_
_geom_angle_atom_site_label_1
_geom_angle_atom_site_label_2
_geom_angle_atom_site_label_3
_geom_angle
_geom_angle_site_symmetry_1
_geom_angle_site_symmetry_3
N1 C1 C2 122.4(16) . .
C1 C2 C3 120.0(17) . .
C2 C3 C4 118.0(17) . .
C3 C4 C6 123.0(16) . .
C5 C4 C3 118.3(15) . .
C5 C4 C6 118.6(14) . .
N1 C5 C4 122.7(15) . .
N2 C6 C4 117.5(14) . .
O20 C6 C4 119.4(16) . .
O20 C6 N2 123.0(16) . .
N2 C7 C8 110.8(13) . 5_666
N2 C8 C7 108.9(13) . 5_666
Co1 Co1 Mo1 67.89(5) 2_655 .
Co1 Co1 Mo5 67.92(5) 2_655 .
Mo5 Co1 Mo1 135.81(6) . .
O15 Co1 Co1 41.7(2) . 2_655
O15 Co1 Co1 41.3(3) 2_655 2_655
O15 Co1 Mo1 95.3(3) . .
O15 Co1 Mo1 50.3(3) 2_655 .
O15 Co1 Mo5 48.7(3) . .
O15 Co1 Mo5 94.6(3) 2_655 .
O15 Co1 O15 83.0(4) . 2_655
O15 Co1 O16 87.8(4) . .
O15 Co1 O16 86.8(4) 2_655 .
O15 Co1 O17 177.1(4) 2_655 .
O15 Co1 O17 95.5(4) . .
O15 Co1 O18 95.9(4) 2_655 .
O15 Co1 O18 174.9(4) . .
O15 Co1 O19 88.2(4) . .
O15 Co1 O19 89.2(4) 2_655 .
O16 Co1 Co1 87.1(3) . 2_655
O16 Co1 Mo1 136.0(3) . .
O16 Co1 Mo5 41.5(3) . .
O16 Co1 O17 95.6(4) . .
O16 Co1 O18 87.2(4) . .
O16 Co1 O19 174.7(4) . .
O17 Co1 Co1 137.1(3) . 2_655
O17 Co1 Mo1 127.5(3) . .
O17 Co1 Mo5 86.2(3) . .
O17 Co1 O18 85.8(4) . .
O18 Co1 Co1 137.1(3) . 2_655
O18 Co1 Mo1 87.8(3) . .
O18 Co1 Mo5 126.6(3) . .
O19 Co1 Co1 87.6(3) . 2_655
O19 Co1 Mo1 41.0(3) . .
O19 Co1 Mo5 135.7(3) . .
O19 Co1 O17 88.3(4) . .
O19 Co1 O18 96.7(4) . .
O1 Mo1 Co1 85.3(4) . .
O1 Mo1 O3 105.8(5) . .
O1 Mo1 O15 88.7(4) . 2_655
O1 Mo1 O19 97.6(4) . .
O1 Mo1 O19 157.7(4) . 2_655
O2 Mo1 Co1 132.7(4) . .
O2 Mo1 O1 104.0(6) . .
O2 Mo1 O3 99.9(5) . .
O2 Mo1 O15 164.6(4) . 2_655
O2 Mo1 O19 97.5(5) . 2_655
O2 Mo1 O19 94.4(4) . .
O3 Mo1 Co1 122.3(3) . .
O3 Mo1 O15 84.5(4) . 2_655
O3 Mo1 O19 148.5(4) . .
O3 Mo1 O19 75.3(4) . 2_655
O15 Mo1 Co1 38.5(2) 2_655 .
O19 Mo1 Co1 75.9(2) 2_655 .
O19 Mo1 Co1 38.4(3) . .
O19 Mo1 O15 75.1(3) . 2_655
O19 Mo1 O15 69.1(3) 2_655 2_655
O19 Mo1 O19 75.1(4) . 2_655
O3 Mo2 O6 150.9(4) . .
O3 Mo2 O17 82.1(4) . 2_655
O3 Mo2 O19 73.3(3) . 2_655
O4 Mo2 O3 100.5(5) . .
O4 Mo2 O6 97.6(5) . .
O4 Mo2 O17 160.7(5) . 2_655
O4 Mo2 O19 91.6(5) . 2_655
O5 Mo2 O3 96.9(4) . .
O5 Mo2 O4 103.6(6) . .
O5 Mo2 O6 100.8(5) . .
O5 Mo2 O17 95.1(5) . 2_655
O5 Mo2 O19 163.4(4) . 2_655
O6 Mo2 O17 73.6(4) . 2_655
O6 Mo2 O19 83.6(3) . 2_655
O17 Mo2 O19 70.6(3) 2_655 2_655
O6 Mo3 O9 148.9(4) . .
O6 Mo3 O17 72.1(4) . 2_655
O6 Mo3 O18 83.5(4) . 2_655
O7 Mo3 O6 101.3(5) . .
O7 Mo3 O9 98.0(5) . .
O7 Mo3 O17 90.6(4) . 2_655
O7 Mo3 O18 158.1(4) . 2_655
O8 Mo3 O6 98.3(5) . .
O8 Mo3 O7 105.3(5) . .
O8 Mo3 O9 99.8(5) . .
O8 Mo3 O17 162.9(5) . 2_655
O8 Mo3 O18 94.9(4) . 2_655
O9 Mo3 O17 83.6(4) . 2_655
O9 Mo3 O18 69.9(3) . 2_655
O18 Mo3 O17 70.4(3) 2_655 2_655
O9 Mo4 O16 82.0(4) . 2_655
O9 Mo4 O18 71.2(4) . 2_655
O10 Mo4 O9 101.6(4) . .
O10 Mo4 O11 106.3(5) . .
O10 Mo4 O12 97.5(4) . .
O10 Mo4 O16 162.2(5) . 2_655
O10 Mo4 O18 94.8(5) . 2_655
O11 Mo4 O9 98.3(4) . .
O11 Mo4 O12 101.1(4) . .
O11 Mo4 O16 90.2(4) . 2_655
O11 Mo4 O18 158.1(4) . 2_655
O12 Mo4 O9 147.6(4) . .
O12 Mo4 O16 72.3(3) . 2_655
O12 Mo4 O18 81.5(4) . 2_655
O18 Mo4 O16 69.7(3) 2_655 2_655
O12 Mo5 Co1 122.3(3) . .
O12 Mo5 O15 84.0(4) . .
O12 Mo5 O16 75.6(3) . 2_655
O12 Mo5 O16 148.2(4) . .
O13 Mo5 Co1 132.7(3) . .
O13 Mo5 O12 99.3(4) . .
O13 Mo5 O14 106.2(5) . .
O13 Mo5 O15 163.2(4) . .
O13 Mo5 O16 94.0(4) . .
O13 Mo5 O16 95.3(4) . 2_655
O14 Mo5 Co1 87.2(3) . .
O14 Mo5 O12 102.6(4) . .
O14 Mo5 O15 89.0(4) . .
O14 Mo5 O16 101.1(4) . .
O14 Mo5 O16 158.4(4) . 2_655
O15 Mo5 Co1 38.9(2) . .
O15 Mo5 O16 69.4(3) . 2_655
O16 Mo5 Co1 38.6(3) . .
O16 Mo5 Co1 76.2(2) 2_655 .
O16 Mo5 O15 75.6(3) . .
O16 Mo5 O16 74.5(4) . 2_655
C1 N1 C5 118.4(15) . .
C1 N1 Zn1 121.7(11) . .
C5 N1 Zn1 119.6(11) . .
C6 N2 C7 127.6(13) . .
C6 N2 C8 118.1(13) . .
C7 N2 C8 114.3(13) . .
Mo1 O3 Mo2 117.3(5) . .
Mo3 O6 Mo2 117.2(5) . .
Mo4 O9 Mo3 118.8(4) . .
Mo4 O11 Zn1 149.3(6) . .
Mo5 O12 Mo4 118.9(5) . .
Co1 O15 Co1 96.9(4) . 2_655
Co1 O15 Mo1 91.2(4) 2_655 2_655
Co1 O15 Mo1 101.4(4) . 2_655
Co1 O15 Mo5 103.1(4) 2_655 .
Co1 O15 Mo5 92.4(4) . .
Mo5 O15 Mo1 158.9(4) . 2_655
Co1 O16 Mo4 99.4(4) . 2_655
Co1 O16 Mo5 100.4(4) . 2_655
Co1 O16 Mo5 99.9(4) . .
Mo5 O16 Mo4 155.7(5) . 2_655
Mo5 O16 Mo4 88.0(3) 2_655 2_655
Mo5 O16 Mo5 102.9(4) . 2_655
Co1 O17 Mo2 102.0(4) . 2_655
Co1 O17 Mo3 101.9(4) . 2_655
Mo2 O17 Mo3 92.3(4) 2_655 2_655
Co1 O18 Mo3 101.9(4) . 2_655
Co1 O18 Mo4 103.7(4) . 2_655
Mo4 O18 Mo3 95.8(3) 2_655 2_655
Co1 O19 Mo1 100.6(4) . .
Co1 O19 Mo1 100.9(4) . 2_655
Co1 O19 Mo2 99.1(4) . 2_655
Mo1 O19 Mo1 101.9(3) . 2_655
Mo1 O19 Mo2 154.6(4) . 2_655
Mo1 O19 Mo2 89.9(3) 2_655 2_655
N1 Zn1 O11 87.2(5) . .
N1 Zn1 O23 177.9(6) . .
N1 Zn1 O25 93.7(6) . .
O22 Zn1 N1 97.1(6) . .
O22 Zn1 O11 90.4(5) . .
O22 Zn1 O23 81.1(7) . .
O22 Zn1 O25 87.7(6) . .
O23 Zn1 O11 91.7(6) . .
O24 Zn1 N1 99.5(6) . .
O24 Zn1 O11 89.5(5) . .
O24 Zn1 O22 163.4(7) . .
O24 Zn1 O23 82.3(7) . .
O24 Zn1 O25 92.2(6) . .
O25 Zn1 O11 177.9(6) . .
O25 Zn1 O23 87.3(7) . .
N3 C9 C10 120.6(15) . .
C11 C10 C9 116.0(16) . .
C10 C11 C12 123.6(14) . .
C11 C12 C14 123.4(13) . .
C13 C12 C11 116.1(14) . .
C13 C12 C14 120.5(14) . .
C12 C13 N3 122.3(14) . .
N4 C14 C12 117.3(13) . .
O21 C14 C12 117.9(13) . .
O21 C14 N4 124.5(15) . .
N4 C15 C16 110.6(14) . 7_655
N4 C16 C15 105.7(14) . 7_655
C9 N3 C13 121.2(14) . .
C14 N4 C15 126.1(13) . .
C14 N4 C16 119.6(13) . .
C15 N4 C16 113.4(12) . .
loop_
_geom_bond_atom_site_label_1
_geom_bond_atom_site_label_2
_geom_bond_distance
_geom_bond_site_symmetry_2
C1 C2 1.37(3) .
C1 N1 1.30(2) .
C2 C3 1.38(2) .
C3 C4 1.38(2) .
C4 C5 1.37(2) .
C4 C6 1.52(2) .
C5 N1 1.35(2) .
C6 N2 1.35(2) .
C6 O20 1.219(19) .
C7 C8 1.51(2) 5_666
C7 N2 1.448(19) .
C8 C7 1.51(2) 5_666
C8 N2 1.485(18) .
Co1 Co1 2.781(3) 2_655
Co1 Mo1 2.995(2) .
Co1 Mo5 2.946(2) .
Co1 O15 1.864(8) 2_655
Co1 O15 1.850(9) .
Co1 O16 1.868(9) .
Co1 O17 1.907(8) .
Co1 O18 1.972(9) .
Co1 O19 1.891(9) .
Mo1 O1 1.711(11) .
Mo1 O2 1.709(13) .
Mo1 O3 1.890(9) .
Mo1 O15 2.306(9) 2_655
Mo1 O19 2.285(8) 2_655
Mo1 O19 1.999(8) .
Mo2 O3 1.934(10) .
Mo2 O4 1.728(14) .
Mo2 O5 1.705(11) .
Mo2 O6 1.941(10) .
Mo2 O17 2.239(10) 2_655
Mo2 O19 2.336(8) 2_655
Mo3 O6 1.913(10) .
Mo3 O7 1.706(10) .
Mo3 O8 1.678(11) .
Mo3 O9 1.927(10) .
Mo3 O17 2.322(9) 2_655
Mo3 O18 2.261(8) 2_655
Mo4 O9 1.925(9) .
Mo4 O10 1.697(10) .
Mo4 O11 1.708(10) .
Mo4 O12 1.902(8) .
Mo4 O16 2.420(9) 2_655
Mo4 O18 2.206(9) 2_655
Mo5 O12 1.895(9) .
Mo5 O13 1.698(10) .
Mo5 O14 1.706(9) .
Mo5 O15 2.217(10) .
Mo5 O16 1.980(9) .
Mo5 O16 2.286(9) 2_655
N1 Zn1 2.085(13) .
O11 Zn1 2.210(11) .
O15 Co1 1.864(8) 2_655
O15 Mo1 2.306(9) 2_655
O16 Mo4 2.420(9) 2_655
O16 Mo5 2.286(9) 2_655
O17 Mo2 2.239(10) 2_655
O17 Mo3 2.322(9) 2_655
O18 Mo3 2.261(8) 2_655
O18 Mo4 2.206(9) 2_655
O19 Mo1 2.285(8) 2_655
O19 Mo2 2.336(8) 2_655
O22 Zn1 2.024(14) .
O23 Zn1 2.140(19) .
O24 Zn1 2.010(12) .
O25 Zn1 2.121(19) .
C9 C10 1.40(2) .
C9 N3 1.33(2) .
C10 C11 1.36(2) .
C11 C12 1.39(2) .
C12 C13 1.34(2) .
C12 C14 1.48(2) .
C13 N3 1.34(2) .
C14 N4 1.328(19) .
C14 O21 1.213(18) .
C15 C16 1.52(2) 7_655
C15 N4 1.45(2) .
C16 C15 1.52(2) 7_655
C16 N4 1.475(19) .
loop_
_smtbx_masks_void_nr
_smtbx_masks_void_average_x
_smtbx_masks_void_average_y
_smtbx_masks_void_average_z
_smtbx_masks_void_volume
_smtbx_masks_void_count_electrons
_smtbx_masks_void_content
1 0.000 0.500 0.000 180.1 35.2 H2O
2 0.000 0.500 0.500 180.1 35.2 H2O
3 0.500 0.000 0.000 180.1 35.2 H2O
4 0.500 1.000 0.500 180.1 35.2 H2O
