#------------------------------------------------------------------------------
#$Date: 2019-11-07 22:40:28 +0200 (Thu, 07 Nov 2019) $
#$Revision: 223837 $
#$URL: file:///home/coder/svn-repositories/cod/cif/7/04/99/7049962.cif $
#------------------------------------------------------------------------------
#
# This file is available in the Crystallography Open Database (COD),
# http://www.crystallography.net/
#
# All data on this site have been placed in the public domain by the
# contributors.
#
data_7049962
loop_
_publ_author_name
'Ding, Tao'
'Zhang, Sheng'
'Zhang, Weiqiang'
'Zhang, Guofang'
'Gao, Zi-Wei'
_publ_section_title
;
 Highly selective C<sub>2</sub>H<sub>2</sub> and CO<sub>2</sub> capture
 and magnetic properties of a robust Co-chain based metal-organic
 framework.
;
_journal_issue                   22
_journal_name_full
'Dalton transactions (Cambridge, England : 2003)'
_journal_page_first              7938
_journal_page_last               7945
_journal_paper_doi               10.1039/c9dt00510b
_journal_volume                  48
_journal_year                    2019
_chemical_formula_moiety         '0.5(C42 H38 Co6 N2 O28)'
_chemical_formula_sum            'C21 H19 Co3 N O14'
_chemical_formula_weight         686.16
_space_group_crystal_system      monoclinic
_space_group_IT_number           8
_space_group_name_Hall           'C -2y'
_space_group_name_H-M_alt        'C 1 m 1'
_symmetry_space_group_name_Hall  'C -2y'
_symmetry_space_group_name_H-M   'C 1 m 1'
_atom_sites_solution_hydrogens   mixed
_audit_creation_date             2017-08-25
_audit_creation_method
;
Olex2 1.2-beta
(compiled 2017.08.10 svn.r3458 for OlexSys, GUI svn.r5381)
;
_audit_update_record
;
2019-01-29 deposited with the CCDC.    2019-04-29 downloaded from the CCDC.
;
_cell_angle_alpha                90
_cell_angle_beta                 99.09(2)
_cell_angle_gamma                90
_cell_formula_units_Z            2
_cell_length_a                   18.30(2)
_cell_length_b                   14.350(19)
_cell_length_c                   6.661(9)
_cell_measurement_reflns_used    3573
_cell_measurement_temperature    100
_cell_measurement_theta_max      27.83
_cell_measurement_theta_min      2.25
_cell_volume                     1727(4)
_computing_cell_refinement       'SAINT v8.27A (Bruker, 2012)'
_computing_data_reduction        'SAINT v8.27A (Bruker, 2012)'
_computing_molecular_graphics    'Olex2 (Dolomanov et al., 2009)'
_computing_publication_material  'Olex2 (Dolomanov et al., 2009)'
_computing_structure_refinement  'ShelXL (Sheldrick, 2015)'
_diffrn_ambient_temperature      100
_diffrn_measured_fraction_theta_full 0.996
_diffrn_measured_fraction_theta_max 0.987
_diffrn_measurement_device_type  'Bruker APEX-II CCD'
_diffrn_measurement_method       '\f and \w scans'
_diffrn_radiation_monochromator  graphite
_diffrn_radiation_type           MoK\a
_diffrn_radiation_wavelength     0.71073
_diffrn_reflns_av_R_equivalents  0.0386
_diffrn_reflns_av_unetI/netI     0.0519
_diffrn_reflns_Laue_measured_fraction_full 0.996
_diffrn_reflns_Laue_measured_fraction_max 0.987
_diffrn_reflns_limit_h_max       24
_diffrn_reflns_limit_h_min       -24
_diffrn_reflns_limit_k_max       18
_diffrn_reflns_limit_k_min       -18
_diffrn_reflns_limit_l_max       8
_diffrn_reflns_limit_l_min       -8
_diffrn_reflns_number            10825
_diffrn_reflns_point_group_measured_fraction_full 0.996
_diffrn_reflns_point_group_measured_fraction_max 0.987
_diffrn_reflns_theta_full        25.242
_diffrn_reflns_theta_max         27.998
_diffrn_reflns_theta_min         3.432
_diffrn_standards_number         0
_exptl_absorpt_coefficient_mu    1.477
_exptl_absorpt_correction_T_max  0.7456
_exptl_absorpt_correction_T_min  0.5906
_exptl_absorpt_correction_type   multi-scan
_exptl_absorpt_process_details
'SADABS-2012/1 (Bruker,2012) was used for absorption correction. wR2(int) was 0.0879 before and 0.0580 after correction. The Ratio of minimum to maximum transmission is 0.7921. The \l/2 correction factor is 0.0015.'
_exptl_crystal_colour            colourless
_exptl_crystal_colour_primary    colourless
_exptl_crystal_density_diffrn    1.319
_exptl_crystal_description       block
_exptl_crystal_F_000             690
_refine_diff_density_max         0.914
_refine_diff_density_min         -0.658
_refine_diff_density_rms         0.108
_refine_ls_abs_structure_details
;
 Refined as an inversion twin.
;
_refine_ls_abs_structure_Flack   0.37(5)
_refine_ls_extinction_method     none
_refine_ls_goodness_of_fit_ref   1.049
_refine_ls_hydrogen_treatment    constr
_refine_ls_matrix_type           full
_refine_ls_number_parameters     185
_refine_ls_number_reflns         4205
_refine_ls_number_restraints     183
_refine_ls_restrained_S_all      1.063
_refine_ls_R_factor_all          0.0573
_refine_ls_R_factor_gt           0.0502
_refine_ls_shift/su_max          0.004
_refine_ls_shift/su_mean         0.000
_refine_ls_structure_factor_coef Fsqd
_refine_ls_weighting_details
'w=1/[\s^2^(Fo^2^)+(0.0758P)^2^+1.8908P] where P=(Fo^2^+2Fc^2^)/3'
_refine_ls_weighting_scheme      calc
_refine_ls_wR_factor_gt          0.1281
_refine_ls_wR_factor_ref         0.1343
_reflns_Friedel_coverage         0.996
_reflns_Friedel_fraction_full    0.996
_reflns_Friedel_fraction_max     0.987
_reflns_number_gt                3691
_reflns_number_total             4205
_reflns_threshold_expression     'I > 2\s(I)'
_cod_data_source_file            c9dt00510b2.cif
_cod_data_source_block           11_sq
_cod_depositor_comments          'Adding full bibliography for 7049962.cif.'
_cod_database_code               7049962
_shelx_shelxl_version_number     2016/6
_shelx_space_group_comment
;
The symmetry employed for this shelxl refinement is uniquely defined
by the following loop, which should always be used as a source of
symmetry information in preference to the above space-group names.
They are only intended as comments.
;
_olex2_refinement_description
;
1. Twinned data refinement
 Scales: 0.63(5)
 0.37(5)
2. Fixed Uiso
 At 1.2 times of:
  All C(H) groups, All O(H) groups
 At 1.5 times of:
  All O(H,H) groups
3. Restrained distances
 C8-C9
 1.4 with sigma of 0.01
4. Uiso/Uaniso restraints and constraints
Uanis(O1) \\sim Ueq: with sigma of 0.001 and sigma for terminal atoms of 0.002
Uanis(C6) \\sim Ueq: with sigma of 0.001 and sigma for terminal atoms of 0.002
5. Rigid body (RIGU) restrains
 All non-hydrogen atoms
 with sigma for 1-2 distances of 0.001 and sigma for 1-3 distances of 0.002
6.a Riding coordinates:
 O4(H4), O5(H5), O6(H6A,H6B), O7(H7A,H7B)
6.b Aromatic/amide H refined with riding coordinates:
 C5(H5A), C6(H6), C7(H7), C10(H10), C11(H11)
;
_shelx_res_file
;
TITL 11 C 1 m 1 R = 0.07
    11_sq.res
    created by SHELXL-2016/6 at 21:42:30 on 25-Aug-2017
CELL 0.71073 18.3 14.35 6.661 90 99.09 90
ZERR 2 0.02 0.019 0.009 0 0.02 0
LATT -7
SYMM +X,-Y,+Z
SFAC  C 2.310 20.844 1.02 10.208 1.589 0.569 0.865 51.651 0.216 0.003 0.002 =
 11.5 0.68 12.01
SFAC  H 0.493 10.511 0.323 26.126 0.14 3.142 0.041 57.8 0.003 0 0 0.624 =
 0.35 1.008
SFAC  Co 12.284 4.279 7.341 0.278 4.003 13.536 2.349 71.169 1.012 0.349 =
 0.972 4010 1.23 58.93
SFAC  N 12.213 0.006 3.132 9.893 2.013 28.998 1.166 0.583 -11.529 0.006 =
 0.003 19.6 0.68 14.01
SFAC  O 3.049 13.277 2.287 5.701 1.546 0.324 0.867 32.909 0.251 0.011 0.006 =
 32.5 0.68 16
UNIT 42 38 6 2 28

DFIX 1.4 0.01 C8 C9
RIGU 0.001 0.002
ISOR 0.001 0.002 O1
ISOR 0.001 0.002 C6

L.S. 20 0 116
PLAN  -20
TEMP -173.15
BOND $H
CONF
ABIN
fmap 2
acta
TWIN -1 0 0 0 -1 0 0 0 -1 2
OMIT -1 1 0
OMIT 2 0 0
OMIT 1 1 0
OMIT -2 0 0
OMIT 0 2 0
OMIT 1 1 1
OMIT 4 0 -1
OMIT -4 0 1
OMIT 3 5 1
OMIT 3 1 1
OMIT -3 1 -1
OMIT -1 1 -1
OMIT 1 1 -1
REM <olex2.extras>
REM <HklSrc "%.\\11_sq.hkl">
REM </olex2.extras>

WGHT    0.075800    1.890800
BASF   0.36743
FVAR       0.14337
CO1   3    0.001880    0.500000    0.254738    10.50000    0.01120    0.01848 =
         0.01517    0.00000    0.00055    0.00000
CO2   3    0.501518    0.106277    0.752288    11.00000    0.02645    0.01905 =
         0.01671   -0.00060    0.00185    0.00186
O1    5    0.086288    0.393981    0.254612    11.00000    0.02086    0.02435 =
         0.02533    0.00139    0.00065    0.00453
O2    5    0.105502    0.377001   -0.066544    11.00000    0.03619    0.07411 =
         0.03146    0.01247    0.00420    0.02883
O3    5    0.397311    0.117428    0.576961    11.00000    0.02498    0.05294 =
         0.01882    0.00674    0.00542    0.02207
O4    5    0.534128    0.000000    0.566726    10.50000    0.00191    0.01860 =
         0.01966    0.00000   -0.00062    0.00000
AFIX   3
H4    2    0.577018    0.000000    0.539676    10.50000   -1.20000
AFIX   0
O5    5    0.467027    0.000000    0.931512    10.50000    0.02315    0.03113 =
         0.01084    0.00000    0.00284    0.00000
AFIX   3
H5    2    0.422447    0.000000    0.949592    10.50000   -1.20000
AFIX   0
O6    5    0.455742    0.213298    0.933864    11.00000    0.09260    0.04836 =
         0.02820   -0.00741    0.01915    0.02205
AFIX   3
H6A   2    0.410352    0.189218    0.941944    11.00000   -1.50000
H6B   2    0.477182    0.208508    1.055514    11.00000   -1.50000
AFIX   0
O7    5    0.540329    0.212205    0.563216    11.00000    0.09833    0.02471 =
         0.04554   -0.00948    0.03208   -0.01625
AFIX   3
H7A   2    0.527699    0.203745    0.434856    11.00000   -1.50000
H7B   2    0.585239    0.196915    0.541376    11.00000   -1.50000
AFIX   0
O8    5    0.419295    0.104148    0.253229    11.00000    0.03227    0.04252 =
         0.02216    0.00391    0.00557    0.02283
N1    4    0.234065    0.500000    0.380872    10.50000    0.01198    0.04035 =
         0.02682    0.00000   -0.00180    0.00000
C1    1    0.122681    0.367795    0.116673    11.00000    0.01787    0.01715 =
         0.02998    0.00414    0.00159    0.00509
C2    1    0.188754    0.308426    0.193092    11.00000    0.02774    0.03391 =
         0.01680   -0.00477   -0.00058    0.01950
C3    1    0.241100    0.329266    0.383359    11.00000    0.02705    0.04095 =
         0.01711   -0.00035   -0.00139    0.00965
C4    1    0.236476    0.418600    0.489841    11.00000    0.01898    0.03862 =
         0.02669   -0.00222    0.00180    0.00286
C5    1    0.238939    0.413958    0.702006    11.00000    0.03316    0.04423 =
         0.02733   -0.00217    0.00399    0.01833
AFIX  43
H5A   2    0.239975    0.356158    0.771936    11.00000   -1.20000
AFIX   0
C6    1    0.239780    0.500000    0.804800    10.50000    0.03542    0.03658 =
         0.03325    0.00000    0.00862    0.00000
AFIX  43
H6    2    0.240951    0.500000    0.947895    10.50000   -1.20000
AFIX   0
C7    1    0.296317    0.261573    0.431474    11.00000    0.04892    0.05809 =
         0.03641   -0.01280   -0.02001    0.02921
AFIX  43
H7    2    0.326874    0.267705    0.560039    11.00000   -1.20000
AFIX   0
C8    1    0.310791    0.190108    0.318462    11.00000    0.02579    0.03987 =
         0.03035    0.00391   -0.00145    0.01585
C9    1    0.381684    0.135364    0.383887    11.00000    0.02702    0.04058 =
         0.01853    0.00215    0.00220    0.01722
C10   1    0.270224    0.177861    0.137250    11.00000    0.04196    0.04777 =
         0.03754   -0.01742   -0.00880    0.03445
AFIX  43
H10   2    0.285048    0.131059    0.051179    11.00000   -1.20000
AFIX   0
C11   1    0.205271    0.231155    0.063621    11.00000    0.02558    0.02933 =
         0.01552   -0.00283    0.00447    0.01450
AFIX  43
H11   2    0.174722    0.217203   -0.061752    11.00000   -1.20000
AFIX   0
HKLF 4




REM  11 C 1 m 1 R = 0.07
REM R1 =  0.0502 for    3691 Fo > 4sig(Fo)  and  0.0573 for all    4205 data
REM    185 parameters refined using    183 restraints

END

WGHT      0.0758      1.8913

REM Highest difference peak  0.914,  deepest hole -0.658,  1-sigma level  0.108
Q1    1  -0.0486  0.5000  0.2598  10.50000  0.05    0.91
Q2    1   0.0521  0.5000  0.2406  10.50000  0.05    0.88
Q3    1   0.3894  0.1019  0.7441  11.00000  0.05    0.59
Q4    1   0.1761  0.5000  0.2482  10.50000  0.05    0.58
Q5    1  -0.1718  0.5000  0.2532  10.50000  0.05    0.58
Q6    1   0.6139  0.0998  0.7503  11.00000  0.05    0.55
Q7    1  -0.1092  0.5000  0.2680  10.50000  0.05    0.55
Q8    1   0.2095  0.5000  0.7554  10.50000  0.05    0.53
Q9    1   0.1109  0.5000  0.2511  10.50000  0.05    0.52
Q10   1   0.5491  0.1084  0.7457  11.00000  0.05    0.47
Q11   1   0.2922  0.0000  0.7494  10.50000  0.05    0.46
Q12   1   0.2369  0.2020  0.0967  11.00000  0.05    0.44
Q13   1   0.4543  0.1111  0.7697  11.00000  0.05    0.42
Q14   1   0.0935  0.4325  0.2363  11.00000  0.05    0.40
Q15   1   0.0043  0.5597  0.2526  11.00000  0.05    0.40
Q16   1   0.5219  0.0571  0.6914  11.00000  0.05    0.38
Q17   1   0.6406  0.0000  0.4182  10.50000  0.05    0.38
Q18   1   0.0905  0.3663  0.1952  11.00000  0.05    0.37
Q19   1   0.5362  0.2694  0.5596  11.00000  0.05    0.36
Q20   1  -0.1398  0.5000  0.0976  10.50000  0.05    0.36
;
_shelx_res_checksum              42879
_shelx_fab_file
;
    4    0    8     -1.54     -0.99
    2    0    8      2.14     -0.82
    0    0    8      0.25      1.87
   -2    0    8      0.42      1.67
   -4    0    8      0.34     -0.57
   -6    0    8     -0.99      0.64
   -8    0    8     -1.24      3.69
  -10    0    8      0.09      1.91
  -12    0    8     -0.41     -0.77
    5    1    8     -0.64     -0.33
    3    1    8     -0.11      0.16
    1    1    8      0.98     -0.15
   -1    1    8      0.11      2.38
   -3    1    8      0.12      1.16
   -5    1    8     -0.27     -0.25
   -7    1    8     -2.08      2.36
   -9    1    8      0.00      2.23
  -11    1    8     -0.05     -0.28
    4    2    8     -0.84     -0.39
    2    2    8      0.70      0.55
    0    2    8     -0.07      0.90
   -2    2    8     -0.96      2.02
   -4    2    8      0.82      1.14
   -6    2    8     -2.44      1.03
   -8    2    8     -1.41      2.25
  -10    2    8     -0.44     -1.80
  -12    2    8      0.47     -0.92
    5    3    8      1.06     -0.33
    3    3    8     -0.76      0.66
    1    3    8     -0.05     -0.06
   -1    3    8     -0.70     -0.04
   -3    3    8     -0.34      2.64
   -5    3    8     -0.06      0.41
   -7    3    8     -3.25      2.87
   -9    3    8     -2.02     -1.76
  -11    3    8     -0.90     -1.46
    4    4    8     -0.02     -0.85
    2    4    8     -0.43     -0.04
    0    4    8     -0.41     -1.42
   -2    4    8     -1.28     -0.46
   -4    4    8      1.41      1.52
   -6    4    8     -1.63      1.41
   -8    4    8     -2.87      1.66
  -10    4    8     -5.08     -1.45
    3    5    8     -0.73     -0.22
    1    5    8     -0.97     -2.06
   -1    5    8     -0.13     -2.72
   -3    5    8     -0.17      0.07
   -5    5    8      1.59     -0.11
   -7    5    8     -1.44      3.00
   -9    5    8     -5.18      0.31
    2    6    8     -0.69     -1.62
    0    6    8     -0.57     -2.19
   -2    6    8     -0.04     -2.43
   -4    6    8      1.63     -0.61
   -6    6    8      0.66      0.80
   -8    6    8     -1.25      2.37
   -1    7    8      0.94     -1.50
   -3    7    8      0.40     -1.22
   -5    7    8      1.26     -1.03
   10    0    7     -4.85     -1.37
    8    0    7     -8.40     -1.90
    6    0    7     -8.53      0.60
    4    0    7     -0.34     -1.02
    2    0    7     -0.25      0.35
    0    0    7     -0.73     -3.14
   -2    0    7     -1.91     -0.89
   -4    0    7     -0.80      1.47
   -6    0    7      2.43     -1.92
   -8    0    7      2.87      0.28
  -10    0    7      3.83      3.70
  -12    0    7     -2.33      2.92
  -14    0    7     -1.37     -1.86
  -16    0    7      2.17     -2.14
    9    1    7     -6.52     -0.55
    7    1    7     -8.40     -1.80
    5    1    7     -2.41      1.03
    3    1    7     -1.35     -0.85
    1    1    7     -0.11     -1.68
   -1    1    7     -0.96     -1.79
   -3    1    7     -1.51      1.14
   -5    1    7      1.13      0.99
   -7    1    7      0.47     -2.92
   -9    1    7      1.87      2.58
  -11    1    7     -0.40      2.22
  -13    1    7     -1.72      0.24
  -15    1    7      0.52     -1.94
  -17    1    7      1.48     -1.02
   10    2    7     -4.01     -1.00
    8    2    7     -3.06     -0.37
    6    2    7     -4.60      0.58
    4    2    7     -0.32     -1.57
    2    2    7     -1.25     -0.66
    0    2    7     -1.50     -1.07
   -2    2    7      0.21     -0.04
   -4    2    7      0.27      3.38
   -6    2    7     -0.26     -1.25
   -8    2    7     -5.54     -0.85
  -10    2    7     -0.43     -0.15
  -12    2    7     -1.46      1.04
  -14    2    7      0.25     -1.45
  -16    2    7      1.12     -0.39
    9    3    7     -0.81      1.23
    7    3    7     -0.69     -1.24
    5    3    7     -1.03      0.64
    3    3    7     -1.34     -1.83
    1    3    7     -2.19     -1.04
   -1    3    7     -0.80      0.93
   -3    3    7      1.31      1.43
   -5    3    7      0.33      2.33
   -7    3    7     -6.37     -2.23
   -9    3    7     -3.65      0.67
  -11    3    7     -2.41     -2.16
  -13    3    7      1.52      0.29
  -15    3    7      0.19     -0.58
   10    4    7     -0.90      0.80
    8    4    7      3.07     -0.27
    6    4    7     -2.16      0.37
    4    4    7     -0.69     -1.41
    2    4    7     -0.67     -0.34
    0    4    7     -4.53      0.12
   -2    4    7      1.41      0.61
   -4    4    7      1.17      1.44
   -6    4    7     -2.58     -0.47
   -8    4    7     -4.52      1.47
  -10    4    7      0.06     -1.96
  -12    4    7     -0.63      0.52
  -14    4    7      1.54     -0.75
  -16    4    7     -0.41      0.97
    9    5    7      1.85      0.63
    7    5    7     -1.01     -0.64
    5    5    7     -1.77      0.11
    3    5    7     -0.40      0.30
    1    5    7     -2.05     -0.44
   -1    5    7     -3.23      0.77
   -3    5    7      1.96     -0.39
   -5    5    7     -0.06      0.83
   -7    5    7     -2.24     -0.02
   -9    5    7      1.78      1.24
  -11    5    7     -0.15     -0.53
  -13    5    7      1.69      0.41
  -15    5    7     -0.21      0.29
    8    6    7     -0.67     -0.19
    6    6    7     -3.51      0.42
    4    6    7     -0.90     -0.66
    2    6    7      1.22      2.12
    0    6    7     -3.97     -0.41
   -2    6    7     -0.21     -0.66
   -4    6    7      0.71      1.09
   -6    6    7      0.16      0.79
   -8    6    7     -0.28     -0.56
  -10    6    7      0.34     -0.31
  -12    6    7      1.73      0.63
  -14    6    7      0.11      0.62
    7    7    7     -2.98     -0.41
    5    7    7     -2.02     -0.46
    3    7    7      0.59      1.47
    1    7    7      0.25      0.49
   -1    7    7     -1.73     -0.28
   -3    7    7     -0.46     -0.27
   -5    7    7     -0.11      2.78
   -7    7    7      0.53     -0.77
   -9    7    7     -4.41     -3.09
  -11    7    7     -0.39      0.13
  -13    7    7      1.03     -0.11
    6    8    7     -2.66     -1.19
    4    8    7     -0.02     -0.16
    2    8    7      1.31      0.96
    0    8    7     -0.36      0.12
   -2    8    7     -0.35     -0.51
   -4    8    7     -2.63      0.42
   -6    8    7      0.87      2.85
   -8    8    7     -2.78     -4.38
  -10    8    7     -7.69     -2.19
  -12    8    7      1.02     -1.00
    5    9    7     -0.76     -0.23
    3    9    7      0.53     -0.79
    1    9    7      0.47     -0.06
   -1    9    7      0.40      0.88
   -3    9    7     -2.14     -1.77
   -5    9    7     -3.07      0.81
   -7    9    7      2.81      0.14
   -9    9    7     -7.25     -4.46
  -11    9    7     -4.16     -0.56
    2   10    7     -0.24     -1.18
    0   10    7      0.10      0.84
   -2   10    7     -0.29     -0.07
   -4   10    7     -3.50     -3.15
   -6   10    7      0.85      1.45
   -8   10    7      0.94     -2.54
   -1   11    7     -0.41      0.99
   -3   11    7     -0.66     -1.91
   -5   11    7     -1.72     -1.38
   14    0    6      0.23      0.64
   12    0    6     -0.53      1.34
   10    0    6     -0.91     -1.65
    8    0    6     -0.95     -0.75
    6    0    6     -0.51     -2.23
    4    0    6     -1.47     -1.02
    2    0    6      0.21      1.38
    0    0    6     -0.44     -0.62
   -2    0    6      2.69      4.34
   -4    0    6     -3.51      1.51
   -6    0    6      2.44     -0.33
   -8    0    6     -1.11      3.91
  -10    0    6      0.42      1.61
  -12    0    6      0.17     -2.75
  -14    0    6      3.21      0.75
  -16    0    6     -0.16      2.60
  -18    0    6      0.83     -2.17
   13    1    6     -0.99      0.61
   11    1    6      0.27      0.64
    9    1    6     -1.43     -2.43
    7    1    6      0.10     -2.99
    5    1    6      0.03     -0.06
    3    1    6     -2.52      0.93
    1    1    6      1.10     -2.73
   -1    1    6      1.01      3.73
   -3    1    6     -1.03     -0.38
   -5    1    6     -0.34      1.36
   -7    1    6      1.14      0.87
   -9    1    6     -1.71      4.57
  -11    1    6      0.12     -1.79
  -13    1    6      1.39      0.81
  -15    1    6      0.27      0.89
  -17    1    6      1.49      0.07
  -19    1    6     -0.02     -2.21
   14    2    6     -0.70     -0.52
   12    2    6     -1.73      2.69
   10    2    6      0.61     -3.31
    8    2    6      0.71     -5.16
    6    2    6     -0.40     -0.10
    4    2    6     -0.39      1.13
    2    2    6     -0.13     -1.14
    0    2    6     -1.34     -2.18
   -2    2    6      2.53     -1.38
   -4    2    6     -2.85     -0.28
   -6    2    6      1.66      0.62
   -8    2    6     -2.13      0.05
  -10    2    6     -1.09      3.04
  -12    2    6     -1.28      0.38
  -14    2    6      0.30      1.79
  -16    2    6     -0.86      0.17
  -18    2    6      2.69     -3.20
   13    3    6     -2.81      1.10
   11    3    6      0.60      1.19
    9    3    6     -0.89     -7.12
    7    3    6      1.35     -3.88
    5    3    6     -0.01      3.85
    3    3    6     -0.88     -1.72
    1    3    6      0.55     -3.71
   -1    3    6      0.08     -2.01
   -3    3    6     -1.08     -3.68
   -5    3    6      0.09      2.36
   -7    3    6      0.19     -5.60
   -9    3    6     -4.78      0.23
  -11    3    6      0.23      2.56
  -13    3    6     -2.25      2.67
  -15    3    6     -1.66     -0.05
  -17    3    6      1.89     -0.86
  -19    3    6      1.84     -2.41
   12    4    6     -1.59      3.74
   10    4    6     -1.52     -4.01
    8    4    6      0.03     -4.17
    6    4    6     -0.42      1.17
    4    4    6      0.48     -0.85
    2    4    6      0.55     -2.17
    0    4    6     -0.45     -2.53
   -2    4    6      0.76     -3.86
   -4    4    6     -1.89      2.90
   -6    4    6      2.40     -3.51
  -10    4    6     -0.98      3.95
  -12    4    6     -1.30      1.31
  -14    4    6     -1.02      0.79
  -16    4    6     -1.22      0.16
  -18    4    6      3.72     -1.11
   13    5    6     -1.29      1.84
   11    5    6     -1.48      1.92
    9    5    6     -3.02     -1.52
    7    5    6      0.40      0.01
    5    5    6     -0.28      0.82
    3    5    6     -0.43     -3.39
    1    5    6      1.06      0.16
   -1    5    6      0.27     -0.24
   -3    5    6     -0.62     -1.66
   -5    5    6      0.94      4.11
   -7    5    6      0.42    -11.72
   -9    5    6     -3.75     -4.07
  -11    5    6      1.49      2.27
  -13    5    6     -1.07      0.29
  -15    5    6      0.23     -2.03
  -17    5    6      1.81      2.37
   12    6    6     -1.59      2.21
   10    6    6     -1.59      1.75
    8    6    6     -0.83      2.88
    6    6    6     -1.32      1.54
    4    6    6      0.18     -2.85
    2    6    6     -0.03      1.26
    0    6    6     -1.63      2.88
   -2    6    6      2.88     -1.39
   -4    6    6     -1.57      1.87
   -6    6    6      2.32     -1.07
   -8    6    6     -1.60     -8.30
  -10    6    6      1.10      0.11
  -12    6    6     -0.16      0.53
  -14    6    6      1.86     -2.37
  -16    6    6      0.88     -0.29
  -18    6    6      2.59      1.44
   11    7    6      0.35      2.54
    9    7    6     -0.73      2.51
    7    7    6     -0.89      3.57
    5    7    6     -0.42      0.39
    3    7    6     -0.97     -0.60
    1    7    6     -0.63      3.07
   -1    7    6     -0.57      3.70
   -3    7    6      0.93     -3.13
   -5    7    6      0.26      2.45
   -7    7    6      0.44     -2.51
   -9    7    6      0.97     -1.84
  -11    7    6      0.73     -0.48
  -13    7    6      1.01     -0.12
  -15    7    6      1.62     -2.76
  -17    7    6      1.95      0.93
   10    8    6      2.53      0.14
    8    8    6     -1.72      3.23
    6    8    6     -0.54      1.89
    4    8    6      0.08     -0.61
    2    8    6     -0.33      2.20
    0    8    6     -1.87      2.30
   -2    8    6      0.76      0.71
   -4    8    6     -0.80     -0.54
   -6    8    6      0.63     -0.78
   -8    8    6      0.14      0.03
  -10    8    6      1.49     -1.83
  -12    8    6     -0.05     -0.31
  -14    8    6      0.75     -0.79
  -16    8    6      0.83     -1.28
    9    9    6     -0.77     -0.81
    7    9    6     -0.22      1.61
    5    9    6      0.11      0.09
    3    9    6     -0.14     -0.35
    1    9    6      0.30      1.15
   -1    9    6     -0.86      1.62
   -3    9    6     -0.65     -0.05
   -5    9    6      0.33     -0.71
   -7    9    6     -0.94     -1.85
   -9    9    6      1.07     -1.51
  -11    9    6     -0.54     -2.84
  -13    9    6     -0.51     -0.57
  -15    9    6      0.12     -0.34
    8   10    6     -0.38      0.67
    6   10    6     -0.38     -2.02
    4   10    6      1.21     -0.82
    2   10    6     -0.62      0.21
    0   10    6     -0.46      0.68
   -2   10    6      0.84     -0.17
   -4   10    6     -0.39      0.39
   -6   10    6     -0.47     -0.83
   -8   10    6     -0.47     -2.81
  -10   10    6     -0.30     -4.61
  -12   10    6     -1.35     -2.47
  -14   10    6     -0.36     -0.07
    7   11    6      1.19     -2.16
    5   11    6     -0.85     -1.53
    3   11    6      0.80     -1.23
    1   11    6     -2.19      1.31
   -1   11    6      0.02     -0.15
   -3   11    6      2.14     -2.39
   -5   11    6     -0.31      2.61
   -7   11    6     -0.53      0.18
   -9   11    6     -0.61     -5.11
  -11   11    6     -1.04     -3.94
    4   12    6      0.98     -0.46
    2   12    6     -1.64      0.42
    0   12    6     -3.23      0.77
   -2   12    6      2.08     -2.72
   -4   12    6      1.84     -0.64
   -6   12    6      0.27      5.09
   -8   12    6     -0.64     -1.38
  -10   12    6     -0.54     -4.18
    1   13    6     -2.56      0.70
   -1   13    6     -1.71     -0.75
   -3   13    6      2.18     -2.71
   -5   13    6      1.67      2.57
   -7   13    6      0.43      3.05
   16    0    5     -0.25      2.32
   14    0    5      0.70      0.10
   12    0    5     -1.74      0.12
   10    0    5      4.53      5.19
    8    0    5      4.13      6.61
    6    0    5     -2.01     -0.71
    4    0    5      2.07     -0.31
    2    0    5     -2.03      1.48
    0    0    5     -0.34     -0.74
   -2    0    5     -0.83      3.60
   -4    0    5     -2.49     -0.32
   -6    0    5      0.50     -0.78
   -8    0    5     -2.33      2.05
   17    1    5     -0.50      2.34
   15    1    5     -0.84      1.55
   13    1    5     -0.76     -1.58
   11    1    5      0.93      2.93
    9    1    5      2.93      5.36
    7    1    5      3.04      1.25
    5    1    5     -0.95      0.31
    3    1    5      0.13     -1.10
    1    1    5      0.80      0.46
   -1    1    5     -4.48      1.31
   -3    1    5     -0.16      0.47
   -5    1    5     -0.63      0.31
   -7    1    5     -3.14     -1.42
   -9    1    5      1.28      2.64
  -11    1    5     -1.63      0.70
  -13    1    5     -0.94     -1.32
   16    2    5     -1.13      0.62
   14    2    5     -1.14      0.50
   12    2    5     -1.35     -0.36
   10    2    5      0.92      1.73
    8    2    5      2.31      3.16
    6    2    5      2.03     -2.28
    4    2    5      0.02      0.76
    2    2    5      1.23     -0.30
    0    2    5     -3.52     -2.49
   -2    2    5     -2.96      2.29
   -4    2    5     -0.84     -0.62
   -6    2    5     -2.01     -3.10
   -8    2    5     -1.74      2.69
  -10    2    5      3.09     -0.88
  -12    2    5     -2.01      0.26
  -14    2    5     -0.28     -1.08
  -16    2    5      0.95      0.41
  -18    2    5     -0.04      2.31
  -20    2    5     -0.59      0.87
   15    3    5     -2.79      0.18
   13    3    5     -0.40     -1.71
   11    3    5      0.05      1.94
    9    3    5     -2.04     -0.84
    7    3    5      4.58      0.02
    5    3    5     -0.82     -0.22
    3    3    5      0.52     -0.31
    1    3    5      0.29     -2.12
   -1    3    5     -5.83      0.71
   -3    3    5     -0.59     -2.25
   -5    3    5     -1.70     -0.09
   -7    3    5     -5.44     -1.20
   -9    3    5      6.86      0.18
  -11    3    5     -2.05     -0.49
  -13    3    5     -0.68     -0.91
  -15    3    5      2.44     -0.42
  -17    3    5     -0.42      0.09
  -19    3    5      1.76     -0.09
  -21    3    5      0.18     -0.47
   16    4    5     -0.31     -0.70
   14    4    5     -0.41     -0.84
   12    4    5      0.35      0.23
   10    4    5      0.92     -0.11
    8    4    5     -2.13     -0.33
    6    4    5      1.68     -0.49
    4    4    5     -0.76      0.56
    2    4    5      0.00     -1.06
    0    4    5     -3.12     -0.83
   -2    4    5     -0.27     -0.86
   -4    4    5     -3.25     -1.66
   -6    4    5     -3.99     -0.69
   -8    4    5      2.58      1.47
  -10    4    5      1.94     -3.99
  -12    4    5     -1.24      2.00
  -14    4    5      1.40     -0.28
  -16    4    5      1.45     -1.93
  -18    4    5     -1.25      1.67
  -20    4    5      1.96     -1.65
   15    5    5      0.03     -0.41
   13    5    5      2.69     -0.59
   11    5    5      2.58      1.73
    9    5    5     -1.32     -1.91
    7    5    5     -1.67      0.46
    5    5    5     -0.37      0.69
    3    5    5     -0.43     -1.08
    1    5    5      0.09      0.14
   -3    5    5      0.39     -3.17
   -5    5    5     -2.61      0.41
   -7    5    5     -1.50      0.44
   -9    5    5      4.07     -2.64
  -11    5    5     -2.02      1.27
  -13    5    5      1.75     -0.74
  -15    5    5      1.71      1.31
  -17    5    5     -4.76     -1.38
  -19    5    5      1.38      1.16
   14    6    5      2.29      1.78
   12    6    5      3.57     -0.85
   10    6    5      1.63      0.50
    8    6    5     -2.28     -0.49
    6    6    5     -1.60     -0.33
    4    6    5      1.55     -0.70
    2    6    5     -0.49      1.64
    0    6    5     -0.54     -2.31
   -2    6    5     -1.06      0.44
   -4    6    5      1.11     -1.79
   -6    6    5      1.22     -0.63
   -8    6    5      0.06     -0.07
  -10    6    5     -1.14     -0.68
  -12    6    5      4.34      0.41
  -14    6    5     -1.75      0.14
  -16    6    5     -1.68     -1.22
  -18    6    5     -3.76      1.33
  -20    6    5      1.03     -1.42
   15    7    5      0.54      1.15
   13    7    5      4.02      0.65
   11    7    5     -0.53     -1.44
    9    7    5      1.02      1.51
    7    7    5     -0.28     -1.48
    5    7    5      1.02     -0.48
    3    7    5     -0.26     -0.80
    1    7    5      1.68      1.08
   -1    7    5     -2.53     -1.86
   -3    7    5      2.20     -0.63
   -5    7    5      4.95     -0.63
   -7    7    5      0.71     -1.19
   -9    7    5     -2.55     -0.09
  -11    7    5      3.16      1.43
  -13    7    5      2.22     -3.66
  -15    7    5     -2.68      0.89
  -17    7    5     -2.60     -1.92
  -19    7    5      0.23     -0.21
   14    8    5      0.93      1.97
   12    8    5     -0.64     -3.89
   10    8    5     -0.84      2.66
    8    8    5      3.75      0.63
    6    8    5      1.19     -1.97
    4    8    5      1.49     -0.37
    2    8    5     -1.84      0.24
    0    8    5      1.50     -1.22
   -2    8    5      1.57     -0.65
   -4    8    5      3.18     -1.18
   -6    8    5      4.71     -0.49
   -8    8    5     -2.19     -0.62
  -10    8    5     -0.55      0.08
  -12    8    5      4.33     -1.35
  -14    8    5     -2.00     -2.51
  -16    8    5      0.59     -1.09
  -18    8    5      0.59     -1.47
   13    9    5      0.02     -1.81
   11    9    5     -3.55     -0.65
    9    9    5      4.64      3.10
    7    9    5      4.37     -0.51
    5    9    5     -0.05      0.40
    3    9    5      0.36     -0.77
    1    9    5     -0.61     -0.51
   -1    9    5      2.80      0.15
   -3    9    5      3.41     -2.69
   -5    9    5      1.98      0.81
   -7    9    5      0.27     -1.22
   -9    9    5      0.32     -1.04
  -11    9    5      0.13     -0.55
  -13    9    5     -0.03     -1.80
  -15    9    5      0.24     -0.43
  -17    9    5      3.48     -1.97
   12   10    5     -2.17     -2.29
   10   10    5      2.57      2.10
    8   10    5      4.57      1.84
    6   10    5      1.47     -0.28
    4   10    5      0.06      2.78
    2   10    5      1.70     -1.44
    0   10    5     -0.67      0.00
   -2   10    5      4.39     -0.07
   -4   10    5      1.53     -1.03
   -6   10    5     -0.83     -0.45
   -8   10    5      1.10     -0.91
  -10   10    5      2.93     -2.23
  -12   10    5     -2.82      0.89
  -14   10    5     -2.01      0.02
  -16   10    5      4.15     -0.02
   11   11    5      0.60      0.25
    9   11    5      3.28     -0.15
    7   11    5      2.32      2.68
    5   11    5     -1.42     -0.02
    3   11    5      4.17      3.05
    1   11    5      0.22     -1.20
   -1   11    5     -1.29      1.07
   -3   11    5      4.13      0.08
   -5   11    5      0.09     -0.62
   -7   11    5     -1.70     -0.59
   -9   11    5      6.59     -1.48
  -11   11    5      0.90     -0.68
  -13   11    5     -4.95      1.99
  -15   11    5      0.49      1.03
   10   12    5      2.26     -1.24
    8   12    5     -0.40      1.63
    6   12    5      1.34     -0.77
    4   12    5      0.63      1.78
    2   12    5      3.25      1.56
    0   12    5     -2.96     -0.23
   -2   12    5      0.74      1.15
   -4   12    5      2.74     -0.07
   -6   12    5     -2.04     -0.50
   -8   12    5      3.62      0.05
  -10   12    5      7.09     -1.90
  -12   12    5     -2.14      1.37
  -14   12    5     -3.10      1.74
    7   13    5      0.89      0.82
    5   13    5      0.10     -2.06
    3   13    5      1.83      1.65
    1   13    5     -1.82      0.74
   -1   13    5     -1.02     -0.19
   -3   13    5      1.44     -0.08
   -5   13    5     -1.08     -0.07
   -7   13    5      0.52      0.36
   -9   13    5      6.07     -1.04
  -11   13    5      2.95     -0.67
    6   14    5      0.86     -2.08
    4   14    5      0.35      0.34
    2   14    5     -1.73      0.05
    0   14    5     -1.33      0.06
   -2   14    5      1.13     -1.32
   -4   14    5     -2.03     -0.02
   -6   14    5     -0.63      0.18
   -8   14    5      2.44     -0.91
  -10   14    5      3.17     -0.54
    1   15    5     -2.28     -0.24
   -1   15    5      0.94     -1.08
   -3   15    5     -1.12     -0.84
   -5   15    5     -1.64      0.88
   18    0    4      0.02      1.54
   16    0    4      2.02      0.32
   14    0    4      0.42      3.40
   12    0    4      0.30     -0.50
   10    0    4      0.29     -5.20
    8    0    4      1.02      1.76
    6    0    4      0.30     -3.60
    4    0    4      2.01      4.09
    2    0    4     -0.35     -3.37
    0    0    4      2.53      1.24
   -2    0    4     -4.63      4.47
   -4    0    4      1.08     -5.00
   -6    0    4      2.02     -0.60
   19    1    4      0.04      0.17
   17    1    4      0.81      2.21
   15    1    4      0.59      1.15
   13    1    4      1.18      2.36
   11    1    4      0.69     -2.50
    9    1    4     -1.80     -2.33
    7    1    4      2.54     -1.20
    5    1    4     -1.08      0.10
    3    1    4      2.36     -2.03
    1    1    4      0.01      0.86
   -1    1    4      0.18      0.23
   -3    1    4     -1.54      1.36
   -5    1    4     -1.35     -3.86
   -7    1    4      4.53     -1.54
   18    2    4     -1.97      1.16
   16    2    4      1.28      1.50
   14    2    4      0.52      2.56
   12    2    4      1.31      0.32
   10    2    4     -0.68     -1.69
    8    2    4     -1.71     -0.85
    6    2    4      0.61     -1.62
    4    2    4      0.53     -2.51
    2    2    4     -1.15     -2.70
    0    2    4      3.78      2.27
   -2    2    4     -2.39     -1.23
   -4    2    4     -1.31     -3.00
   -6    2    4      0.88      2.54
   -8    2    4     -5.72    -10.49
  -10    2    4     -2.31     -1.46
   17    3    4     -0.50      1.78
   15    3    4     -1.36      0.74
   13    3    4      1.85      0.85
   11    3    4     -0.36      1.13
    9    3    4     -1.20     -0.90
    7    3    4     -0.76      0.28
    5    3    4     -0.63     -0.92
    3    3    4     -0.72     -5.08
    1    3    4      0.94      1.18
   -1    3    4      0.44     -1.48
   -3    3    4      0.68     -1.73
   -5    3    4     -3.08      2.03
   -7    3    4     -2.89     -9.29
   -9    3    4    -12.16     -4.98
  -11    3    4      0.88     -0.74
  -13    3    4     -0.63      2.27
  -15    3    4      1.07     -2.04
  -17    3    4     -1.76      0.81
  -19    3    4      0.66      2.77
  -21    3    4     -2.18     -1.23
   18    4    4     -0.16     -1.38
   16    4    4     -0.60     -1.19
   14    4    4     -2.18      0.32
   12    4    4      0.37     -1.44
   10    4    4     -0.06      2.08
    8    4    4      0.52      0.85
    6    4    4     -1.45      2.17
    4    4    4     -1.02     -1.05
    2    4    4     -0.88     -3.03
    0    4    4      0.38     -1.26
   -2    4    4     -0.83      0.64
   -4    4    4      2.07     -0.93
   -6    4    4     -2.59     -2.94
  -10    4    4     -0.37      2.28
  -12    4    4     -2.16      0.25
  -14    4    4     -0.79      1.34
  -16    4    4      1.74     -0.58
  -18    4    4     -1.25      0.03
  -20    4    4     -0.67      1.49
  -22    4    4     -1.74      0.05
   17    5    4      2.44     -4.02
   15    5    4     -2.18     -3.46
   13    5    4     -1.43     -1.60
   11    5    4     -0.93     -1.19
    9    5    4      2.18      3.37
    7    5    4      0.51      2.77
    5    5    4     -1.87      2.10
    3    5    4     -0.12     -2.51
    1    5    4     -2.04     -0.98
   -1    5    4     -1.82     -2.71
   -3    5    4      3.07      2.81
   -5    5    4      0.53     -3.35
   -7    5    4     -8.11     -8.89
   -9    5    4     -8.06      3.72
  -11    5    4      1.45     -2.01
  -13    5    4     -1.50      4.07
  -15    5    4     -1.87      1.73
  -17    5    4      2.99     -4.40
  -19    5    4     -1.98      1.25
  -21    5    4     -0.15      1.64
   16    6    4      2.94     -6.42
   14    6    4     -2.27     -3.40
   12    6    4     -1.36     -1.61
   10    6    4      0.39      1.22
    8    6    4      1.88      4.80
    6    6    4     -1.24      0.35
    4    6    4      2.08     -1.07
    2    6    4     -3.83     -2.20
    0    6    4     -0.01     -0.18
   -2    6    4     -1.48     -1.81
   -4    6    4      3.58     -1.67
   -6    6    4     -0.49     -5.22
   -8    6    4     -8.28      0.73
  -10    6    4      2.11      0.23
  -12    6    4     -2.78      2.53
  -14    6    4     -0.49      1.63
  -16    6    4      0.72     -0.65
  -18    6    4     -0.57     -5.65
  -20    6    4      0.93      3.81
   17    7    4      4.45     -4.65
   15    7    4      2.41     -6.24
   13    7    4     -2.07      0.11
   11    7    4     -0.47      0.51
    9    7    4      0.18      3.41
    7    7    4     -0.31      0.92
    5    7    4      0.05     -2.77
    3    7    4      2.84     -4.60
    1    7    4     -4.47      2.94
   -1    7    4      1.60     -2.86
   -3    7    4     -0.70     -3.70
   -5    7    4      2.76     -3.70
   -7    7    4     -0.54     -0.89
   -9    7    4     -0.04      2.64
  -11    7    4     -1.86     -3.99
  -13    7    4      1.12      4.52
  -15    7    4     -2.84     -1.20
  -17    7    4      2.04     -5.89
  -19    7    4     -0.56      1.13
   16    8    4      4.02     -4.20
   14    8    4      0.12     -1.78
   12    8    4     -0.73      2.44
   10    8    4     -0.52      1.75
    8    8    4     -1.00      1.57
    6    8    4     -1.65     -4.57
    4    8    4      3.06     -2.11
    2    8    4     -0.76     -3.04
    0    8    4     -0.29      3.21
   -2    8    4     -0.48     -4.39
   -4    8    4     -0.29     -4.65
   -6    8    4      3.11     -1.19
   -8    8    4      0.21      1.10
  -10    8    4      2.03     -2.83
  -12    8    4     -2.33     -0.21
  -14    8    4      0.32     -0.33
  -16    8    4      0.07     -1.85
  -18    8    4     -0.06     -2.44
  -20    8    4      1.22      1.86
   15    9    4      2.08     -1.91
   13    9    4      0.02      1.53
   11    9    4     -0.94      0.55
    9    9    4     -0.46      0.79
    7    9    4     -0.40     -2.54
    5    9    4     -2.11     -2.87
    3    9    4      3.06     -0.99
    1    9    4     -1.16     -0.28
   -1    9    4      0.23      0.17
   -3    9    4     -1.13     -2.77
   -5    9    4     -0.98     -1.83
   -7    9    4      1.49     -1.69
   -9    9    4      0.57      0.93
  -11    9    4      0.93     -2.86
  -13    9    4     -0.85      0.31
  -15    9    4      0.47      0.20
  -17    9    4      0.88      0.60
  -19    9    4      0.09      1.07
   14   10    4      0.73      0.03
   12   10    4      0.05     -1.75
   10   10    4     -0.67     -0.55
    8   10    4      1.25     -1.50
    6   10    4     -0.26     -2.51
    4   10    4     -1.11      0.94
    2   10    4      0.79     -0.46
    0   10    4      1.23     -0.74
   -2   10    4     -0.23      0.09
   -4   10    4     -2.77     -0.71
   -6   10    4     -1.58     -1.08
   -8   10    4     -0.64     -2.04
  -10   10    4      1.63      2.57
  -12   10    4     -1.40     -0.45
  -14   10    4      1.42      1.49
  -16   10    4      0.41      3.88
  -18   10    4      0.13      2.94
   13   11    4      0.57     -1.71
   11   11    4     -1.17     -3.16
    9   11    4      2.74     -2.04
    7   11    4      1.19     -1.38
    5   11    4      0.26      0.01
    3   11    4     -0.59      0.96
    1   11    4      1.18      0.72
   -1   11    4      2.51     -2.71
   -3   11    4     -1.19      0.18
   -5   11    4     -3.70     -0.24
   -7   11    4      0.52     -2.25
   -9   11    4     -0.02      2.20
  -11   11    4     -0.87      2.77
  -13   11    4     -0.62      3.08
  -15   11    4      0.39      2.67
  -17   11    4     -0.37      5.37
   12   12    4     -0.71     -2.74
   10   12    4      1.72     -2.10
    8   12    4      1.85     -3.60
    6   12    4      1.41      0.63
    4   12    4      1.33      0.12
    2   12    4     -1.04      1.18
    0   12    4      3.01     -0.73
   -2   12    4      0.82     -3.37
   -4   12    4     -1.66     -0.97
   -6   12    4      1.32     -1.61
   -8   12    4      3.03      2.01
  -10   12    4     -0.48      4.05
  -12   12    4     -3.28      3.32
  -14   12    4     -0.50      2.55
  -16   12    4     -1.84      3.53
   11   13    4     -0.19     -0.78
    9   13    4      2.18     -4.38
    7   13    4     -0.04     -0.26
    5   13    4      2.13     -0.34
    3   13    4      1.18     -0.16
    1   13    4     -1.34      1.07
   -1   13    4      1.76     -2.10
   -3   13    4     -0.34     -2.16
   -5   13    4      2.70     -3.46
   -7   13    4      5.57      2.09
   -9   13    4      3.24      6.81
  -11   13    4     -2.95      1.32
  -13   13    4     -2.69      1.94
  -15   13    4     -2.59      1.78
    8   14    4     -1.48     -1.93
    6   14    4      2.02      0.64
    4   14    4      0.98     -0.96
    2   14    4     -0.12     -1.19
    0   14    4     -1.84      2.04
   -2   14    4      0.48      0.23
   -4   14    4      2.29     -3.18
   -6   14    4      5.06     -1.40
   -8   14    4      5.81      8.32
  -10   14    4      0.80      3.29
  -12   14    4     -3.40     -1.14
    7   15    4     -0.15      2.38
    5   15    4      0.96     -1.45
    3   15    4      1.38     -1.33
    1   15    4     -2.36      0.06
   -1   15    4     -0.47      5.26
   -3   15    4      2.04      0.42
   -5   15    4      2.21     -3.08
   -7   15    4      4.36      4.60
   -9   15    4      3.47      5.23
  -11   15    4     -1.90     -1.17
    4   16    4      0.17     -1.00
    2   16    4      1.09     -1.85
    0   16    4     -2.10      4.45
   -2   16    4      1.89      4.57
   -4   16    4      1.56     -0.95
   -6   16    4      0.31      0.82
   -8   16    4      3.05      2.87
   20    0    3      4.51     -6.71
   18    0    3     -4.72     -9.77
   16    0    3      3.25      2.59
   14    0    3     -1.37     -1.39
   12    0    3     -2.16      0.00
   10    0    3     13.69     -3.17
    8    0    3      2.63     -2.43
    6    0    3      0.02      2.31
    4    0    3     -0.67     -0.30
    2    0    3      5.79     -2.10
    0    0    3      9.66     -1.13
   -2    0    3     -1.70     -8.99
   -8    0    3    -18.13     -0.17
  -12    0    3      4.47     -8.02
  -14    0    3      6.51     -1.85
  -16    0    3     -2.39      0.04
   19    1    3      2.60     -9.75
   17    1    3     -4.34     -0.27
   15    1    3      3.23     -0.95
   13    1    3     -4.18     -0.34
   11    1    3      4.60      0.58
    9    1    3      9.65     -5.79
    7    1    3     -1.21      2.28
    5    1    3     -1.12      0.21
    3    1    3      2.58     -0.04
    1    1    3      4.38     -2.12
   -1    1    3      5.62     -4.16
   -3    1    3     -5.09     -0.65
   -5    1    3      4.71     -2.72
   -7    1    3     -6.39      2.42
   -9    1    3    -18.83      2.52
  -11    1    3      5.05     -7.08
  -13    1    3      3.97     -0.38
  -15    1    3     -0.52     -3.14
  -17    1    3      2.73      1.13
   20    2    3      4.32     -1.90
   18    2    3     -2.05     -5.99
   16    2    3      0.50      3.29
   14    2    3     -2.63     -2.30
   12    2    3     -0.88      0.55
   10    2    3      6.19     -0.65
    8    2    3      1.29     -2.57
    6    2    3     -2.47      3.21
    4    2    3     -1.41     -0.65
    2    2    3      3.44     -1.92
    0    2    3     -1.90      0.88
   -2    2    3     -3.53     -1.65
   -4    2    3      3.63      0.11
   -6    2    3     -3.64     -0.19
   -8    2    3     -8.33     -0.26
  -10    2    3     -3.19      1.56
  -12    2    3      2.71     -5.19
  -14    2    3      0.29     -0.07
  -16    2    3      1.47      0.62
  -18    2    3      1.20     -1.79
   19    3    3      4.40     -3.19
   17    3    3     -2.78      2.13
   15    3    3     -1.13     -0.73
   13    3    3     -0.73     -0.45
   11    3    3      0.31      0.86
    9    3    3      1.25     -0.99
    7    3    3     -0.93      1.68
    5    3    3     -2.00      0.53
    3    3    3     -2.08     -1.60
    1    3    3     -1.82     -1.87
   -1    3    3     -5.03      2.27
   -3    3    3     -1.40      4.26
   -5    3    3      0.03     -4.55
   -7    3    3     -2.11      2.93
   -9    3    3     -4.62     -2.00
  -11    3    3      3.47     -0.39
  -13    3    3     -0.83      0.61
  -15    3    3     -2.45      0.35
  -17    3    3      4.98     -0.91
  -19    3    3     -5.29      0.24
   20    4    3      2.11      0.49
   18    4    3      1.33     -1.53
   16    4    3     -1.21      2.79
   14    4    3     -1.95     -1.47
   12    4    3      2.07     -0.10
   10    4    3     -2.57      0.64
    8    4    3      0.25      1.16
    6    4    3      0.60      2.22
    4    4    3     -3.87     -4.17
    2    4    3     -3.19     -0.79
    0    4    3     -3.06      0.24
   -2    4    3     -3.10      2.75
   -4    4    3      1.19      3.83
   -6    4    3     -4.24     -1.48
   -8    4    3      4.92     -3.05
  -10    4    3     -2.08      2.45
  -12    4    3      0.72      0.88
  -14    4    3     -0.64      0.31
  -16    4    3     -0.93      2.27
  -18    4    3      1.24     -1.55
  -20    4    3     -4.48      1.38
  -22    4    3      2.83     -0.43
   19    5    3      2.06     -1.15
   17    5    3      0.48      1.45
   15    5    3     -1.54     -0.66
   13    5    3      1.23     -0.13
   11    5    3      0.15     -0.03
    9    5    3     -2.71      1.07
    7    5    3      1.21      1.34
    5    5    3      0.77     -0.94
    3    5    3     -5.01     -3.72
    1    5    3     -3.01      0.71
   -1    5    3      2.65     -0.13
   -3    5    3     -2.95      4.79
   -5    5    3     -1.28      0.65
   -7    5    3      4.87     -0.77
   -9    5    3     -0.42     -2.86
  -11    5    3      0.76      4.07
  -13    5    3     -0.85      1.57
  -15    5    3     -0.89     -1.62
  -17    5    3      1.02      4.68
  -19    5    3     -1.62     -2.20
  -21    5    3      0.33      0.57
   18    6    3      2.11      1.34
   16    6    3      0.21      0.72
   14    6    3     -0.42     -1.26
   12    6    3      2.92      1.10
   10    6    3     -2.04      0.08
    8    6    3     -2.06      0.27
    6    6    3     -0.38      0.04
    4    6    3      1.84     -1.75
    2    6    3     -3.78     -1.34
    0    6    3      0.59      1.89
   -2    6    3      2.50     -1.84
   -4    6    3     -1.84      3.99
   -6    6    3      0.86      0.69
   -8    6    3      2.31     -5.47
  -10    6    3     -0.83      4.63
  -12    6    3     -0.86     -1.58
  -14    6    3      1.63      1.19
  -16    6    3     -3.91      1.89
  -18    6    3      2.83      0.91
  -20    6    3     -2.10      0.57
   19    7    3      1.25      1.32
   17    7    3      1.64      3.40
   15    7    3      0.26     -1.17
   13    7    3      2.66      1.59
   11    7    3      1.10      0.54
    9    7    3     -5.62     -0.27
    7    7    3     -3.80     -0.93
    5    7    3      1.15      0.40
    3    7    3      3.16     -0.36
    1    7    3     -2.33      0.12
   -1    7    3      1.09     -0.55
   -3    7    3      2.17     -1.15
   -5    7    3     -0.68      1.74
   -7    7    3     -1.74     -2.89
   -9    7    3     -5.19     -1.20
  -11    7    3      5.11     -1.88
  -13    7    3     -2.33      1.73
  -15    7    3     -1.82     -1.26
  -17    7    3     -1.54      3.87
  -19    7    3     -1.52     -0.87
  -21    7    3      0.85      1.09
   18    8    3      1.51      4.19
   16    8    3      0.97      2.36
   14    8    3      0.79     -0.33
   12    8    3      3.90      2.80
   10    8    3     -6.30     -1.37
    8    8    3     -9.21      0.26
    6    8    3     -1.43     -0.13
    4    8    3      3.12      0.79
    2    8    3      2.73      1.46
    0    8    3     -3.02     -2.08
   -2    8    3      1.18     -0.71
   -4    8    3      3.81     -1.41
   -6    8    3     -5.05      0.19
   -8    8    3     -8.85     -4.05
  -10    8    3      2.27     -2.46
  -12    8    3      2.27     -2.44
  -14    8    3     -0.26      1.91
  -16    8    3     -6.54      0.22
  -18    8    3     -0.47      0.17
  -20    8    3     -1.84      1.97
   17    9    3      0.29      3.76
   15    9    3      0.26     -0.50
   13    9    3      0.33      2.64
   11    9    3     -1.11     -0.19
    9    9    3    -13.10     -1.68
    7    9    3     -5.42      2.67
    5    9    3      2.23     -0.33
    3    9    3      1.53      1.79
    1    9    3      1.42     -0.09
   -1    9    3     -4.22     -2.27
   -3    9    3      4.06     -0.24
   -5    9    3     -0.49     -0.62
   -7    9    3     -9.78     -0.16
   -9    9    3     -1.58     -5.22
  -11    9    3      4.46     -2.93
  -13    9    3      2.16      2.00
  -15    9    3     -3.50     -2.36
  -17    9    3     -2.45      1.50
  -19    9    3     -1.71     -0.11
   16   10    3     -0.29      0.93
   14   10    3     -2.97     -1.10
   12   10    3     -1.07      2.88
   10   10    3     -6.75     -3.90
    8   10    3    -10.48      1.90
    6   10    3      1.88      1.90
    4   10    3      1.12     -0.36
    2   10    3      0.14      0.65
    0   10    3     -0.91     -1.56
   -2   10    3     -2.83     -0.65
   -4   10    3      2.30      0.88
   -6   10    3     -5.75     -0.02
   -8   10    3     -1.52     -0.27
  -10   10    3      3.62     -4.61
  -12   10    3      3.32      1.75
  -14   10    3      1.07     -1.74
  -16   10    3     -1.11     -0.12
  -18   10    3      0.87      0.42
   15   11    3     -1.52     -0.89
   13   11    3     -5.33      0.69
   11   11    3     -0.54     -0.97
    9   11    3     -7.09     -2.75
    7   11    3      0.09      3.54
    5   11    3      1.35     -0.42
    3   11    3      0.98     -1.62
    1   11    3     -1.39     -0.67
   -1   11    3     -2.65     -1.48
   -3   11    3     -2.74      1.54
   -5   11    3     -1.09      0.17
   -7   11    3     -3.06      0.86
   -9   11    3      6.12     -0.71
  -11   11    3      2.15      0.69
  -13   11    3      1.87     -1.31
  -15   11    3      2.08     -0.09
  -17   11    3      2.67      1.28
   14   12    3     -2.89     -0.86
   12   12    3     -2.35      1.06
   10   12    3      0.01     -3.69
    8   12    3     -0.41      1.91
    6   12    3      2.88     -0.41
    4   12    3      0.14     -0.41
    2   12    3      0.84     -3.40
    0   12    3     -2.90     -0.24
   -2   12    3     -3.13     -0.12
   -4   12    3     -2.62      1.56
   -6   12    3     -2.03     -1.54
   -8   12    3      2.92      2.29
  -10   12    3      2.63      0.91
  -12   12    3      1.84     -0.99
  -14   12    3      1.51     -0.14
  -16   12    3      3.44      1.72
   13   13    3     -1.84      0.15
   11   13    3      0.55     -0.22
    9   13    3      1.40     -1.36
    7   13    3      3.31      1.43
    5   13    3     -0.88     -1.63
    3   13    3      2.08     -0.58
    1   13    3     -1.49     -2.21
   -1   13    3     -2.05      0.69
   -3   13    3     -1.25      0.14
   -5   13    3     -2.29     -0.08
   -7   13    3      0.52      0.04
   -9   13    3      0.44      1.42
  -11   13    3      0.04      0.33
  -13   13    3      2.32     -1.70
  -15   13    3      1.79      1.86
   12   14    3     -0.11      0.65
   10   14    3      1.25      0.57
    8   14    3      2.13     -0.58
    6   14    3     -0.02     -0.12
    4   14    3     -0.99     -0.52
    2   14    3      1.83     -0.23
    0   14    3     -2.34     -0.43
   -2   14    3      1.55      0.23
   -4   14    3     -0.25     -0.18
   -6   14    3     -0.48      0.56
   -8   14    3     -0.97     -0.35
  -10   14    3     -3.40      0.31
  -12   14    3      2.19     -0.87
  -14   14    3      1.11     -0.24
    9   15    3      2.05      0.58
    7   15    3     -0.97     -0.88
    5   15    3     -1.40     -0.60
    3   15    3      0.05      0.25
    1   15    3      0.26     -0.44
   -1   15    3     -0.42     -0.27
   -3   15    3      3.20      0.00
   -5   15    3      0.53      0.51
   -7   15    3     -2.48     -0.71
   -9   15    3     -3.81     -0.95
  -11   15    3     -0.32      0.01
  -13   15    3      1.19     -1.44
    8   16    3      0.65     -0.18
    6   16    3     -2.20     -0.70
    4   16    3     -0.62     -1.64
    2   16    3      0.31      0.08
    0   16    3     -0.96     -0.92
   -2   16    3      1.11      0.05
   -4   16    3      3.29      0.70
   -6   16    3     -2.71     -1.44
   -8   16    3     -4.78     -1.25
  -10   16    3     -0.40     -0.42
    3   17    3     -0.31     -1.66
    1   17    3     -0.43     -0.21
   -1   17    3     -0.89      0.23
   -3   17    3      1.61      0.45
   -5   17    3      0.12     -0.79
   -7   17    3     -5.00     -1.69
   22    0    2      0.01      0.37
   20    0    2     -2.56      1.32
   18    0    2      0.20     -2.95
   16    0    2     -0.46      1.13
   14    0    2     -0.45      1.31
   12    0    2      0.16     -0.10
   10    0    2     -2.82     -0.97
    8    0    2      0.94     -2.01
    6    0    2      5.29      5.01
    4    0    2     -3.52     -2.85
    2    0    2     -1.12      0.10
    0    0    2    -10.10      8.24
   -2    0    2     10.02    -10.62
   -4    0    2     -4.79      9.47
   -6    0    2      9.05     -2.66
  -10    0    2     -8.54     -0.61
  -12    0    2      2.03     -2.27
  -14    0    2      0.78      0.68
  -16    0    2      3.63     -4.35
  -18    0    2      1.14     -4.71
  -20    0    2     -0.73      0.66
  -22    0    2     -1.45     -0.93
   21    1    2     -0.29     -0.65
   19    1    2      0.19      0.50
   17    1    2     -1.96     -1.95
   15    1    2      1.23      1.57
   13    1    2     -0.32      0.27
   11    1    2     -0.91     -2.25
    9    1    2     -0.46      0.61
    7    1    2      2.38      1.41
    5    1    2      3.70      0.59
    3    1    2     -7.95      0.04
    1    1    2     -1.47     -4.79
   -1    1    2      2.96     10.21
   -3    1    2     -6.98     -9.85
   -5    1    2     13.75      4.85
   -7    1    2     -2.76      2.76
   -9    1    2      1.87     -4.46
  -11    1    2     -1.87      3.60
  -13    1    2     -1.14     -3.06
  -15    1    2      2.96     -1.23
  -17    1    2      2.05     -3.61
  -19    1    2     -0.05     -0.88
  -21    1    2     -1.20     -0.87
  -23    1    2      0.17     -1.62
   22    2    2      1.48     -0.05
   20    2    2      0.70     -1.03
   18    2    2      0.87     -1.72
   16    2    2     -1.95      2.73
   14    2    2      0.96     -3.59
   12    2    2      2.35     -1.37
   10    2    2     -2.36      0.07
    8    2    2      3.69      2.26
    6    2    2      0.39      4.16
    4    2    2     -6.02     -7.97
    2    2    2      2.13      2.23
    0    2    2     -5.13     -1.56
   -2    2    2      3.21      0.17
   -4    2    2      0.03      7.33
   -6    2    2     -0.47    -10.85
   -8    2    2      4.60      6.08
  -10    2    2     -2.92     -0.14
  -12    2    2      1.06     -2.16
  -14    2    2      0.47      0.60
  -16    2    2     -0.94     -1.20
  -18    2    2      2.09     -0.32
  -20    2    2      0.00      0.24
  -22    2    2     -0.02     -3.08
   21    3    2      3.35     -1.32
   19    3    2      1.76     -1.69
   17    3    2     -2.95      2.15
   15    3    2      1.01     -1.90
   13    3    2      1.93     -4.53
   11    3    2      1.78      0.16
    9    3    2     -1.40      3.43
    7    3    2      0.24      2.52
    5    3    2     -1.77     -0.47
    3    3    2     -9.30     -5.10
    1    3    2      6.92     -0.42
   -1    3    2     -4.47      4.38
   -3    3    2     -4.43      4.18
   -5    3    2      3.46     -1.39
   -7    3    2     -6.45      0.37
   -9    3    2      5.60      5.95
  -11    3    2     -0.95     -0.40
  -13    3    2     -0.19     -1.27
  -15    3    2     -0.30      0.76
  -17    3    2      0.46      0.99
  -19    3    2      0.86      1.74
  -21    3    2      1.53     -2.03
  -23    3    2      1.52     -1.74
   20    4    2      2.40     -3.07
   18    4    2     -2.25      0.35
   16    4    2     -1.55      4.07
   14    4    2      1.24     -6.96
   12    4    2      4.32      0.15
   10    4    2     -2.87      2.93
    8    4    2     -1.73      3.22
    6    4    2     -4.87      3.78
    4    4    2     -3.07     -6.57
    2    4    2     -1.81      4.87
    0    4    2     -1.02      1.07
   -2    4    2     -1.59      4.57
   -4    4    2     -7.39      8.28
   -6    4    2     -1.41     -4.54
  -10    4    2      1.68      5.38
  -12    4    2     -1.06     -5.42
  -14    4    2      0.70      2.25
  -16    4    2      0.38      0.58
  -18    4    2      0.17     -0.41
  -20    4    2      2.01      1.79
  -22    4    2      2.33     -1.67
   21    5    2      2.56     -0.34
   19    5    2     -2.08     -3.84
   17    5    2     -3.49      5.31
   15    5    2      0.28      0.65
   13    5    2      2.54     -3.91
   11    5    2      2.10      2.13
    9    5    2     -6.59      6.58
    7    5    2     -3.62      0.70
    5    5    2     -3.37      2.50
    3    5    2     -2.75      0.84
    1    5    2      1.25      2.15
   -1    5    2     -1.80      8.08
   -3    5    2     -5.94      2.37
   -5    5    2      0.16      4.73
   -7    5    2     -5.24      7.75
   -9    5    2      5.34     16.59
  -11    5    2      0.24     -0.77
  -13    5    2     -2.25     -3.70
  -15    5    2      2.30      2.63
  -17    5    2     -0.61     -3.27
  -19    5    2      0.76     -0.25
  -21    5    2      2.34      1.74
   20    6    2      0.67     -4.17
   18    6    2     -3.72     -0.58
   16    6    2     -1.59      6.72
   14    6    2      0.74     -1.26
   12    6    2      3.74     -2.04
   10    6    2     -3.97      4.58
    8    6    2     -3.40      6.86
    6    6    2     -4.00     -2.49
    4    6    2     -2.48      5.90
    2    6    2      3.46      1.45
    0    6    2     -4.40      1.39
   -2    6    2      2.65      5.93
   -4    6    2     -1.11      4.61
   -6    6    2     -2.77     -0.50
   -8    6    2      0.98     16.67
  -10    6    2      3.48      6.18
  -12    6    2     -0.46     -2.33
  -14    6    2     -1.90      0.38
  -16    6    2      1.06     -1.95
  -18    6    2     -0.47     -2.48
  -20    6    2      0.53     -0.23
  -22    6    2      0.83      2.82
   19    7    2     -0.56     -5.20
   17    7    2     -1.67      1.93
   15    7    2     -0.01      4.34
   13    7    2      0.47     -2.52
   11    7    2      1.47     -0.93
    9    7    2     -3.90      7.51
    7    7    2      1.67      0.28
    5    7    2     -5.43      0.34
    3    7    2      1.88      6.23
    1    7    2     -0.23     -4.77
   -1    7    2     -0.67      3.30
   -3    7    2      4.12      3.96
   -5    7    2      1.94     -1.16
   -7    7    2     -5.07      5.79
   -9    7    2      5.86      3.96
  -11    7    2     -0.44      4.63
  -13    7    2     -1.82     -1.83
  -15    7    2      0.51      0.48
  -17    7    2     -1.07     -0.27
  -19    7    2      0.29     -2.79
  -21    7    2     -1.22      2.07
   18    8    2      0.84     -4.20
   16    8    2     -0.60      2.24
   14    8    2     -0.71     -0.27
   12    8    2      0.42     -0.50
   10    8    2     -0.61      1.55
    8    8    2      1.80      4.19
    6    8    2      0.77     -2.55
    4    8    2     -2.69      3.89
    2    8    2      0.18     -0.63
    0    8    2     -0.80     -2.33
   -2    8    2      2.17      0.55
   -4    8    2      4.90      1.95
   -6    8    2     -3.43     -0.72
   -8    8    2      3.04     -0.45
  -10    8    2     -1.38     -0.98
  -12    8    2      0.61      2.58
  -14    8    2     -1.30      0.47
  -16    8    2      0.37      0.73
  -18    8    2      0.53      1.21
  -20    8    2     -3.19     -1.59
   19    9    2      0.18     -1.98
   17    9    2      0.38     -3.71
   15    9    2     -0.23      1.33
   13    9    2     -2.13      0.68
   11    9    2      0.70      0.89
    9    9    2      1.09      2.51
    7    9    2      2.97     -0.08
    5    9    2     -0.06     -0.03
    3    9    2     -1.09      1.04
    1    9    2     -1.79     -0.01
   -1    9    2      1.44     -1.82
   -3    9    2      1.16      0.21
   -5    9    2      1.15      0.18
   -7    9    2     -0.05     -1.10
   -9    9    2     -0.04     -6.29
  -11    9    2     -0.35      1.27
  -13    9    2     -0.95      0.16
  -15    9    2      1.57      0.41
  -17    9    2     -0.42      2.53
  -19    9    2     -1.23     -1.36
  -21    9    2     -0.54     -0.30
   18   10    2     -0.13     -2.18
   16   10    2     -0.93     -0.92
   14   10    2     -0.91      2.36
   12   10    2     -0.21      0.63
   10   10    2      0.84      2.39
    8   10    2      1.10     -0.05
    6   10    2      2.40     -0.14
    4   10    2     -1.23      0.84
    2   10    2     -0.63     -0.92
    0   10    2     -0.56      2.50
   -2   10    2     -0.87     -1.81
   -4   10    2      0.67     -0.97
   -6   10    2      0.63      1.82
   -8   10    2     -0.49     -3.32
  -10   10    2      0.30     -0.80
  -12   10    2     -0.36     -0.11
  -14   10    2      0.55     -0.56
  -16   10    2     -0.21     -0.97
  -18   10    2      0.36      0.77
  -20   10    2     -0.44     -1.16
   17   11    2     -0.69     -0.96
   15   11    2     -1.08      2.93
   13   11    2      0.71      0.80
   11   11    2     -0.26     -0.58
    9   11    2      2.48     -0.08
    7   11    2     -1.19      0.59
    5   11    2      0.13     -1.47
    3   11    2     -0.95      0.53
    1   11    2     -1.04     -0.96
   -1   11    2     -1.18      1.93
   -3   11    2     -1.61     -3.07
   -5   11    2     -0.11      1.37
   -7   11    2      1.36      2.79
   -9   11    2     -0.63      2.75
  -11   11    2     -0.13      1.65
  -13   11    2     -0.46     -0.92
  -15   11    2      0.63     -3.21
  -17   11    2     -0.32      0.20
  -19   11    2      1.48     -1.00
   16   12    2     -1.11      1.48
   14   12    2      0.57      2.20
   12   12    2      0.23     -3.45
   10   12    2      1.99     -0.29
    8   12    2     -0.79     -4.48
    6   12    2     -0.09      2.15
    4   12    2     -3.92     -2.12
    2   12    2      0.64     -2.15
    0   12    2     -1.25     -0.23
   -2   12    2     -2.44     -1.78
   -4   12    2     -1.94     -1.42
   -6   12    2      1.23      4.55
   -8   12    2      1.17      5.77
  -10   12    2     -1.69      5.71
  -12   12    2     -2.08      0.23
  -14   12    2      0.82     -2.64
  -16   12    2      0.11     -1.00
  -18   12    2      1.72      0.10
   15   13    2     -0.56      1.43
   13   13    2      1.46     -1.75
   11   13    2     -1.90     -2.24
    9   13    2      3.54     -5.53
    7   13    2     -3.15     -1.44
    5   13    2     -0.56      0.24
    3   13    2     -2.82     -1.94
    1   13    2      1.57     -3.09
   -1   13    2     -1.05     -2.30
   -3   13    2     -3.42      0.24
   -5   13    2     -0.95     -0.45
   -7   13    2      2.65      4.48
   -9   13    2     -0.92      6.36
  -11   13    2     -3.23      1.01
  -13   13    2     -1.26     -1.84
  -15   13    2      1.28     -0.34
  -17   13    2      1.13      0.60
   14   14    2      0.88     -0.51
   12   14    2     -0.49     -1.90
   10   14    2     -1.66     -1.78
    8   14    2      0.67     -7.77
    6   14    2     -1.08      1.78
    4   14    2     -1.03     -0.39
    2   14    2      0.68     -1.28
    0   14    2      1.71     -2.76
   -2   14    2     -2.75      0.74
   -4   14    2     -0.83      0.73
   -6   14    2     -0.92     -2.28
   -8   14    2      1.45      1.68
  -10   14    2     -1.42      0.73
  -12   14    2     -2.42     -3.45
  -14   14    2      0.41      0.45
   11   15    2     -2.89     -1.02
    9   15    2     -1.24     -3.66
    7   15    2     -0.45     -4.18
    5   15    2      0.59      1.75
    3   15    2      0.31      1.71
    1   15    2      0.34      0.49
   -1   15    2      0.06      0.11
   -3   15    2     -0.73      2.76
   -5   15    2     -1.07     -2.37
   -7   15    2     -0.47     -3.12
   -9   15    2      0.09     -3.32
  -11   15    2     -0.01     -3.94
  -13   15    2     -0.59     -0.54
   10   16    2     -2.78     -1.18
    8   16    2     -1.16     -2.71
    6   16    2      0.52     -2.15
    4   16    2      0.50      3.32
    2   16    2     -1.50      3.99
    0   16    2     -1.75      2.73
   -2   16    2      0.90     -0.31
   -4   16    2      0.05      0.90
   -6   16    2     -1.02     -0.52
   -8   16    2     -0.24     -5.74
  -10   16    2      0.32     -4.66
  -12   16    2      0.23     -0.91
    7   17    2      0.03     -1.26
    5   17    2     -0.35     -0.40
    3   17    2     -1.24      5.05
    1   17    2     -3.93      4.38
   -1   17    2     -0.33      0.41
   -3   17    2      0.56     -2.27
   -5   17    2      0.75      2.77
   -7   17    2      0.22     -0.56
   -9   17    2     -0.88     -4.93
    2   18    2     -2.42      3.72
    0   18    2     -2.42      1.47
   -2   18    2      0.13     -2.36
   -4   18    2      0.89      0.21
   22    0    1      3.68      1.98
   20    0    1      4.84      0.95
   18    0    1      0.77      3.40
   16    0    1      4.56     -0.76
   14    0    1     -3.79     -3.02
   12    0    1      2.07      0.91
   10    0    1      0.44      5.46
    8    0    1     -4.09      4.88
    6    0    1      8.98     15.28
    4    0    1     16.26     12.83
    2    0    1     24.51     -3.94
   -4    0    1     11.70    -40.32
   -6    0    1      1.35    -13.03
  -10    0    1     26.04    -14.89
  -12    0    1     -0.68      4.98
  -14    0    1     -0.72     -3.78
  -16    0    1      1.03      2.78
  -18    0    1     -8.16      3.40
  -20    0    1      5.75     -0.24
  -22    0    1     -3.22     -1.68
  -24    0    1     -0.06      1.84
   23    1    1      0.16     -0.71
   21    1    1      6.26      1.96
   19    1    1     -0.73      1.88
   17    1    1      5.07      1.72
   15    1    1     -0.14     -2.41
   13    1    1     -3.14     -2.02
   11    1    1      4.62      3.06
    9    1    1     -5.48      3.80
    7    1    1      1.29      2.49
    5    1    1     16.94     16.89
    3    1    1      6.39     -0.23
    1    1    1     21.80    -26.62
   -1    1    1    -36.86     46.32
   -3    1    1     44.91     -1.93
   -5    1    1    -10.92     -9.88
   -7    1    1      0.74    -12.64
   -9    1    1     32.75     -6.87
  -11    1    1      1.80     -0.70
  -13    1    1     -0.72     -1.98
  -15    1    1      2.10      1.65
  -17    1    1     -5.17      1.90
  -19    1    1     -0.69      2.88
  -21    1    1      2.87     -3.40
  -23    1    1     -2.37      2.66
   22    2    1      3.00      1.79
   20    2    1     -0.18     -0.47
   18    2    1      1.02      3.07
   16    2    1      4.43     -2.25
   14    2    1     -3.58     -0.91
   12    2    1     -1.24     -0.56
   10    2    1      1.61     -0.56
    8    2    1     -2.79     -0.10
    6    2    1     -0.18      0.90
    4    2    1     16.99     -8.88
    2    2    1      9.04      2.79
    0    2    1     -1.69     -7.66
   -2    2    1     16.60     22.47
   -4    2    1    -14.09    -11.36
   -6    2    1     -1.69     -2.39
  -10    2    1      9.23     -7.12
  -12    2    1     -1.39      4.00
  -14    2    1     -1.06     -0.18
  -16    2    1     -0.09      0.38
  -18    2    1     -2.39      1.56
  -20    2    1      3.81     -0.98
  -22    2    1     -1.66      0.77
  -24    2    1      1.56      1.27
   21    3    1      1.95      0.95
   19    3    1     -4.55      0.37
   17    3    1      4.68     -0.83
   15    3    1     -1.45     -0.39
   13    3    1     -2.77     -1.28
   11    3    1     -1.29     -0.05
    9    3    1     -0.06     -2.49
    7    3    1     -2.78     -8.45
    5    3    1      1.03     -4.37
    3    3    1      9.06    -16.63
    1    3    1     15.16     15.65
   -1    3    1      3.41      2.70
   -3    3    1     -2.78    -13.79
   -5    3    1    -15.36     13.46
   -7    3    1     -8.99     -5.24
   -9    3    1      6.26      2.75
  -11    3    1     -6.22      3.71
  -13    3    1      0.11     -0.84
  -15    3    1     -0.01      0.43
  -17    3    1     -1.71     -0.92
  -19    3    1      4.87     -0.68
  -21    3    1     -0.77     -0.81
  -23    3    1      0.51      1.62
   22    4    1      2.31      1.39
   20    4    1     -1.10      0.26
   18    4    1     -2.09     -0.23
   16    4    1      1.42     -2.00
   14    4    1     -1.19      2.13
   12    4    1     -4.33     -2.13
   10    4    1      0.58      0.28
    8    4    1      2.54     -3.72
    6    4    1    -12.24    -11.19
    4    4    1     10.71     -7.42
    2    4    1      4.12      6.56
    0    4    1     10.27     10.33
   -2    4    1      2.53     -3.55
   -4    4    1    -17.30     -2.95
   -6    4    1     -4.94      1.45
   -8    4    1     -2.43      7.89
  -10    4    1     -5.96      1.83
  -12    4    1     -0.33      2.32
  -14    4    1      0.85     -0.80
  -16    4    1     -3.36     -1.90
  -18    4    1      4.08     -1.09
  -20    4    1      3.47     -1.34
  -22    4    1     -2.46      0.38
   21    5    1      2.49      2.47
   19    5    1     -1.73     -1.07
   17    5    1      0.43     -0.49
   15    5    1     -0.29      0.69
   13    5    1     -0.47     -0.80
   11    5    1     -2.18      0.64
    9    5    1      2.51      0.21
    7    5    1     -0.61     -7.68
    5    5    1     -5.97      0.77
    3    5    1      3.90     -1.65
    1    5    1      6.20     13.06
   -1    5    1     -1.64      6.10
   -3    5    1      0.35     -7.75
   -5    5    1     -6.49      1.89
   -7    5    1     -1.43      3.49
   -9    5    1     -1.26      1.96
  -11    5    1     -5.74      2.23
  -13    5    1      4.56     -1.39
  -15    5    1     -1.19     -0.38
  -17    5    1     -2.21     -1.43
  -19    5    1      5.18     -0.61
  -21    5    1      0.62     -0.13
  -23    5    1     -2.28     -1.38
   20    6    1      2.78     -0.06
   18    6    1     -1.46      0.11
   16    6    1      2.69     -0.92
   14    6    1      0.15      1.07
   12    6    1     -0.28     -2.18
   10    6    1      2.09      0.97
    8    6    1      0.92     -1.09
    6    6    1     -0.63     -1.12
    4    6    1     -0.91      3.42
    2    6    1     -4.71      8.25
    0    6    1      2.25      0.39
   -2    6    1      4.28      2.42
   -4    6    1     -3.64     -4.27
   -6    6    1      3.50      5.04
   -8    6    1     -0.70      0.28
  -10    6    1     -4.39     -4.81
  -12    6    1      2.36      0.65
  -14    6    1      3.02      0.06
  -16    6    1     -1.41     -0.81
  -18    6    1     -1.01     -0.12
  -20    6    1      4.53      1.03
  -22    6    1     -0.93     -0.85
   21    7    1      0.78     -0.23
   19    7    1     -1.20     -2.15
   17    7    1      3.22      0.99
   15    7    1      0.19     -0.21
   13    7    1      1.75     -1.69
   11    7    1      1.86     -0.97
    9    7    1      0.67     -0.22
    7    7    1      1.11      0.23
    5    7    1      2.50      2.68
    3    7    1     -8.11      3.36
    1    7    1      1.09      1.43
   -1    7    1      2.42     -2.35
   -3    7    1      2.69     -3.69
   -5    7    1      0.53      7.11
   -7    7    1      1.18     -0.81
   -9    7    1      1.19     -4.32
  -11    7    1     -1.73     -3.55
  -13    7    1      2.93      0.55
  -15    7    1      3.48      0.20
  -17    7    1     -2.46     -1.67
  -19    7    1      2.10      2.29
  -21    7    1      2.07     -0.56
   20    8    1     -1.47     -3.37
   18    8    1     -1.77      1.33
   16    8    1      1.63     -1.06
   14    8    1      0.64      1.38
   12    8    1      1.84     -2.94
   10    8    1      2.37      0.37
    8    8    1      0.84      1.17
    6    8    1      1.05      0.47
    4    8    1     -0.36      0.47
    2    8    1     -2.03      0.52
    0    8    1      2.65     -4.39
   -2    8    1      2.69     -1.02
   -4    8    1     -2.12      2.25
   -6    8    1      2.71     -0.87
   -8    8    1      2.33      1.05
  -10    8    1      3.96     -4.71
  -12    8    1     -1.69      0.27
  -14    8    1      2.35     -0.59
  -16    8    1      2.83     -3.29
  -18    8    1     -0.77      2.61
  -20    8    1      1.96     -1.76
   19    9    1     -6.11     -1.39
   17    9    1      0.34      1.31
   15    9    1     -1.72      1.74
   13    9    1      0.64     -0.87
   11    9    1      3.22     -0.47
    9    9    1      3.64      3.75
    7    9    1      1.30      0.23
    5    9    1     -0.77     -0.64
    3    9    1      0.80     -2.50
    1    9    1      4.08     -3.76
   -1    9    1     -0.03      0.84
   -3    9    1     -2.86      0.75
   -5    9    1      1.64     -2.37
   -7    9    1      1.65     -1.20
   -9    9    1      9.53      1.51
  -11    9    1     -0.32     -0.88
  -13    9    1     -1.31     -1.19
  -15    9    1      2.69     -2.42
  -17    9    1     -0.37     -0.37
  -19    9    1      1.87     -0.87
  -21    9    1     -1.00     -1.59
   18   10    1     -5.56      2.51
   16   10    1     -0.72      0.21
   14   10    1     -2.08      1.45
   12   10    1      0.12      0.22
   10   10    1      5.76      2.70
    8   10    1      5.13      3.86
    6   10    1     -0.62     -0.50
    4   10    1     -1.82     -4.00
    2   10    1      2.58     -2.51
    0   10    1      2.28     -1.04
   -2   10    1     -3.64      2.64
   -4   10    1     -1.09     -1.03
   -6   10    1      2.46     -3.28
   -8   10    1      6.16      1.25
  -10   10    1      6.01     -0.70
  -12   10    1     -0.43     -0.25
  -14   10    1     -2.14     -1.71
  -16   10    1      0.84     -1.25
  -18   10    1      0.25     -0.12
  -20   10    1     -1.30     -3.36
   17   11    1     -2.11      1.45
   15   11    1     -1.38     -0.30
   13   11    1     -4.22      0.57
   11   11    1      3.16      1.36
    9   11    1      6.32      4.92
    7   11    1      1.40      0.07
    5   11    1     -0.20     -2.26
    3   11    1     -5.60     -2.57
    1   11    1      2.50     -0.69
   -1   11    1     -2.15      2.05
   -3   11    1     -1.75      0.52
   -5   11    1      1.83      0.03
   -7   11    1      1.48     -0.55
   -9   11    1      5.03     -1.49
  -11   11    1      3.98     -0.81
  -13   11    1     -1.75     -1.26
  -15   11    1     -1.68      1.29
  -17   11    1     -0.69     -1.40
  -19   11    1      0.01     -2.78
   16   12    1     -0.72     -0.96
   14   12    1     -2.74     -1.25
   12   12    1     -1.95      1.10
   10   12    1      1.58      2.23
    8   12    1      4.63      0.46
    6   12    1     -1.46     -0.44
    4   12    1     -2.69     -3.09
    2   12    1     -4.37      1.59
    0   12    1     -2.98      0.78
   -2   12    1      0.10      2.54
   -4   12    1      0.84      0.34
   -6   12    1     -0.18      0.26
   -8   12    1     -0.65     -0.50
  -10   12    1      4.10     -1.76
  -12   12    1      1.65     -0.33
  -14   12    1     -2.95      1.00
  -16   12    1     -0.68     -0.11
  -18   12    1     -0.09     -1.76
   15   13    1     -0.81     -1.16
   13   13    1     -2.38     -0.63
   11   13    1     -1.66     -0.55
    9   13    1      1.21      1.97
    7   13    1      0.34     -3.11
    5   13    1     -1.03      0.89
    3   13    1     -2.80     -0.70
    1   13    1     -4.72      1.83
   -1   13    1     -2.37      3.97
   -3   13    1      1.88     -0.68
   -5   13    1     -0.37     -0.85
   -7   13    1     -2.45     -0.81
   -9   13    1      1.16      0.56
  -11   13    1     -0.08     -0.05
  -13   13    1      0.14      0.44
  -15   13    1     -2.03      0.65
  -17   13    1     -0.17     -1.13
   14   14    1     -0.24     -1.33
   12   14    1     -1.81     -0.48
   10   14    1     -2.21     -0.82
    8   14    1      2.52     -0.76
    6   14    1     -2.74      0.34
    4   14    1      1.09      0.30
    2   14    1     -1.52      0.79
    0   14    1     -3.59      3.07
   -2   14    1      1.90      0.20
   -4   14    1     -1.28     -1.43
   -6   14    1     -0.05     -3.45
   -8   14    1      1.64      1.12
  -10   14    1     -2.21     -0.04
  -12   14    1     -1.08      1.64
  -14   14    1     -0.58     -0.49
  -16   14    1     -0.69     -0.17
   13   15    1     -1.38     -1.74
   11   15    1     -1.29     -0.49
    9   15    1      1.40     -0.68
    7   15    1     -1.39      0.37
    5   15    1     -1.19      1.92
    3   15    1      2.45     -0.14
    1   15    1      0.63      1.24
   -1   15    1      0.58      0.65
   -3   15    1      0.10     -1.31
   -5   15    1      1.15     -0.89
   -7   15    1      3.34     -1.56
   -9   15    1      1.90     -0.91
  -11   15    1     -3.72      0.82
  -13   15    1     -0.10      0.33
   10   16    1      2.22      0.13
    8   16    1     -0.68     -0.76
    6   16    1     -3.36      2.51
    4   16    1      1.41      0.22
    2   16    1      4.34      0.55
    0   16    1      1.28     -1.49
   -2   16    1      1.69      0.88
   -4   16    1      2.00      2.03
   -6   16    1      3.96     -0.26
   -8   16    1      4.42     -1.59
  -10   16    1     -0.08     -1.67
  -12   16    1     -1.46      0.70
    9   17    1      2.28     -0.90
    7   17    1     -4.52      1.30
    5   17    1     -0.57      0.44
    3   17    1      2.78      0.20
    1   17    1      3.93     -2.05
   -1   17    1      0.03      0.67
   -3   17    1      3.35      3.13
   -5   17    1      4.14      3.01
   -7   17    1      2.92     -0.37
   -9   17    1      2.35     -2.68
    6   18    1     -1.64      1.12
    4   18    1      0.36     -0.83
    2   18    1      2.28     -0.57
    0   18    1      0.88     -1.08
   -2   18    1      1.56      2.54
   -4   18    1      2.80      3.24
   -6   18    1      2.29      1.26
   22    0    0      1.70     -0.88
   20    0    0      0.60      0.31
   18    0    0      0.45      2.09
   16    0    0     -2.23     -3.37
   14    0    0      1.75      0.03
   12    0    0     -2.03      3.24
   10    0    0      2.11     -4.24
    8    0    0     -3.04     -3.27
    6    0    0     -0.14     -7.59
    4    0    0    -28.60    -67.35
    2    0    0     39.68     -0.68
   23    1    0     -0.90      1.13
   21    1    0      1.57     -1.41
   19    1    0      0.01      2.12
   17    1    0     -1.39     -1.52
   15    1    0      0.15     -1.62
   13    1    0      1.61     -0.32
   11    1    0     -0.06      5.35
    9    1    0     -5.17    -12.52
    7    1    0      7.43     -3.92
    5    1    0    -18.57    -14.86
    3    1    0    -30.80    -75.22
    1    1    0    220.58     68.90
   22    2    0     -2.45      2.30
   20    2    0     -0.32     -2.61
   18    2    0     -1.30      0.64
   16    2    0     -0.50      0.97
   14    2    0      2.59     -2.31
   12    2    0      0.48      2.03
   10    2    0      0.60     -1.97
    8    2    0     -4.14    -10.73
    6    2    0     -5.41    -11.05
    4    2    0     -8.70    -16.44
    2    2    0      4.89     -0.92
    0    2    0    179.00     -0.07
   23    3    0     -4.02      1.47
   21    3    0     -3.86     -1.19
   19    3    0     -1.89     -2.98
   17    3    0     -1.45      7.09
   15    3    0      0.85     -0.49
   13    3    0      3.74     -2.31
   11    3    0      0.49      4.85
    9    3    0     -2.48     -9.14
    7    3    0      1.85     -9.84
    5    3    0    -11.89      4.05
    3    3    0     -2.57     -9.19
    1    3    0      7.50     26.02
   22    4    0     -6.16     -1.91
   20    4    0     -4.41     -3.66
   18    4    0     -1.83      5.22
   16    4    0      0.63      8.05
   14    4    0     -0.16     -2.28
   12    4    0      2.23     -0.89
   10    4    0      3.38      2.39
    8    4    0     -1.85     -4.40
    6    4    0     -1.01     -8.04
    4    4    0      2.60     13.13
    2    4    0    -27.67      3.61
    0    4    0    -22.55      1.49
   21    5    0     -6.32     -5.44
   19    5    0     -1.72      3.00
   17    5    0     -0.36      8.10
   15    5    0     -0.69      2.67
   13    5    0     -0.03     -2.17
   11    5    0      0.82      1.54
    9    5    0      3.94     -0.03
    7    5    0      2.56     -4.00
    5    5    0     -2.58      3.14
    3    5    0     -0.52     -1.74
    1    5    0    -24.36      9.56
   22    6    0     -1.91     -5.69
   20    6    0     -3.90      0.91
   18    6    0      0.57      3.75
   16    6    0     -0.39      2.62
   14    6    0     -1.67      1.66
   12    6    0     -1.54     -2.64
   10    6    0      2.07      3.14
    8    6    0      3.89     -2.38
    6    6    0     -1.75     -5.43
    4    6    0      7.46      4.62
    2    6    0     -7.80     -5.80
    0    6    0      1.11     -2.57
   21    7    0     -2.57     -1.55
   19    7    0     -0.19      2.78
   17    7    0     -0.17     -0.50
   15    7    0     -1.72     -0.37
   13    7    0     -0.11      1.43
   11    7    0     -2.71      0.07
    9    7    0      1.49      2.14
    7    7    0      2.51     -6.13
    5    7    0     -0.81      1.27
    3    7    0      8.44     -3.88
    1    7    0      4.14      0.45
   20    8    0     -0.72      2.55
   18    8    0     -1.53      0.24
   16    8    0      0.45     -3.33
   14    8    0     -1.32      1.56
   12    8    0      0.40      0.80
   10    8    0     -2.32      2.53
    8    8    0     -0.01      2.74
    6    8    0      1.34     -6.07
    4    8    0      2.49      1.89
    2    8    0      3.65      1.48
    0    8    0      9.68     -1.02
   19    9    0     -0.57      1.30
   17    9    0      0.00      1.07
   15    9    0     -1.29     -2.90
   13    9    0      1.56      1.10
   11    9    0      0.39      2.00
    9    9    0     -3.26      3.70
    7    9    0      1.65      2.13
    5    9    0     -1.08     -4.53
    3    9    0     -0.35      2.45
    1    9    0      6.25      5.40
   20   10    0      0.07      2.46
   18   10    0     -1.23      3.12
   16   10    0      0.71     -0.61
   14   10    0     -0.64     -0.54
   12   10    0      0.97     -1.44
   10   10    0      1.62      1.38
    8   10    0     -2.73      3.02
    6   10    0      0.12     -0.61
    4   10    0     -2.05     -1.43
    2   10    0      0.21      1.15
    0   10    0      8.71      1.96
   19   11    0      0.24      3.15
   17   11    0     -0.06      3.39
   15   11    0     -1.34     -0.86
   13   11    0     -0.43     -3.11
   11   11    0      1.71     -2.04
    9   11    0      1.31     -2.37
    7   11    0     -2.44     -0.23
    5   11    0     -0.13      1.77
    3   11    0     -1.19     -4.25
    1   11    0      4.08     -0.70
   18   12    0     -0.75      4.05
   16   12    0     -0.38      0.33
   14   12    0     -1.43     -2.13
   12   12    0     -2.12     -2.89
   10   12    0      3.50     -5.84
    8   12    0     -0.24     -5.68
    6   12    0     -1.05      1.43
    4   12    0      0.90     -0.68
    2   12    0     -1.59     -4.40
    0   12    0      6.29     -0.77
   17   13    0     -0.11      2.44
   15   13    0     -0.81     -2.08
   13   13    0     -2.95     -2.18
   11   13    0     -0.25     -1.17
    9   13    0      1.48    -11.36
    7   13    0      0.43     -3.39
    5   13    0      0.28      1.26
    3   13    0     -1.75     -2.78
    1   13    0      1.57      0.08
   14   14    0     -0.51     -1.91
   12   14    0     -3.92      2.37
   10   14    0      1.15     -5.86
    8   14    0     -0.19     -9.88
    6   14    0      1.44     -0.77
    4   14    0     -0.91     -0.13
    2   14    0     -1.14      0.18
    0   14    0      2.13      0.37
   16   14    0      0.01     -0.58
   13   15    0     -1.12      0.96
   11   15    0     -2.05      2.06
    9   15    0      0.43     -8.18
    7   15    0      0.69     -3.85
    5   15    0      0.39     -0.30
    3   15    0      0.29      0.03
    1   15    0      0.12      2.36
   12   16    0     -1.11      1.62
   10   16    0     -0.50     -0.92
    8   16    0      1.11     -3.93
    6   16    0      1.07     -0.51
    4   16    0      0.60     -0.56
    2   16    0     -0.59      1.29
    0   16    0      3.29     -0.01
    9   17    0      1.50     -0.03
    7   17    0      1.15     -0.65
    5   17    0      1.14      0.05
    3   17    0     -1.90     -0.81
    1   17    0      2.04      1.61
    6   18    0      0.93      0.90
    4   18    0     -0.74     -0.58
    2   18    0     -1.92      0.19
    0   18    0      2.51     -1.71
   -8    0    1     20.30     -1.52
   -2    0    1     25.90     81.95
   -8    2    1      3.51     -0.91
   22    6    1     -0.27      0.77
  -24    0    2      0.30     -1.40
   -8    0    2      4.80      3.99
   -8    4    2      0.79     15.18
  -23    5    2      0.63      0.47
   20    8    2      0.21     -1.94
    4   18    2     -1.29      1.71
  -22    0    3     -0.18      3.96
  -20    0    3      2.17      2.71
  -18    0    3      2.11      2.88
  -10    0    3     -7.12      2.13
   -6    0    3     -0.27      0.15
   -4    0    3      2.55      1.93
  -23    1    3      0.94      2.94
  -21    1    3     -0.06      2.97
  -19    1    3      0.33      3.45
   21    1    3      2.75     -2.96
  -22    2    3      1.61      2.43
  -20    2    3     -3.00      4.51
  -23    3    3      2.55     -0.33
  -21    3    3     -0.56      3.20
  -22    6    3      1.31     -1.82
    5   17    3     -0.80     -1.37
  -22    0    4      5.46      3.75
  -20    0    4     -0.37     -7.08
  -18    0    4     -1.62      2.28
  -16    0    4     -1.59      1.85
  -14    0    4     -0.56     -2.51
  -12    0    4      0.11      1.84
  -10    0    4      1.64     -1.73
   -8    0    4      3.14     -2.37
  -21    1    4      0.27     -0.69
  -19    1    4      1.46     -2.73
  -17    1    4     -3.55      3.24
  -15    1    4     -0.58     -1.51
  -13    1    4      1.31      0.40
  -11    1    4     -0.05     -0.28
   -9    1    4     -1.77     -3.37
  -22    2    4      0.98      1.19
  -20    2    4      0.17     -3.90
  -18    2    4     -1.81      5.30
  -16    2    4     -0.87     -1.28
  -14    2    4      1.42     -1.81
  -12    2    4     -0.51      2.10
   19    3    4     -1.83     -1.10
   -8    4    4    -15.02    -10.67
   18    6    4      4.01     -3.10
  -21    7    4      1.06      1.36
  -20    0    5     -1.48      3.94
  -18    0    5     -3.63      5.01
  -16    0    5     -0.18      2.36
  -14    0    5      1.24     -0.62
  -12    0    5     -1.38      0.45
  -10    0    5     -0.47      1.05
  -21    1    5      1.34      2.52
  -19    1    5     -2.34      2.45
  -17    1    5     -2.37      4.23
  -15    1    5      1.91      0.41
   -1    5    5     -2.69      0.01
  -20    0    6     -0.03     -0.81
   -8    4    6     -4.46    -10.57
  -13   11    6     -0.69     -0.88
    3   13    6      0.32     -0.11
   11    1    7     -1.32     -0.72
  -17    3    7      0.40      1.21
  -13    1    8     -0.49     -0.47
   24    0    0     -0.62      0.24
   23    5    0     -2.10     -2.53
   21    9    0     -1.46      1.72
    8   18    0      1.65     -0.31
    0    0    1    -36.07    -25.06
   23    3    1      1.69     -0.12
  -22    8    1      0.64      0.21
   19   11    1     -3.78      1.50
   18   12    1     -2.21      1.63
  -15   15    1     -0.37     -0.23
   12   16    1     -2.16     -1.06
  -11   17    1      0.40     -0.12
   -8   18    1      1.24     -1.55
  -24    2    2      1.22      0.00
   22    4    2      2.22      1.10
  -22    8    2      1.01      0.61
  -16   14    2      1.01      0.47
   -6   18    2      1.17      2.21
   21    3    3      0.75      1.33
  -23    5    3      1.00     -1.58
   20    6    3      0.15     -1.45
  -20   10    3     -0.91      0.40
  -19   11    3      0.62      0.29
  -18   12    3      1.26      1.26
   11   15    3     -0.33      0.87
  -23    1    4      3.29      1.11
   10   14    4      1.41     -1.56
   -3   17    4      1.47      1.76
   -1   17    4      0.15      4.33
  -22    0    5      1.35      0.34
   17    3    5      0.84      0.14
  -21    5    5      0.01     -1.43
   16    6    5      0.80     -0.04
  -13   13    5     -2.20      1.71
    9   13    5     -0.71     -1.18
   -7   15    5      1.04     -1.59
    3   15    5     -0.17      0.37
   15    1    6     -0.16      0.21
  -20    2    6      0.26     -0.06
   14    4    6     -1.31      0.04
  -19    5    6      1.42     -1.18
   11    9    6      2.89      0.42
    6   12    6     -0.90     -2.83
   -9   13    6     -0.38     -1.67
   -4   14    6      1.23     -0.27
   -2   14    6     -0.24     -1.23
   11    3    7     -1.57     -0.96
  -10   10    7     -5.73     -0.93
    4   10    7      0.65     -0.85
   -7   11    7      2.67      0.02
    1   11    7     -0.38     -0.18
    6    0    8     -0.49      0.59
    6    2    8     -0.19      0.65
  -13    3    8      0.40     -1.09
  -12    4    8      0.71     -1.25
  -11    5    8     -3.03      0.49
  -10    6    8     -4.49      0.70
   -7    7    8      0.56      1.98
    1    7    8     -1.09     -1.79
   -4    8    8      0.34     -0.79
   -2    8    8      0.94     -0.71
    0    0    0      0.00      0.00
# SQUEEZE RESULTS (Version =  21116)
# Note: Data are Listed for all Voids in the P1 Unit Cell
# i.e. Centre of Gravity, Solvent Accessible Volume,
# Recovered number of Electrons in the Void and
# Details about the Squeezed Material
loop_
  _platon_squeeze_void_nr
  _platon_squeeze_void_average_x
  _platon_squeeze_void_average_y
  _platon_squeeze_void_average_z
  _platon_squeeze_void_volume
  _platon_squeeze_void_count_electrons
  _platon_squeeze_void_content
   1  0.046  0.000 -0.010       327       206 ' '
   2  0.546  0.500 -0.027       327       206 ' '
# Missing Reflections Below sin(th)/lambda = 0.25
loop_
  _platon_missing_refln_index_h
  _platon_missing_refln_index_k
  _platon_missing_refln_index_l
  _platon_missing_refln_theta
    0    0    1     3.097
_platon_squeeze_void_probe_radius                  1.20
_platon_squeeze_details
)
TITL 11        C 1 m 1      R = 0.07
CELL   18.3000   14.3500    6.6610     90.00     99.09     90.00
SPGR Cm
# Solvent Accessible Volume =       659
# Electrons Found in S.A.V. =       412
# Note: Atoms in Void as Cxxx and Qxxx all others
C101 0.805 0.496 0.781 !       3.85 eA-3
C102 0.672 0.500 0.343 !       3.23 eA-3
C103 0.515 0.501 0.187 !       2.57 eA-3
C104 0.658 0.391 0.567 !       2.51 eA-3
C105 0.430 0.455 0.252 !       2.33 eA-3
C106 0.437 0.499 0.342 !       2.31 eA-3
C107 0.620 0.500 0.125 !       2.25 eA-3
C108 0.688 0.497 0.718 !       2.21 eA-3
C109 0.675 0.504 0.501 !       2.09 eA-3
C110 0.748 0.495 0.749 !       2.06 eA-3
C111 0.711 0.504 0.563 !       2.03 eA-3
Q112 0.087 0.115 0.659 !       2.00 eA-3
C113 0.466 0.497 0.123 !       1.98 eA-3
Q114 0.877 0.127 0.833 !       1.98 eA-3
C115 0.406 0.504 0.218 !       1.93 eA-3
C116 0.907 0.090 0.913 !       1.92 eA-3
C117 0.432 0.468 0.000 !       1.91 eA-3
C118 0.481 0.501 0.782 !       1.89 eA-3
C119 0.692 0.440 0.420 !       1.89 eA-3
C120 0.513 0.393-0.018 !       1.87 eA-3
Q121 0.526 0.375 0.044 !       1.86 eA-3
Q122 0.372 0.424 0.005 !       1.85 eA-3
C123 0.612 0.502 0.813 !       1.85 eA-3
C124 0.579 0.500 0.562 !       1.83 eA-3
Q125 0.861 0.077 0.722 !       1.81 eA-3
C126 0.926 0.093 0.310 !       1.80 eA-3
C127 0.197 0.065 0.692 !       1.79 eA-3
C128 0.469 0.498 0.249 !       1.78 eA-3
C129 0.962 0.078 0.502 !       1.78 eA-3
C130 0.399 0.506 0.060 !       1.75 eA-3
C131 0.484 0.495 0.937 !       1.74 eA-3
C132 0.058 0.097 0.555 !       1.74 eA-3
C133 0.637 0.498 0.532 !       1.69 eA-3
C134 0.127 0.046 0.632 !       1.68 eA-3
C135 0.414 0.407 0.166 !       1.67 eA-3
C136 0.463 0.501 0.499 !       1.66 eA-3
C137 0.953 0.062 0.119 !       1.66 eA-3
C138 0.953 0.120 0.707 !       1.66 eA-3
C139 0.449 0.408 0.415 !       1.65 eA-3
C140 0.586 0.436 0.686 !       1.65 eA-3
C141 0.961 0.080 0.685 !       1.64 eA-3
C142 0.917 0.106 0.766 !       1.63 eA-3
C143 0.598 0.437 0.397 !       1.62 eA-3
Q144 0.350 0.502 0.499 !       1.60 eA-3
C145 0.468 0.436 0.809 !       1.58 eA-3
C146 0.924 0.107 0.030 !       1.58 eA-3
C147 0.630 0.442 0.338 !       1.55 eA-3
C148 0.162 0.094 0.727 !       1.53 eA-3
C149 0.482 0.419 0.003 !       1.53 eA-3
C150 0.938 0.127 0.589 !       1.53 eA-3
C151 0.937 0.079 0.625 !       1.52 eA-3
C152 0.584 0.501 0.342 !       1.52 eA-3
C153 0.994 0.064 0.291 !       1.51 eA-3
C154 0.485 0.469 0.658 !       1.49 eA-3
C155 0.443 0.496 0.719 !       1.48 eA-3
Q156 0.738 0.495 0.095 !       1.47 eA-3
C157 0.708 0.497 0.906 !       1.47 eA-3
Q158 0.958 0.139 0.439 !       1.43 eA-3
Q159 0.345 0.500 0.374 !       1.42 eA-3
Q160 0.877 0.053 0.643 !       1.42 eA-3
Q161 0.220 0.172 0.717 !       1.41 eA-3
Q162 0.374 0.433 0.817 !       1.40 eA-3
Q163 0.719 0.501 0.250 !       1.38 eA-3
Q164 0.666 0.362 0.414 !       1.38 eA-3
C165 1.004 0.051 0.909 !       1.37 eA-3
Q166 0.350 0.505 0.876 !       1.32 eA-3
Q167 0.761 0.377 0.559 !       1.32 eA-3
C168 0.425 0.468 0.512 !       1.32 eA-3
C169 0.045 0.105 0.396 !       1.30 eA-3
C170 0.100 0.096 0.241 !       1.29 eA-3
C171 0.552 0.438 0.138 !       1.28 eA-3
Q172 0.350 0.440 0.490 !       1.27 eA-3
C173 0.394 0.467 0.463 !       1.27 eA-3
Q174 0.732 0.439 0.869 !       1.26 eA-3
C175 0.997 0.113 0.226 !       1.25 eA-3
Q176 0.389 0.329 0.728 !       1.24 eA-3
C177 0.560 0.410 0.286 !       1.24 eA-3
Q178 0.374 0.437 0.400 !       1.24 eA-3
Q179 0.664 0.315 0.651 !       1.23 eA-3
Q180 0.344 0.500 0.749 !       1.20 eA-3
Q181 0.808 0.113 0.968 !       1.20 eA-3
C182 0.074 0.031 0.848 !       1.19 eA-3
Q183 0.731 0.386 0.807 !       1.17 eA-3
Q184 0.188 0.058 0.136 !       1.14 eA-3
Q185 0.391 0.424 0.589 !       1.14 eA-3
C186 0.640 0.474 0.931 !       1.13 eA-3
C187 0.541 0.343 0.242 !       1.13 eA-3
Q188 0.027 0.175 0.175 !       1.11 eA-3
Q189 0.309 0.498 0.218 !       1.11 eA-3
Q190 0.446 0.365 0.933 !       1.11 eA-3
C191 0.029 0.029 0.748 !       1.11 eA-3
C192 0.544 0.468 0.952 !       1.08 eA-3
Q193 0.703 0.441 0.962 !       1.06 eA-3
Q194 0.406 0.315 0.192 !       1.06 eA-3
Q195 0.612 0.372 0.853 !       1.05 eA-3
Q196 0.778 0.494 0.282 !       1.02 eA-3
C197 0.602 0.425 0.968 !       1.01 eA-3
Q198 0.812 0.503 0.563 !       1.00 eA-3
Q199 0.678 0.296 0.465 !       1.00 eA-3
)
;
_shelx_fab_checksum              45760
_olex2_submission_special_instructions 'No special instructions were received'
loop_
_space_group_symop_operation_xyz
'x, y, z'
'x, -y, z'
'x+1/2, y+1/2, z'
'x+1/2, -y+1/2, z'
loop_
_atom_site_label
_atom_site_type_symbol
_atom_site_fract_x
_atom_site_fract_y
_atom_site_fract_z
_atom_site_U_iso_or_equiv
_atom_site_adp_type
_atom_site_occupancy
_atom_site_site_symmetry_order
_atom_site_calc_flag
_atom_site_refinement_flags_posn
_atom_site_refinement_flags_adp
_atom_site_refinement_flags_occupancy
Co1 Co 0.00188(11) 0.500000 0.2547(3) 0.0151(2) Uani 1 2 d S TU P
Co2 Co 0.50152(8) 0.10628(4) 0.75229(15) 0.0209(2) Uani 1 1 d . U .
O1 O 0.0863(3) 0.3940(4) 0.2546(10) 0.0238(12) Uani 1 1 d . U .
O2 O 0.1055(4) 0.3770(6) -0.0665(11) 0.047(2) Uani 1 1 d . U .
O3 O 0.3973(3) 0.1174(5) 0.5770(9) 0.0320(15) Uani 1 1 d . U .
O4 O 0.5341(4) 0.000000 0.5667(11) 0.0136(13) Uani 1 2 d S TU P
H4 H 0.577018 0.000000 0.539676 0.016 Uiso 1 2 d RS T P
O5 O 0.4670(4) 0.000000 0.9315(11) 0.0217(15) Uani 1 2 d S TU P
H5 H 0.422447 0.000000 0.949592 0.026 Uiso 1 2 d RS T P
O6 O 0.4557(5) 0.2133(6) 0.9339(11) 0.055(2) Uani 1 1 d . U .
H6A H 0.410352 0.189218 0.941944 0.083 Uiso 1 1 d R . .
H6B H 0.477182 0.208508 1.055514 0.083 Uiso 1 1 d R . .
O7 O 0.5403(5) 0.2122(5) 0.5632(13) 0.054(2) Uani 1 1 d . U .
H7A H 0.527699 0.203745 0.434856 0.081 Uiso 1 1 d R . .
H7B H 0.585239 0.196915 0.541376 0.081 Uiso 1 1 d R . .
O8 O 0.4193(4) 0.1041(4) 0.2532(10) 0.0322(15) Uani 1 1 d . U .
N1 N 0.2341(4) 0.500000 0.3809(12) 0.0269(15) Uani 1 2 d S TU P
C1 C 0.1227(4) 0.3678(6) 0.1167(13) 0.0219(14) Uani 1 1 d . U .
C2 C 0.1888(5) 0.3084(7) 0.1931(12) 0.0266(18) Uani 1 1 d . U .
C3 C 0.2411(5) 0.3293(7) 0.3834(11) 0.0289(16) Uani 1 1 d . U .
C4 C 0.2365(4) 0.4186(5) 0.4898(10) 0.0283(12) Uani 1 1 d . U .
C5 C 0.2389(4) 0.4140(6) 0.7020(11) 0.0350(15) Uani 1 1 d . U .
H5A H 0.239975 0.356158 0.771936 0.042 Uiso 1 1 calc R . .
C6 C 0.2398(6) 0.500000 0.8048(16) 0.035(2) Uani 1 2 d S TU P
H6 H 0.240951 0.500000 0.947895 0.042 Uiso 1 2 calc RS T P
C7 C 0.2963(7) 0.2616(8) 0.4315(17) 0.051(3) Uani 1 1 d . U .
H7 H 0.326874 0.267705 0.560039 0.061 Uiso 1 1 calc R . .
C8 C 0.3108(5) 0.1901(7) 0.3185(14) 0.033(2) Uani 1 1 d D U .
C9 C 0.3817(5) 0.1354(7) 0.3839(12) 0.0289(18) Uani 1 1 d D U .
C10 C 0.2702(6) 0.1779(7) 0.1372(15) 0.044(3) Uani 1 1 d . U .
H10 H 0.285048 0.131059 0.051179 0.053 Uiso 1 1 calc R . .
C11 C 0.2053(5) 0.2312(6) 0.0636(12) 0.0233(15) Uani 1 1 d . U .
H11 H 0.174722 0.217203 -0.061752 0.028 Uiso 1 1 calc R . .
loop_
_atom_site_aniso_label
_atom_site_aniso_U_11
_atom_site_aniso_U_22
_atom_site_aniso_U_33
_atom_site_aniso_U_23
_atom_site_aniso_U_13
_atom_site_aniso_U_12
Co1 0.0112(4) 0.0185(4) 0.0152(4) 0.000 0.0005(3) 0.000
Co2 0.0265(4) 0.0190(3) 0.0167(3) -0.0006(5) 0.0019(3) 0.0019(6)
O1 0.0209(16) 0.0244(17) 0.0253(16) 0.0014(12) 0.0006(12) 0.0045(12)
O2 0.036(4) 0.074(6) 0.031(3) 0.012(3) 0.004(2) 0.029(4)
O3 0.025(2) 0.053(4) 0.019(2) 0.007(2) 0.0054(19) 0.022(3)
O4 0.002(3) 0.019(3) 0.020(3) 0.000 -0.001(2) 0.000
O5 0.023(4) 0.031(4) 0.011(3) 0.000 0.003(3) 0.000
O6 0.093(6) 0.048(4) 0.028(4) -0.007(3) 0.019(4) 0.022(4)
O7 0.098(6) 0.025(3) 0.046(4) -0.009(3) 0.032(4) -0.016(4)
O8 0.032(3) 0.043(3) 0.022(2) 0.004(2) 0.006(2) 0.023(2)
N1 0.012(3) 0.040(3) 0.027(4) 0.000 -0.002(3) 0.000
C1 0.018(3) 0.017(3) 0.030(2) 0.004(2) 0.002(2) 0.005(2)
C2 0.028(3) 0.034(4) 0.017(3) -0.005(3) -0.001(2) 0.019(3)
C3 0.027(3) 0.041(3) 0.017(3) 0.000(2) -0.001(2) 0.010(3)
C4 0.019(3) 0.039(3) 0.027(2) -0.0022(19) 0.002(2) 0.003(2)
C5 0.033(4) 0.044(3) 0.027(2) -0.002(2) 0.004(3) 0.018(3)
C6 0.035(2) 0.037(2) 0.033(2) 0.000 0.0086(14) 0.000
C7 0.049(5) 0.058(5) 0.036(4) -0.013(4) -0.020(4) 0.029(4)
C8 0.026(3) 0.040(4) 0.030(3) 0.004(3) -0.001(3) 0.016(3)
C9 0.027(3) 0.041(5) 0.019(2) 0.002(3) 0.002(2) 0.017(3)
C10 0.042(4) 0.048(5) 0.038(4) -0.017(4) -0.009(3) 0.034(4)
C11 0.026(3) 0.029(3) 0.016(3) -0.003(2) 0.004(2) 0.014(3)
loop_
_atom_type_symbol
_atom_type_description
_atom_type_scat_dispersion_real
_atom_type_scat_dispersion_imag
_atom_type_scat_source
C C 0.0030 0.0020 'International Tables Vol C Tables 4.2.6.8 and 6.1.1.4'
H H 0.0000 0.0000 'International Tables Vol C Tables 4.2.6.8 and 6.1.1.4'
Co Co 0.3490 0.9720 'International Tables Vol C Tables 4.2.6.8 and 6.1.1.4'
N N 0.0060 0.0030 'International Tables Vol C Tables 4.2.6.8 and 6.1.1.4'
O O 0.0110 0.0060 'International Tables Vol C Tables 4.2.6.8 and 6.1.1.4'
loop_
_geom_angle_atom_site_label_1
_geom_angle_atom_site_label_2
_geom_angle_atom_site_label_3
_geom_angle
_geom_angle_site_symmetry_1
_geom_angle_site_symmetry_3
O1 Co1 O1 89.1(3) 2_565 .
O4 Co1 O1 84.8(2) 3_455 2_565
O4 Co1 O1 84.8(2) 3_455 .
O4 Co1 O5 179.3(4) 3_455 3_454
O4 Co1 O8 95.4(2) 3_455 4_455
O4 Co1 O8 95.4(2) 3_455 3_455
O5 Co1 O1 95.6(3) 3_454 .
O5 Co1 O1 95.6(3) 3_454 2_565
O8 Co1 O1 179.7(4) 3_455 .
O8 Co1 O1 90.73(18) 3_455 2_565
O8 Co1 O1 90.73(18) 4_455 .
O8 Co1 O1 179.7(4) 4_455 2_565
O8 Co1 O5 84.1(3) 4_455 3_454
O8 Co1 O5 84.1(3) 3_455 3_454
O8 Co1 O8 89.4(4) 4_455 3_455
O2 Co2 O4 96.0(3) 4_556 .
O2 Co2 O6 89.6(4) 4_556 .
O2 Co2 O7 84.4(4) 4_556 .
O3 Co2 O2 169.0(2) . 4_556
O3 Co2 O4 92.6(3) . .
O3 Co2 O5 92.5(3) . .
O3 Co2 O6 82.0(3) . .
O3 Co2 O7 88.6(3) . .
O4 Co2 O6 174.2(3) . .
O4 Co2 O7 91.0(3) . .
O5 Co2 O2 94.8(3) . 4_556
O5 Co2 O4 86.91(16) . .
O5 Co2 O6 91.1(3) . .
O5 Co2 O7 177.7(3) . .
O7 Co2 O6 91.0(2) . .
C1 O1 Co1 131.4(6) . .
C1 O2 Co2 130.9(7) . 4_454
C9 O3 Co2 127.6(6) . .
Co1 O4 Co2 121.8(2) 3_545 2
Co1 O4 Co2 121.8(2) 3_545 .
Co1 O4 H4 84.9 3_545 .
Co2 O4 Co2 92.7(3) 2 .
Co2 O4 H4 119.4 2 .
Co2 O4 H4 119.4 . .
Co1 O5 H5 89.9 3_546 .
Co2 O5 Co1 120.2(3) . 3_546
Co2 O5 Co1 120.2(3) 2 3_546
Co2 O5 Co2 93.5(3) 2 .
Co2 O5 H5 117.8 . .
Co2 O5 H5 117.8 2 .
Co2 O6 H6A 101.4 . .
Co2 O6 H6B 108.1 . .
H6A O6 H6B 101.7 . .
Co2 O7 H7A 114.8 . .
Co2 O7 H7B 108.7 . .
H7A O7 H7B 85.0 . .
C9 O8 Co1 134.9(6) . 3_545
C4 N1 C4 116.7(8) 2_565 .
O1 C1 C2 114.1(7) . .
O2 C1 O1 127.5(8) . .
O2 C1 C2 117.9(8) . .
C3 C2 C1 123.3(8) . .
C11 C2 C1 117.4(7) . .
C11 C2 C3 119.1(7) . .
C4 C3 C2 120.3(7) . .
C7 C3 C2 113.4(8) . .
C7 C3 C4 125.9(7) . .
N1 C4 C3 119.0(6) . .
N1 C4 C5 124.4(7) . .
C5 C4 C3 116.5(7) . .
C4 C5 H5A 121.9 . .
C4 C5 C6 116.2(8) . .
C6 C5 H5A 121.9 . .
C5 C6 C5 122.1(10) 2_565 .
C5 C6 H6 118.9 2_565 .
C5 C6 H6 118.9 . .
C3 C7 H7 116.3 . .
C8 C7 C3 127.5(9) . .
C8 C7 H7 116.3 . .
C7 C8 C9 118.4(9) . .
C7 C8 C10 119.2(9) . .
C10 C8 C9 121.5(9) . .
O3 C9 C8 115.5(8) . .
O8 C9 O3 123.3(7) . .
O8 C9 C8 121.0(8) . .
C8 C10 H10 118.1 . .
C8 C10 C11 123.8(9) . .
C11 C10 H10 118.1 . .
C2 C11 H11 122.0 . .
C10 C11 C2 116.1(8) . .
C10 C11 H11 122.0 . .
loop_
_geom_bond_atom_site_label_1
_geom_bond_atom_site_label_2
_geom_bond_distance
_geom_bond_site_symmetry_2
Co1 O1 2.168(6) .
Co1 O1 2.168(6) 2_565
Co1 O4 2.069(8) 3_455
Co1 O5 2.147(8) 3_454
Co1 O8 2.124(6) 3_455
Co1 O8 2.124(6) 4_455
Co2 O2 2.100(7) 4_556
Co2 O3 2.079(7) .
Co2 O4 2.108(5) .
Co2 O5 2.095(6) .
Co2 O6 2.201(8) .
Co2 O7 2.164(8) .
O1 C1 1.274(11) .
O2 C1 1.218(11) .
O3 C9 1.298(11) .
O4 H4 0.8326 .
O5 H5 0.8433 .
O6 H6A 0.9091 .
O6 H6B 0.8455 .
O7 H7A 0.8583 .
O7 H7B 0.8846 .
O8 C9 1.273(11) .
N1 C4 1.372(8) 2_565
N1 C4 1.372(8) .
C1 C2 1.501(10) .
C2 C3 1.493(11) .
C2 C11 1.465(11) .
C3 C4 1.474(12) .
C3 C7 1.402(12) .
C4 C5 1.408(10) .
C5 H5A 0.9500 .
C5 C6 1.411(9) .
C6 H6 0.9500 .
C7 H7 0.9500 .
C7 C8 1.323(14) .
C8 C9 1.520(9) .
C8 C10 1.325(12) .
C10 H10 0.9500 .
C10 C11 1.433(11) .
C11 H11 0.9500 .
loop_
_geom_torsion_atom_site_label_1
_geom_torsion_atom_site_label_2
_geom_torsion_atom_site_label_3
_geom_torsion_atom_site_label_4
_geom_torsion
_geom_torsion_site_symmetry_1
_geom_torsion_site_symmetry_4
Co1 O1 C1 O2 -22.6(14) . .
Co1 O1 C1 C2 165.9(6) . .
Co1 O8 C9 O3 13.3(16) 3_545 .
Co1 O8 C9 C8 -161.4(7) 3_545 .
Co2 O2 C1 O1 -23.9(16) 4_454 .
Co2 O2 C1 C2 147.3(8) 4_454 .
Co2 O3 C9 O8 37.5(14) . .
Co2 O3 C9 C8 -147.6(7) . .
O1 C1 C2 C3 -43.2(12) . .
O1 C1 C2 C11 142.2(9) . .
O2 C1 C2 C3 144.4(10) . .
O2 C1 C2 C11 -30.2(13) . .
N1 C4 C5 C6 -0.8(11) . .
C1 C2 C3 C4 -9.5(13) . .
C1 C2 C3 C7 176.5(10) . .
C1 C2 C11 C10 177.8(9) . .
C2 C3 C4 N1 -49.9(11) . .
C2 C3 C4 C5 133.5(8) . .
C2 C3 C7 C8 7.9(17) . .
C3 C2 C11 C10 2.9(13) . .
C3 C4 C5 C6 175.7(8) . .
C3 C7 C8 C9 169.3(11) . .
C3 C7 C8 C10 0(2) . .
C4 N1 C4 C3 -174.3(5) 2_565 .
C4 N1 C4 C5 2.0(12) 2_565 .
C4 C3 C7 C8 -165.6(12) . .
C4 C5 C6 C5 -0.6(15) . 2_565
C7 C3 C4 N1 123.2(11) . .
C7 C3 C4 C5 -53.4(13) . .
C7 C8 C9 O3 42.8(15) . .
C7 C8 C9 O8 -142.1(12) . .
C7 C8 C10 C11 -7.7(19) . .
C8 C10 C11 C2 5.8(15) . .
C9 C8 C10 C11 -176.4(10) . .
C10 C8 C9 O3 -148.3(11) . .
C10 C8 C9 O8 26.8(16) . .
C11 C2 C3 C4 165.0(8) . .
C11 C2 C3 C7 -8.9(12) . .
loop_
_twin_individual_id
_twin_individual_mass_fraction_refined
1 0.63(5)
2 0.37(5)
