#------------------------------------------------------------------------------
#$Date: 2019-11-07 23:50:44 +0200 (Thu, 07 Nov 2019) $
#$Revision: 224117 $
#$URL: file:///home/coder/svn-repositories/cod/cif/7/04/95/7049549.cif $
#------------------------------------------------------------------------------
#
# This file is available in the Crystallography Open Database (COD),
# http://www.crystallography.net/
#
# All data on this site have been placed in the public domain by the
# contributors.
#
data_7049549
loop_
_publ_author_name
'Li, Feng-Cai'
'Tan, Li-Kun'
'Li, Xi-Li'
'Kong, Hua-Jie'
'Ge, Li-Ming'
'Yue, Ling-Yu'
'Han, Li-Feng'
_publ_section_title
;
 Syntheses, structures and catalytic properties of Evans-Showell-type
 polyoxometalate-based 3D metal-organic complexes constructed from the
 semi-rigid bis(pyridylformyl)piperazine ligand and transition metals.
;
_journal_issue                   17
_journal_name_full
'Dalton transactions (Cambridge, England : 2003)'
_journal_page_first              5831
_journal_page_last               5841
_journal_paper_doi               10.1039/c9dt00499h
_journal_volume                  48
_journal_year                    2019
_chemical_formula_moiety
'C16 H26 Co2 Cu2 Mo10 N4 O45, C16 H22 Cu N4 O5'
_chemical_formula_sum            'C32 H48 Co2 Cu3 Mo10 N8 O50'
_chemical_formula_weight         2612.66
_space_group_crystal_system      triclinic
_space_group_IT_number           2
_space_group_name_Hall           '-P 1'
_space_group_name_H-M_alt        'P -1'
_symmetry_space_group_name_Hall  '-P 1'
_symmetry_space_group_name_H-M   'P -1'
_atom_sites_solution_hydrogens   mixed
_atom_sites_solution_primary     dual
_audit_creation_date             2018-12-05
_audit_creation_method
;
Olex2 1.2
(compiled 2018.05.29 svn.r3508 for OlexSys, GUI svn.r5506)
;
_audit_update_record
;
2018-12-14 deposited with the CCDC.    2019-04-01 downloaded from the CCDC.
;
_cell_angle_alpha                78.079(4)
_cell_angle_beta                 82.282(4)
_cell_angle_gamma                83.825(3)
_cell_formula_units_Z            2
_cell_length_a                   12.1598(5)
_cell_length_b                   14.1021(6)
_cell_length_c                   23.8608(12)
_cell_measurement_reflns_used    9029
_cell_measurement_temperature    293(2)
_cell_measurement_theta_max      28.3700
_cell_measurement_theta_min      3.3380
_cell_volume                     3953.6(3)
_computing_molecular_graphics    'Olex2 (Dolomanov et al., 2009)'
_computing_publication_material  'Olex2 (Dolomanov et al., 2009)'
_computing_structure_refinement  'ShelXL (Sheldrick, 2015)'
_computing_structure_solution    'ShelXT (Sheldrick, 2015)'
_diffrn_ambient_temperature      298.15
_diffrn_measured_fraction_theta_full 0.997
_diffrn_measured_fraction_theta_max 0.997
_diffrn_measurement_device_type  'multiwire proportional'
_diffrn_measurement_method       'phi and omega scans'
_diffrn_radiation_monochromator  graphite
_diffrn_radiation_type           MoK\a
_diffrn_radiation_wavelength     0.71073
_diffrn_reflns_av_R_equivalents  0.0604
_diffrn_reflns_av_unetI/netI     0.0887
_diffrn_reflns_Laue_measured_fraction_full 0.997
_diffrn_reflns_Laue_measured_fraction_max 0.997
_diffrn_reflns_limit_h_max       15
_diffrn_reflns_limit_h_min       -15
_diffrn_reflns_limit_k_max       17
_diffrn_reflns_limit_k_min       -17
_diffrn_reflns_limit_l_max       29
_diffrn_reflns_limit_l_min       -29
_diffrn_reflns_number            37927
_diffrn_reflns_point_group_measured_fraction_full 0.997
_diffrn_reflns_point_group_measured_fraction_max 0.997
_diffrn_reflns_theta_full        25.242
_diffrn_reflns_theta_max         26.500
_diffrn_reflns_theta_min         3.008
_exptl_absorpt_coefficient_mu    2.820
_exptl_absorpt_correction_T_max  1.00000
_exptl_absorpt_correction_T_min  0.70871
_exptl_absorpt_correction_type   multi-scan
_exptl_crystal_colour            'clear dark green'
_exptl_crystal_colour_lustre     clear
_exptl_crystal_colour_modifier   dark
_exptl_crystal_colour_primary    green
_exptl_crystal_density_diffrn    2.195
_exptl_crystal_description       block
_exptl_crystal_F_000             2514
_exptl_crystal_size_max          0.28
_exptl_crystal_size_mid          0.25
_exptl_crystal_size_min          0.23
_refine_diff_density_max         1.606
_refine_diff_density_min         -2.842
_refine_diff_density_rms         0.275
_refine_ls_extinction_method     none
_refine_ls_goodness_of_fit_ref   1.060
_refine_ls_hydrogen_treatment    constr
_refine_ls_matrix_type           full
_refine_ls_number_parameters     954
_refine_ls_number_reflns         16348
_refine_ls_number_restraints     1020
_refine_ls_restrained_S_all      1.036
_refine_ls_R_factor_all          0.1279
_refine_ls_R_factor_gt           0.0923
_refine_ls_shift/su_max          0.001
_refine_ls_shift/su_mean         0.000
_refine_ls_structure_factor_coef Fsqd
_refine_ls_weighting_details
'w=1/[\s^2^(Fo^2^)+(0.0871P)^2^+116.2981P] where P=(Fo^2^+2Fc^2^)/3'
_refine_ls_weighting_scheme      calc
_refine_ls_wR_factor_gt          0.2229
_refine_ls_wR_factor_ref         0.2481
_reflns_Friedel_coverage         0.000
_reflns_number_gt                11050
_reflns_number_total             16348
_reflns_threshold_expression     'I > 2\s(I)'
_iucr_refine_instructions_details
;

    1.res created by SHELXL-2014/7

TITL 1_a.res in P-1
REM Old TITL 1 in P-1
REM SHELXT solution in P-1
REM R1 0.170, Rweak 0.017, Alpha 0.073, Orientation as input
REM Formula found by SHELXT: C38 N12 O44 Co Cu4 Mo10
CELL 0.71073 12.1598 14.1021 23.8608 78.079 82.282 83.825
ZERR 2 0.0005 0.0006 0.0012 0.004 0.004 0.003
LATT 1
SFAC C H Co Cu Mo N O
UNIT 64 96 4 6 20 16 100
SIMU 0.01 0.02 3.8 $O
ISOR 0.001 0.002 O44
 
L.S. 30 0 0
PLAN  5
list 4
omit-2 53
ABIN
fmap 2 53
acta
OMIT -1 0 3
OMIT 0 -2 1
OMIT 1 -1 2
OMIT 2 0 0
OMIT 7 6 5
OMIT 1 -2 1
OMIT 2 0 2
OMIT 6 6 4
OMIT 0 9 5
REM <olex2.extras>
REM <HklSrc "%.\\1.hkl">
REM </olex2.extras>
 
WGHT    0.087100  116.298096
FVAR       0.13047
C1    1    0.377727    0.443356    0.911042    11.00000    0.02235    0.02157 =
         0.04548    0.00210   -0.00229   -0.00396
AFIX  43
H1    2    0.386765    0.507492    0.892850    11.00000   -1.20000
AFIX   0
C2    1    0.452877    0.283666    0.942882    11.00000    0.03470    0.04099 =
         0.03188   -0.00530    0.00380    0.00930
AFIX  43
H2    2    0.514097    0.238032    0.945409    11.00000   -1.20000
AFIX   0
C3    1    0.352072    0.255938    0.966124    11.00000    0.01662    0.02002 =
         0.04748   -0.00181    0.00624   -0.00280
AFIX  43
H3    2    0.344778    0.192363    0.985863    11.00000   -1.20000
AFIX   0
C4    1    0.259457    0.320546    0.961058    11.00000    0.02698    0.03726 =
         0.05242   -0.01418    0.00022   -0.00736
AFIX  43
H4    2    0.188959    0.301061    0.975921    11.00000   -1.20000
AFIX   0
C5    1    0.273871    0.415979    0.933088    11.00000    0.01733    0.03802 =
         0.03757   -0.00636   -0.00390   -0.00893
C6    1    0.175472    0.492389    0.920727    11.00000    0.02901    0.03846 =
         0.04408    0.00322    0.00408    0.00911
C7    1   -0.002217    0.573330    0.947658    11.00000    0.02790    0.05195 =
         0.03736    0.00047    0.00224    0.01358
AFIX  23
H7A   2   -0.003657    0.589664    0.906215    11.00000   -1.20000
H7B   2   -0.001090    0.633147    0.961552    11.00000   -1.20000
AFIX   0
C8    1    0.103577    0.476596    1.024491    11.00000    0.02035    0.03812 =
         0.03523   -0.00372   -0.01619    0.00288
AFIX  23
H8A   2    0.108490    0.532738    1.041368    11.00000   -1.20000
H8B   2    0.169476    0.432595    1.031448    11.00000   -1.20000
AFIX   0
C9    1    0.658655    0.362223    0.999710    11.00000    0.03049    0.02456 =
         0.03663   -0.00079   -0.00166   -0.00291
AFIX  43
H9    2    0.594935    0.403646    1.005083    11.00000   -1.20000
AFIX   0
C10   1    0.792558    0.291924    0.937914    11.00000    0.02157    0.03922 =
         0.03078    0.00104   -0.00374   -0.00458
AFIX  43
H10   2    0.821183    0.284170    0.900836    11.00000   -1.20000
AFIX   0
C11   1    0.713622    0.318650    1.047297    11.00000    0.02813    0.03936 =
         0.03825   -0.00724   -0.00637   -0.00203
AFIX  43
H11   2    0.684424    0.327931    1.084023    11.00000   -1.20000
AFIX   0
C12   1    0.812060    0.261442    1.039388    11.00000    0.05137    0.03258 =
         0.04010    0.00579   -0.01186   -0.00838
AFIX  43
H12   2    0.851073    0.233193    1.070451    11.00000   -1.20000
AFIX   0
C13   1    0.851172    0.247141    0.984556    11.00000    0.03390    0.02071 =
         0.04438   -0.00019   -0.00917   -0.01427
C14   1    0.964604    0.194603    0.968467    11.00000    0.03524    0.03804 =
         0.04796   -0.00371   -0.01224   -0.00091
C15   1    1.095180    0.052818    0.983695    11.00000    0.04084    0.03524 =
         0.06975   -0.00592    0.00214    0.00416
AFIX  23
H15A  2    1.128765    0.043685    1.019278    11.00000   -1.20000
H15B  2    1.140620    0.094143    0.953983    11.00000   -1.20000
AFIX   0
C16   1    1.094661   -0.040962    0.967553    11.00000    0.05033    0.03277 =
         0.07352   -0.00819    0.00713    0.00457
AFIX  23
H16A  2    1.168665   -0.074363    0.967897    11.00000   -1.20000
H16B  2    1.073839   -0.031619    0.928822    11.00000   -1.20000
AFIX   0
CO1   3    0.768100    0.656621    0.670210    11.00000    0.01908    0.01677 =
         0.02928   -0.00001   -0.00209    0.00041
CO2   3    0.788803    0.735347    0.766020    11.00000    0.01933    0.02046 =
         0.02991   -0.00170   -0.00260   -0.00317
CU1   4    0.620477    0.411779    0.876618    11.00000    0.01911    0.03001 =
         0.03417    0.00574   -0.00192   -0.00023
CU2   4    0.168531    0.480639    0.795790    11.00000    0.07457    0.09774 =
         0.07668    0.00447   -0.00467   -0.01111
MO1   5    0.583663    0.611794    0.765050    11.00000    0.01571    0.02273 =
         0.02956    0.00036   -0.00323   -0.00069
MO2   5    0.615987    0.686366    0.882262    11.00000    0.02685    0.02646 =
         0.02962   -0.00358   -0.00133   -0.00064
MO3   5    0.816395    0.827851    0.880033    11.00000    0.03666    0.02673 =
         0.03591   -0.00544   -0.00895   -0.00200
MO4   5    0.995478    0.869210    0.763785    11.00000    0.02803    0.03048 =
         0.04536    0.00185   -0.00790   -0.00835
MO5   5    0.973448    0.770802    0.652649    11.00000    0.01987    0.03601 =
         0.03502    0.00310   -0.00271   -0.00489
MO6   5    0.723920    0.892057    0.665262    11.00000    0.02698    0.01986 =
         0.03854   -0.00019   -0.00716   -0.00135
MO7   5    0.719550    0.804347    0.548891    11.00000    0.02655    0.02519 =
         0.03139    0.00185   -0.00572   -0.00074
MO8   5    0.750956    0.565279    0.554690    11.00000    0.03072    0.02771 =
         0.03248   -0.00475   -0.00423   -0.00105
MO9   5    0.800638    0.423562    0.677639    11.00000    0.02870    0.01994 =
         0.03370   -0.00425   -0.00163   -0.00108
MO10  5    0.844364    0.521340    0.785834    11.00000    0.01830    0.02091 =
         0.02960   -0.00022   -0.00318    0.00073
N1    6    0.468114    0.377609    0.915459    11.00000    0.01412    0.04261 =
         0.03942    0.00281   -0.00685   -0.00210
N2    6    0.099291    0.508212    0.961457    11.00000    0.02110    0.05050 =
         0.03145   -0.00152   -0.00658    0.00989
N3    6    0.694497    0.346523    0.946055    11.00000    0.01796    0.02990 =
         0.03704   -0.00298   -0.00401   -0.00160
N4    6    0.985463    0.100556    0.991450    11.00000    0.01534    0.03460 =
         0.06730    0.00493    0.00471   -0.00355
O1    7    0.490642    0.630882    0.716259    11.00000    0.03228    0.03360 =
         0.03850    0.00272   -0.00880    0.00034
O50   7    0.630115    0.273282    0.837003    11.00000    0.05046    0.06473 =
         0.05588   -0.01283    0.01285   -0.00705
AFIX   7
H50A  2    0.612806    0.223071    0.863821    11.00000   -1.50000
H50B  2    0.698750    0.256997    0.823884    11.00000   -1.50000
AFIX   0
O2    7    0.555234    0.499205    0.810594    11.00000    0.02421    0.02890 =
         0.03980   -0.00208   -0.00681   -0.00157
O3    7    0.530618    0.693002    0.816612    11.00000    0.02652    0.02457 =
         0.03708   -0.00684   -0.00451    0.00073
O4    7    0.731553    0.622613    0.812252    11.00000    0.02164    0.02728 =
         0.03437   -0.00079   -0.00272   -0.00160
O5    7    0.592372    0.570124    0.917782    11.00000    0.03974    0.02857 =
         0.04009    0.00341   -0.00216   -0.00919
O6    7    0.524426    0.759352    0.915924    11.00000    0.03947    0.04409 =
         0.04007   -0.00914    0.00208   -0.00469
O7    7    0.750241    0.705478    0.909364    11.00000    0.02549    0.03387 =
         0.03705   -0.00170   -0.00882   -0.00093
O8    7    0.694344    0.808428    0.817275    11.00000    0.02408    0.02336 =
         0.03766   -0.00722   -0.00546   -0.00048
O9    7    0.723249    0.907184    0.911685    11.00000    0.04050    0.03240 =
         0.05303   -0.01305   -0.00733    0.00028
O10   7    0.923870    0.802716    0.921270    11.00000    0.04371    0.04087 =
         0.04884   -0.00877   -0.01780   -0.00082
O11   7    0.876458    0.919953    0.814005    11.00000    0.03282    0.02962 =
         0.04746   -0.00178   -0.00921   -0.00286
O12   7    0.904917    0.740538    0.813299    11.00000    0.02519    0.03077 =
         0.03729   -0.00054   -0.00745   -0.00241
O13   7    1.098848    0.849042    0.806213    11.00000    0.03763    0.04502 =
         0.06033   -0.00412   -0.01543   -0.00433
O14   7    1.018193    0.976929    0.715958    11.00000    0.04248    0.04541 =
         0.06186    0.00255   -0.00473   -0.01663
O15   7    0.847246    0.844437    0.713582    11.00000    0.02332    0.02733 =
         0.03932   -0.00209   -0.00634   -0.00366
O16   7    1.050873    0.772764    0.716335    11.00000    0.02723    0.03023 =
         0.04552    0.00078   -0.00253   -0.00766
O17   7    1.014376    0.871972    0.606633    11.00000    0.02785    0.04259 =
         0.05290    0.01182   -0.00883   -0.00710
O18   7    1.044500    0.674088    0.624918    11.00000    0.02316    0.04881 =
         0.04803   -0.00550    0.00359    0.00272
O19   7    0.874210    0.650463    0.721719    11.00000    0.02241    0.02587 =
         0.03499   -0.00112   -0.00208   -0.00102
O20   7    0.679157    0.732697    0.717447    11.00000    0.02264    0.02265 =
         0.03482   -0.00261   -0.00378   -0.00441
O21   7    0.626072    0.936038    0.714570    11.00000    0.04545    0.03003 =
         0.04666   -0.01322   -0.01464    0.01313
O22   7    0.787685    0.991351    0.627042    11.00000    0.04142    0.02240 =
         0.05378    0.00089   -0.00841   -0.00789
O23   7    0.826660    0.773683    0.625092    11.00000    0.02304    0.02544 =
         0.03608   -0.00059   -0.00064   -0.00253
O24   7    0.641249    0.867746    0.609975    11.00000    0.03093    0.02633 =
         0.03755    0.00018   -0.00360    0.00058
O25   7    0.804689    0.891354    0.512738    11.00000    0.03567    0.03585 =
         0.04458    0.00970    0.00116   -0.00362
O26   7    0.610710    0.814320    0.508768    11.00000    0.03013    0.03717 =
         0.04398    0.00044   -0.01083   -0.00310
O27   7    0.807126    0.691597    0.525751    11.00000    0.03011    0.03209 =
         0.03484    0.00152   -0.00062   -0.00245
O28   7    0.854971    0.566437    0.627561    11.00000    0.02378    0.02476 =
         0.03208   -0.00050   -0.00084    0.00057
O29   7    0.666425    0.667915    0.612627    11.00000    0.02198    0.02304 =
         0.03375    0.00055   -0.00302   -0.00404
O30   7    0.856023    0.498255    0.521296    11.00000    0.04513    0.04318 =
         0.03984   -0.00482   -0.00528   -0.00222
O31   7    0.641053    0.570786    0.515840    11.00000    0.04482    0.03914 =
         0.03869   -0.00397   -0.00967   -0.00472
O32   7    0.699839    0.470199    0.622016    11.00000    0.02900    0.02688 =
         0.03739   -0.00108   -0.00111   -0.00099
O33   7    0.897736    0.354276    0.641998    11.00000    0.03758    0.03009 =
         0.04212   -0.00060    0.00105   -0.00468
O34   7    0.724127    0.340749    0.724748    11.00000    0.03430    0.03398 =
         0.04016   -0.00645   -0.00180   -0.00538
O35   7    0.903479    0.450505    0.730087    11.00000    0.02536    0.02404 =
         0.03591   -0.00149   -0.00270    0.00068
O36   7    0.716002    0.546013    0.721908    11.00000    0.02205    0.02158 =
         0.03362   -0.00388   -0.00234   -0.00473
O37   7    0.960431    0.533620    0.818277    11.00000    0.02376    0.03763 =
         0.04158   -0.00273   -0.00496   -0.00303
O38   7    0.770534    0.434944    0.834568    11.00000    0.02556    0.02258 =
         0.03429    0.00064   -0.00124    0.00136
O39   7    1.034036    0.242759    0.935618    11.00000    0.03131    0.04712 =
         0.06592    0.01818    0.00448    0.00315
O40   7    0.169526    0.530345    0.869621    11.00000    0.04376    0.08996 =
         0.04336    0.00490    0.00142    0.00565
O43   7    0.197085    0.612279    0.755398    11.00000    0.05857    0.08022 =
         0.08035    0.00856   -0.00515   -0.00974
AFIX   7
H43A  2    0.270219    0.624975    0.751702    11.00000   -1.50000
H43B  2    0.164711    0.658728    0.775354    11.00000   -1.50000
AFIX   0
O44   7    0.347072    0.429765    0.778001    11.00000    0.09164    0.09311 =
         0.09227   -0.01645   -0.00949   -0.00710
AFIX   7
H44A  2    0.373160    0.423819    0.737908    11.00000   -1.50000
H44B  2    0.367491    0.362547    0.796737    11.00000   -1.50000
AFIX   0
O45   7    0.133496    0.444926    0.724908    11.00000    0.08431    0.09319 =
         0.08961   -0.01564   -0.00058   -0.01311
AFIX   7
H45A  2    0.160969    0.379668    0.718890    11.00000   -1.50000
H45B  2    0.167692    0.481187    0.688162    11.00000   -1.50000
AFIX   0
O46   7    0.126487    0.350709    0.834807    11.00000    0.10584    0.09215 =
         0.09553    0.00075    0.01139   -0.00791
AFIX   7
H46A  2    0.150117    0.304218    0.813654    11.00000   -1.50000
H46B  2    0.051533    0.345429    0.840002    11.00000   -1.50000
AFIX   0
 
C17   1    0.700421    0.242117    0.608794    11.00000    0.03705    0.06397 =
         0.05617   -0.02316   -0.00344   -0.01276
AFIX  43
H     2    0.713683    0.234631    0.647014    11.00000   -1.20000
AFIX   0
C18   1    0.763025    0.235783    0.515235    11.00000    0.04491    0.04951 =
         0.03858   -0.00457   -0.01029   -0.00663
AFIX  43
HA    2    0.821201    0.227412    0.486663    11.00000   -1.20000
AFIX   0
C19   1    0.593616    0.263360    0.595738    11.00000    0.03902    0.07315 =
         0.07696   -0.03089   -0.00546   -0.01650
AFIX  43
HB    2    0.535799    0.273797    0.624097    11.00000   -1.20000
AFIX   0
C20   1    0.573455    0.268949    0.540667    11.00000    0.02886    0.09072 =
         0.10350   -0.05288   -0.02031    0.00575
AFIX  43
HC    2    0.501640    0.284639    0.530409    11.00000   -1.20000
AFIX   0
C21   1    0.657629    0.251722    0.501485    11.00000    0.02615    0.03890 =
         0.07753   -0.01083   -0.01978   -0.02000
C22   1    0.640863    0.262866    0.438244    11.00000    0.04701    0.05308 =
         0.06830    0.01135   -0.01711   -0.00513
C23   1    0.682196    0.208190    0.346185    11.00000    0.02190    0.02954 =
         0.06419    0.00593   -0.00007    0.00134
AFIX  23
HD    2    0.655100    0.274878    0.331828    11.00000   -1.20000
HE    2    0.758380    0.198600    0.328843    11.00000   -1.20000
AFIX   0
C24   1    0.616105    0.144572    0.328862    11.00000    0.04526    0.05245 =
         0.04369    0.00456    0.00251    0.00340
AFIX  23
HF    2    0.625686    0.152551    0.287179    11.00000   -1.20000
HG    2    0.538050    0.159555    0.341321    11.00000   -1.20000
AFIX   0
C25   1    0.716069    0.091291    0.435695    11.00000    0.04910    0.03947 =
         0.04900    0.00406   -0.00831   -0.00488
AFIX  23
HH    2    0.706193    0.083530    0.477368    11.00000   -1.20000
HI    2    0.794112    0.075933    0.423390    11.00000   -1.20000
AFIX   0
C26   1    0.645432    0.024124    0.417183    11.00000    0.02736    0.04296 =
         0.05476   -0.00259    0.00846   -0.01161
AFIX  23
HJ    2    0.671770   -0.042970    0.431013    11.00000   -1.20000
HK    2    0.568744    0.034134    0.433709    11.00000   -1.20000
AFIX   0
C27   1    0.691755   -0.020092    0.323044    11.00000    0.06128    0.03451 =
         0.05729   -0.00953   -0.01584    0.00938
C28   1    0.741061   -0.117221    0.349548    11.00000    0.04603    0.06386 =
         0.02922   -0.00227   -0.00857    0.00146
C29   1    0.844943   -0.125402    0.371147    11.00000    0.02730    0.03761 =
         0.05485    0.00339   -0.01570    0.00663
AFIX  43
HL    2    0.876855   -0.068872    0.372263    11.00000   -1.20000
AFIX   0
C30   1    0.849164   -0.292272    0.389499    11.00000    0.04323    0.03961 =
         0.06304   -0.00853   -0.00199    0.00261
AFIX  43
HM    2    0.884792   -0.352361    0.403936    11.00000   -1.20000
AFIX   0
C31   1    0.748358   -0.291984    0.368922    11.00000    0.03236    0.04624 =
         0.10638   -0.02141   -0.01533   -0.00887
AFIX  43
HN    2    0.716113   -0.349255    0.369851    11.00000   -1.20000
AFIX   0
C32   1    0.698136   -0.202252    0.346941    11.00000    0.04637    0.07570 =
         0.07834   -0.02552   -0.01761    0.00028
AFIX  43
HO    2    0.633170   -0.199079    0.329803    11.00000   -1.20000
AFIX   0
CU3   4    0.944177    0.219437    0.588538    11.00000    0.02756    0.02577 =
         0.04311   -0.00163   -0.00274   -0.00390
N5    6    0.785827    0.231731    0.569405    11.00000    0.01810    0.03035 =
         0.06310   -0.01232   -0.00852   -0.00483
N6    6    0.680901    0.193034    0.408795    11.00000    0.03800    0.02501 =
         0.06432    0.00019   -0.01406   -0.00138
N7    6    0.651539    0.043349    0.355320    11.00000    0.04182    0.03889 =
         0.04538   -0.00141   -0.00959   -0.00731
N8    6    0.900008   -0.212507    0.390333    11.00000    0.03468    0.02236 =
         0.03673   -0.00490    0.00823   -0.00065
O41   7    0.584988    0.337751    0.413799    11.00000    0.09906    0.05851 =
         0.08609   -0.00417   -0.02831    0.03033
O42   7    0.685736   -0.003684    0.269549    11.00000    0.10971    0.09953 =
         0.04702   -0.01819   -0.02435    0.05088
O47   7    0.893017    0.136639    0.662985    11.00000    0.04944    0.05127 =
         0.06232    0.00947    0.00845    0.00092
AFIX   7
HP    2    0.923620    0.148434    0.693200    11.00000   -1.50000
HQ    2    0.916360    0.073341    0.664104    11.00000   -1.50000
AFIX   0
O48   7    0.982089    0.317864    0.517363    11.00000    0.03347    0.02719 =
         0.04453    0.00722   -0.00273    0.00072
AFIX   7
HR    2    0.941112    0.372128    0.518283    11.00000   -1.50000
HS    2    0.964218    0.299921    0.487234    11.00000   -1.50000
AFIX   0
O49   7    0.979776    0.086805    0.543603    11.00000    0.04599    0.02961 =
         0.06385   -0.00104   -0.00423   -0.01271
AFIX   7
HT    2    0.919368    0.074697    0.531688    11.00000   -1.50000
HU    2    0.996316    0.034380    0.568316    11.00000   -1.50000
AFIX   0
HKLF 4
 
REM  1_a.res in P-1
REM R1 =  0.0923 for   11050 Fo > 4sig(Fo)  and  0.1279 for all   16348 data
REM    954 parameters refined using   1020 restraints
 
END  
     
WGHT      0.0847    124.3127 

REM Highest difference peak  1.606,  deepest hole -2.842,  1-sigma level  0.275
Q1    1   0.7613  0.5602  0.5205  11.00000  0.05    1.61
Q2    1   0.5836  0.6248  0.7226  11.00000  0.05    1.51
Q3    1   0.7192  0.7959  0.5860  11.00000  0.05    1.47
Q4    1   0.9947  0.8760  0.7200  11.00000  0.05    1.43
Q5    1   0.9893  0.7786  0.6070  11.00000  0.05    1.40

  REM The information below was added by Olex2.
  REM
  REM R1 = 0.0923 for 11050 Fo > 4sig(Fo) and 0.1279 for all 40618 data
  REM n/a parameters refined using n/a restraints
  REM Highest difference peak 1.61, deepest hole -2.84
  REM Mean Shift 0, Max Shift -0.001.

  REM +++ Tabular Listing of Refinement Information +++
  REM R1_all = 0.1279
  REM R1_gt = 0.0923
  REM wR_ref = 0.2481
  REM GOOF = 1.060
  REM Shift_max = -0.001
  REM Shift_mean = 0
  REM Reflections_all = 40618
  REM Reflections_gt = 11050
  REM Parameters = n/a
  REM Hole = -2.84
  REM Peak = 1.61
  REM Flack = n/a

  
;
_cod_data_source_file            c9dt00499h2.cif
_cod_data_source_block           1
_cod_depositor_comments
'Adding full bibliography for 7049549--7049550.cif.'
_cod_database_code               7049549
_shelx_shelxl_version_number     2014/7
_shelx_space_group_comment
;
The symmetry employed for this shelxl refinement is uniquely defined
by the following loop, which should always be used as a source of
symmetry information in preference to the above space-group names.
They are only intended as comments.
;
_olex2_refinement_description
;
1. Fixed Uiso
 At 1.2 times of:
  All C(H) groups, All C(H,H) groups
 At 1.5 times of:
  All O(H,H) groups
2. Uiso/Uaniso restraints and constraints
O1 \\sim O50 \\sim O2 \\sim O3 \\sim O4 \\sim O5 \\sim O6 \\sim O7 \\sim O8
\\sim O9 \\sim O10 \\sim O11 \\sim O12 \\sim O13 \\sim O14 \\sim O15 \\sim O16
\\sim O17 \\sim O18 \\sim O19 \\sim O20 \\sim O21 \\sim O22 \\sim O23 \\sim O24
\\sim O25 \\sim O26 \\sim O27 \\sim O28 \\sim O29 \\sim O30 \\sim O31 \\sim O32
\\sim O33 \\sim O34 \\sim O35 \\sim O36 \\sim O37 \\sim O38 \\sim O39 \\sim O40
\\sim O43 \\sim O44 \\sim O45 \\sim O46 \\sim O41 \\sim O42 \\sim O47 \\sim O48
\\sim O49: within 3.8A with sigma of 0.01 and sigma for terminal atoms of 0.02
Uanis(O44) \\sim Ueq: with sigma of 0.001 and sigma for terminal atoms of 0.002
3.a Rotating group:
 O50(H50a,H50b), O43(H43a,H43b), O44(H44a,H44b), O45(H45a,H45b), O46(H46a,
 H46b), O47(Hp,Hq), O48(Hr,Hs), O49(Ht,Hu)
3.b Secondary CH2 refined with riding coordinates:
 C7(H7a,H7b), C8(H8a,H8b), C15(H15a,H15b), C16(H16a,H16b), C23(Hd,He), C24(Hf,
 Hg), C25(Hh,Hi), C26(Hj,Hk)
3.c Aromatic/amide H refined with riding coordinates:
 C1(H1), C2(H2), C3(H3), C4(H4), C9(H9), C10(H10), C11(H11), C12(H12), C17(H),
 C18(Ha), C19(Hb), C20(Hc), C29(Hl), C30(Hm), C31(Hn), C32(Ho)
;
_shelx_fab_file
;
-16 -4 1 2.6610 0.3899
-16 -4 2 7.4221 0.0676
-16 -3 1 -2.1078 0.0882
-16 -1 1 0.4008 -0.5180
-16 0 1 4.3820 -0.2132
-16 1 1 -0.2018 0.3880
-16 2 1 4.3751 0.7117
-15 -6 1 -2.7542 0.2169
-15 -6 2 -8.3353 0.2749
-15 -5 1 -0.5524 0.0689
-15 -5 2 -8.8395 0.2483
-15 -5 3 -5.5922 0.1350
-15 -5 4 1.5669 -0.2049
-15 -5 5 4.3742 -0.0866
-15 -4 1 -0.2605 0.1156
-15 -4 2 -5.6225 0.0921
-15 -4 3 -6.8273 0.1032
-15 -4 4 7.1211 -0.0000
-15 -4 5 7.1270 -0.1570
-15 -4 6 1.3806 -0.0324
-15 -3 1 0.0385 0.2287
-15 -3 2 -3.1682 0.1030
-15 -3 3 -0.3406 0.0313
-15 -3 4 -1.5431 -0.0226
-15 -3 5 5.7877 -0.0182
-15 -3 6 2.2880 -0.0467
-15 -3 7 -1.4128 0.0083
-15 -2 1 -2.0323 -0.3137
-15 -2 2 4.2804 0.2415
-15 -2 3 -3.9158 0.0840
-15 -2 4 -0.6048 -0.0760
-15 -2 5 -4.8434 -0.0977
-15 -1 1 -5.7280 -0.5030
-15 -1 2 -2.6281 -0.2792
-15 0 1 -5.3683 -0.2294
-15 0 2 -2.5199 -0.5713
-15 0 3 -6.3385 -0.3592
-15 1 1 -6.2540 0.3582
-15 1 2 -6.5762 -0.3924
-15 1 3 -1.3650 -0.6198
-15 2 1 -4.9183 0.6620
-15 2 2 -0.4076 0.2285
-15 2 3 -2.8378 -0.2495
-15 3 1 -9.6810 -0.4754
-15 3 2 0.4937 0.5288
-15 3 3 6.3659 0.3263
-15 4 1 -1.2737 -0.0570
-15 4 2 -0.4350 -0.2251
-15 4 3 -0.5236 0.3751
-15 5 1 3.7642 -0.2659
-15 5 2 -4.6195 0.1070
-15 5 3 2.6096 -0.0579
-14 -9 1 4.3941 -0.3750
-14 -8 1 4.7579 0.0276
-14 -8 2 6.6011 -0.4215
-14 -7 1 -1.7248 0.6552
-14 -7 2 3.9699 0.0001
-14 -7 3 9.0472 -0.3412
-14 -6 1 -2.4119 -0.2165
-14 -6 2 4.0962 0.5778
-14 -6 3 9.9559 0.0920
-14 -6 4 8.4868 -0.2501
-14 -5 1 -3.6423 -0.0989
-14 -5 2 3.4794 -0.2389
-14 -5 3 8.8965 0.4385
-14 -5 4 3.1183 0.1527
-14 -5 5 -2.8379 -0.2193
-14 -4 1 -7.2867 -0.2050
-14 -4 2 -1.8577 -0.0250
-14 -4 3 4.1134 -0.2382
-14 -4 4 3.7486 0.2015
-14 -4 5 -0.9388 0.1045
-14 -4 6 -3.2495 -0.1116
-14 -3 1 -0.3095 0.1044
-14 -3 2 -6.1714 -0.1716
-14 -3 3 0.5182 -0.0771
-14 -3 4 5.7168 -0.2076
-14 -3 5 1.2871 0.0547
-14 -3 6 -1.9918 0.0525
-14 -3 7 -4.7973 -0.0229
-14 -2 1 3.0240 0.0209
-14 -2 2 1.2658 0.0066
-14 -2 3 4.0318 -0.1830
-14 -2 4 3.0653 -0.0598
-14 -2 5 1.2688 -0.0955
-14 -2 6 -4.0413 0.0051
-14 -2 7 -1.4333 0.0452
-14 -1 1 5.8800 -0.2726
-14 -1 2 5.5871 -0.0422
-14 -1 3 5.7561 -0.0094
-14 -1 4 12.4226 -0.0736
-14 -1 5 -0.2788 0.0636
-14 -1 6 -5.9316 0.0010
-14 -1 7 -2.0073 -0.0984
-14 -1 8 2.7121 0.0053
-14 0 1 0.1405 0.1247
-14 0 2 5.0002 -0.3087
-14 0 3 11.0039 0.0302
-14 0 4 7.6049 0.1687
-14 0 5 10.7407 -0.0090
-14 0 6 -2.3006 -0.0606
-14 0 7 -8.1758 -0.0656
-14 0 8 0.4493 -0.1117
-14 0 9 1.8929 0.1645
-14 0 10 4.2482 -0.0058
-14 0 11 -2.8775 -0.0966
-14 1 1 2.5499 0.5656
-14 1 2 3.7245 0.2219
-14 1 3 0.3319 -0.2143
-14 1 4 7.7770 -0.0013
-14 1 5 5.1128 0.1193
-14 1 6 6.1024 -0.0810
-14 1 7 -0.9032 -0.0904
-14 1 8 -9.0226 0.1274
-14 1 9 0.8169 -0.0095
-14 1 10 2.3823 0.0001
-14 1 11 3.6242 -0.2120
-14 1 12 -5.8057 -0.2751
-14 2 1 -2.1946 0.3814
-14 2 2 -3.0241 0.5257
-14 2 3 -1.4395 0.0591
-14 2 4 -4.3258 -0.2396
-14 2 5 4.0497 -0.0546
-14 2 6 1.9436 0.2078
-14 2 7 0.5529 0.1000
-14 2 8 2.0704 -0.1265
-14 2 9 -5.4217 -0.0578
-14 2 10 0.5481 -0.1573
-14 2 11 -1.2653 -0.1426
-14 2 12 -2.9106 -0.0083
-14 3 1 3.9387 -0.3710
-14 3 2 -6.9784 0.2145
-14 3 3 -6.5929 0.2983
-14 3 4 -0.0628 -0.0918
-14 3 5 -6.6758 -0.0206
-14 3 6 -3.7503 0.0649
-14 3 7 0.0521 0.1199
-14 3 8 4.1132 -0.0757
-14 3 9 6.8652 -0.3065
-14 3 10 -6.1197 -0.0438
-14 3 11 -5.7377 0.1907
-14 4 1 0.1702 -0.4849
-14 4 2 4.2413 -0.2863
-14 4 3 -0.9103 0.0789
-14 4 4 -7.6213 0.1969
-14 4 5 -4.8054 -0.1570
-14 4 6 -8.2109 0.0152
-14 4 7 -0.3805 -0.0799
-14 4 8 6.7776 -0.0627
-14 4 9 4.5363 -0.0143
-14 4 10 1.3847 -0.0001
-14 4 11 -8.0645 0.1182
-14 5 1 1.2547 0.1191
-14 5 2 7.8463 -0.2410
-14 5 3 1.3810 -0.1209
-14 5 4 -1.7715 -0.0553
-14 5 5 -7.9266 0.0914
-14 5 6 -1.2491 -0.3206
-14 5 7 -0.7366 -0.0753
-14 5 8 3.1596 0.0104
-14 5 9 5.3936 0.1265
-14 5 10 -0.1142 0.0849
-14 6 1 -4.4149 0.2939
-14 6 2 -2.4216 0.1787
-14 6 3 4.5779 -0.1152
-14 6 4 -0.3733 -0.0731
-14 6 5 3.3052 -0.1247
-14 6 7 -0.1728 -0.2674
-14 6 8 1.0184 -0.0285
-14 6 9 2.5210 0.1171
-14 7 1 -5.7771 -0.1770
-14 7 2 -3.9386 0.1899
-14 7 3 -5.9313 -0.0657
-14 7 4 5.8375 -0.3028
-14 7 5 2.3482 0.0225
-14 7 7 -0.8996 0.5140
-14 7 8 -0.7841 -0.2645
-13 -11 1 -4.4355 0.6617
-13 -10 1 -6.3938 -0.5838
-13 -10 2 -3.5795 0.6095
-13 -10 3 7.2461 0.3585
-13 -9 1 -4.3186 -0.5980
-13 -9 2 -4.7338 -0.5854
-13 -9 3 -0.2907 0.3760
-13 -9 4 4.2757 0.1669
-13 -8 1 -1.2693 0.1296
-13 -8 2 -5.4055 -0.4741
-13 -8 3 -3.7221 -0.5437
-13 -8 4 -1.9833 0.2196
-13 -8 5 -2.4200 0.1462
-13 -8 6 -4.6552 0.0282
-13 -7 1 4.5696 0.4269
-13 -7 2 -3.6662 0.2430
-13 -7 3 -9.3949 -0.3009
-13 -7 4 -4.8911 -0.3708
-13 -7 5 2.5460 0.1071
-13 -7 6 4.3544 0.0421
-13 -7 7 0.4491 -0.1630
-13 -6 1 2.6712 0.0467
-13 -6 2 0.8396 0.2344
-13 -6 3 -7.3249 0.3102
-13 -6 4 -3.6948 -0.1555
-13 -6 5 5.5982 -0.1667
-13 -6 6 8.8565 -0.0104
-13 -6 7 8.0551 -0.0325
-13 -6 8 -2.6199 -0.2128
-13 -5 1 -2.1226 -0.5570
-13 -5 2 3.8579 0.0431
-13 -5 3 4.2334 -0.0068
-13 -5 4 -1.5845 0.3001
-13 -5 5 1.7443 0.0114
-13 -5 6 8.6745 -0.0070
-13 -5 7 7.0620 -0.1506
-13 -5 8 11.0758 -0.0053
-13 -5 9 -5.5501 -0.0658
-13 -4 1 -6.1465 -0.2542
-13 -4 2 -0.0188 -0.6251
-13 -4 3 6.1699 0.1229
-13 -4 4 4.5846 -0.1189
-13 -4 5 0.3026 0.2155
-13 -4 6 2.2375 0.0403
-13 -4 7 12.3721 0.0491
-13 -4 8 7.1827 -0.1500
-13 -4 9 5.3398 0.0920
-13 -4 10 -14.7572 0.0209
-13 -3 1 -6.8501 0.6703
-13 -3 2 -7.2304 -0.0581
-13 -3 3 -1.4143 -0.4830
-13 -3 4 4.1841 0.2131
-13 -3 5 5.8562 -0.1894
-13 -3 6 5.5266 0.0488
-13 -3 7 1.2553 -0.0349
-13 -3 8 8.0870 0.0738
-13 -3 9 1.4598 -0.0435
-13 -3 10 -3.2494 0.0771
-13 -3 11 -12.4459 0.0734
-13 -2 1 0.7509 0.3430
-13 -2 2 -8.8434 0.5808
-13 -2 3 -8.0657 0.0594
-13 -2 4 0.2518 -0.3104
-13 -2 5 5.2762 0.1633
-13 -2 6 4.9187 -0.2744
-13 -2 7 1.6709 -0.0469
-13 -2 8 -3.9445 -0.0116
-13 -2 9 4.1886 0.1052
-13 -2 10 2.0054 0.0527
-13 -2 11 -6.3716 -0.0457
-13 -1 1 -2.1120 0.0166
-13 -1 2 -0.2177 0.4055
-13 -1 3 -7.0627 0.4011
-13 -1 4 -6.3294 -0.0653
-13 -1 5 4.1725 -0.2406
-13 -1 6 2.3464 0.1807
-13 -1 7 -3.1057 -0.1167
-13 -1 8 -2.7825 0.0027
-13 -1 9 -1.5427 -0.0358
-13 -1 10 2.9812 -0.0762
-13 -1 11 1.4279 0.0380
-13 -1 12 -4.3112 -0.0553
-13 0 1 -7.2917 -0.4922
-13 0 2 -7.3967 0.0819
-13 0 3 -3.5261 0.1765
-13 0 4 2.4739 0.1492
-13 0 5 0.1831 -0.0092
-13 0 6 4.0627 0.0362
-13 0 7 -4.7710 0.2233
-13 0 8 -9.2734 -0.1135
-13 0 9 -1.0447 -0.1440
-13 0 10 3.1200 -0.0289
-13 0 11 3.4712 -0.0257
-13 0 12 4.6036 0.1316
-13 1 1 -10.4384 -0.0985
-13 1 2 -6.5379 -0.6175
-13 1 3 -1.3845 0.1084
-13 1 4 0.2234 0.0766
-13 1 5 9.8405 0.1339
-13 1 6 2.4094 0.1149
-13 1 7 -0.9356 0.0419
-13 1 8 -7.6484 0.0211
-13 1 9 -7.6305 0.0084
-13 1 10 4.3084 0.0137
-13 1 11 6.7371 0.0861
-13 1 12 5.6363 -0.0588
-13 1 13 6.4423 -0.0608
-13 1 14 6.0267 -0.1232
-13 2 1 7.0065 0.2872
-13 2 2 1.5374 0.0266
-13 2 3 -2.3085 -0.5173
-13 2 4 1.3050 0.1333
-13 2 5 0.5119 -0.0493
-13 2 6 12.1272 -0.0158
-13 2 7 4.5131 0.1314
-13 2 8 -5.9588 0.1879
-13 2 9 -6.0076 0.0832
-13 2 10 -1.8247 0.1214
-13 2 11 7.7134 -0.0777
-13 2 12 5.6676 -0.0914
-13 2 13 3.7204 0.0240
-13 2 14 2.9672 -0.0216
-13 3 1 4.5570 -0.0891
-13 3 2 9.2871 0.0646
-13 3 3 1.1516 0.1554
-13 3 4 -3.9287 -0.3906
-13 3 5 6.0297 -0.0329
-13 3 6 4.8384 -0.0972
-13 3 7 6.8208 0.0684
-13 3 8 -1.1345 0.1996
-13 3 9 -7.4330 0.1969
-13 3 10 1.8173 -0.0840
-13 3 11 2.0592 0.0010
-13 3 12 0.5001 0.0428
-13 3 13 -2.5358 -0.0063
-13 3 14 0.9379 0.1100
-13 4 1 -2.3731 -0.1524
-13 4 2 -3.5885 -0.0116
-13 4 3 3.3149 -0.1288
-13 4 4 4.4511 0.1701
-13 4 5 1.1841 -0.1602
-13 4 6 3.7916 -0.0537
-13 4 7 -2.0860 -0.0524
-13 4 8 -0.8608 0.0192
-13 4 9 0.6564 -0.0821
-13 4 10 -1.9969 0.0442
-13 4 11 0.0974 0.0696
-13 4 12 -7.4657 0.1673
-13 4 13 -8.0819 0.2009
-13 5 1 -7.8392 0.2383
-13 5 2 -4.4557 -0.1955
-13 5 3 0.3450 0.0442
-13 5 4 1.7307 -0.1333
-13 5 5 0.1333 0.1307
-13 5 6 -3.9708 0.0315
-13 5 7 0.1344 -0.1136
-13 5 8 -2.0225 -0.2050
-13 5 9 0.0117 -0.0924
-13 5 10 -0.1032 -0.1345
-13 5 11 -6.8264 0.0971
-13 5 12 -7.3245 0.3219
-13 6 1 7.3046 -0.0488
-13 6 2 0.4650 0.1042
-13 6 3 -3.5327 -0.1581
-13 6 4 -3.3658 0.1744
-13 6 5 -5.5071 -0.0152
-13 6 6 -1.4219 -0.0666
-13 6 7 -1.8453 -0.0466
-13 6 8 1.5968 -0.1772
-13 6 9 -3.9184 -0.1741
-13 6 10 -2.7850 0.0657
-13 6 11 -1.3422 -0.0151
-13 6 12 -7.4400 -0.0339
-13 7 1 8.0716 0.0877
-13 7 2 8.2770 -0.2421
-13 7 3 -1.2748 0.0463
-13 7 4 -8.2709 0.0589
-13 7 5 -0.1533 0.1944
-13 7 6 -2.6941 -0.1175
-13 7 7 -0.7162 -0.2726
-13 7 8 -3.4663 -0.0010
-13 7 9 -0.4697 -0.0200
-13 7 10 -3.1377 -0.0699
-13 7 11 -1.6765 0.0824
-13 8 1 7.3982 0.1827
-13 8 2 9.8113 0.2993
-13 8 3 2.9023 -0.1699
-13 8 4 -0.0501 -0.1165
-13 8 5 -5.1882 -0.0379
-13 8 6 2.4015 0.1181
-13 8 7 -4.2110 0.0890
-13 8 8 -2.3127 -0.0507
-13 8 9 -1.8838 -0.0770
-13 9 4 -2.6390 -0.3081
-13 9 5 -2.8724 -0.2227
-13 9 6 -3.6228 0.1517
-13 9 7 2.0127 0.3260
-13 10 5 -6.5285 -0.1469
-12 -13 1 4.7597 0.2666
-12 -12 1 5.0741 0.5674
-12 -12 2 4.5796 0.3915
-12 -12 3 -2.0042 -0.0602
-12 -11 1 0.8849 -0.1968
-12 -11 2 2.5330 0.3419
-12 -11 3 -0.9832 0.3914
-12 -11 4 -2.2138 0.0098
-12 -11 5 -3.1235 0.1492
-12 -10 1 -0.2079 -0.6924
-12 -10 2 -1.6874 -0.1965
-12 -10 3 1.0198 0.2316
-12 -10 4 0.7376 0.2587
-12 -10 5 4.7298 0.0480
-12 -10 6 6.4315 0.0875
-12 -9 1 3.3461 -0.3579
-12 -9 2 0.1094 -0.5292
-12 -9 3 -1.6774 -0.1502
-12 -9 4 3.5664 0.1615
-12 -9 5 6.0104 0.0067
-12 -9 6 8.6496 -0.0044
-12 -9 7 7.3418 0.1204
-12 -8 1 4.0691 0.0970
-12 -8 2 6.4231 -0.3861
-12 -8 3 1.6639 -0.2404
-12 -8 4 -0.5038 -0.1343
-12 -8 5 3.8728 0.0874
-12 -8 6 4.8239 -0.0324
-12 -8 7 1.7773 -0.0147
-12 -8 8 0.9185 0.0503
-12 -8 9 -5.1807 0.1068
-12 -7 1 1.4201 0.7622
-12 -7 2 6.2548 0.0648
-12 -7 3 6.8778 -0.3504
-12 -7 4 -0.0398 0.0763
-12 -7 5 -6.8525 -0.0390
-12 -7 6 -0.7029 0.0136
-12 -7 7 2.8890 -0.0334
-12 -7 8 -4.0333 -0.1378
-12 -7 9 -1.6013 -0.1105
-12 -7 10 -2.1682 0.1298
-12 -6 1 1.8881 0.0182
-12 -6 2 0.8037 0.4905
-12 -6 3 1.3772 0.1339
-12 -6 4 0.2021 -0.1780
-12 -6 5 -2.5689 0.1536
-12 -6 6 -7.4242 -0.0195
-12 -6 7 -0.4119 -0.0797
-12 -6 8 1.1135 0.0020
-12 -6 9 -9.8730 -0.1318
-12 -6 10 0.7330 -0.1628
-12 -6 11 6.8039 0.1616
-12 -5 1 4.5431 -0.6789
-12 -5 2 -4.4538 0.0250
-12 -5 3 -5.3396 0.3473
-12 -5 4 2.6501 0.1089
-12 -5 5 -0.0131 -0.1021
-12 -5 6 -2.9379 0.0522
-12 -5 7 -6.5325 0.0665
-12 -5 8 -3.6368 -0.0963
-12 -5 9 1.6235 0.0199
-12 -5 10 -5.9961 0.0085
-12 -5 11 7.4524 -0.0723
-12 -5 12 9.2207 0.1041
-12 -4 1 1.3325 0.4587
-12 -4 2 -1.6936 -0.5337
-12 -4 3 -2.9547 -0.0687
-12 -4 4 -1.7028 0.2163
-12 -4 5 3.6817 -0.0160
-12 -4 6 -4.6850 -0.0195
-12 -4 7 -6.2846 0.0021
-12 -4 8 0.8120 0.1487
-12 -4 9 -0.0711 -0.0895
-12 -4 10 4.0223 0.0469
-12 -4 11 -4.8127 0.1266
-12 -4 12 5.6824 -0.0956
-12 -4 13 7.6153 -0.1058
-12 -3 1 4.1671 0.3868
-12 -3 2 -1.2578 0.4384
-12 -3 3 -3.1818 -0.3948
-12 -3 4 1.4308 -0.1958
-12 -3 5 -1.5852 0.1695
-12 -3 6 -1.5073 -0.0579
-12 -3 7 -1.3426 0.0946
-12 -3 8 -0.6521 -0.0296
-12 -3 9 7.3080 0.1042
-12 -3 10 -1.2757 -0.1252
-12 -3 11 0.6698 0.0181
-12 -3 12 -2.8536 0.1386
-12 -3 13 2.5286 -0.0645
-12 -3 14 2.8905 -0.0842
-12 -2 1 7.8426 0.5588
-12 -2 2 4.5135 0.4063
-12 -2 3 -2.3560 0.2499
-12 -2 4 -1.9417 -0.1977
-12 -2 5 3.1475 -0.0950
-12 -2 6 -0.5891 0.1894
-12 -2 7 -1.7575 -0.1510
-12 -2 8 6.0812 0.0506
-12 -2 9 2.3283 -0.0920
-12 -2 10 5.5430 0.0717
-12 -2 11 -1.2848 -0.0438
-12 -2 12 -3.1835 0.0430
-12 -2 13 -5.4367 0.0995
-12 -2 14 -5.5996 -0.0667
-12 -2 15 -1.5062 -0.0404
-12 -1 1 5.6634 -0.9178
-12 -1 2 8.6235 0.4665
-12 -1 3 5.7733 0.4505
-12 -1 4 -1.8265 0.1784
-12 -1 5 -2.0538 -0.0219
-12 -1 6 0.8431 -0.0400
-12 -1 7 1.8730 0.0509
-12 -1 8 2.1266 -0.2058
-12 -1 9 8.6410 0.1389
-12 -1 10 1.4428 -0.0197
-12 -1 11 -1.1410 0.0050
-12 -1 12 -2.7363 -0.0496
-12 -1 13 -7.8165 -0.0062
-12 -1 14 -6.9797 0.0429
-12 -1 15 -6.8097 -0.0116
-12 0 1 4.4288 -1.1710
-12 0 2 11.3453 -0.6707
-12 0 3 2.5562 0.4810
-12 0 4 -1.8350 0.3033
-12 0 5 -2.2554 0.0004
-12 0 6 -1.2845 0.0128
-12 0 7 0.1463 0.1158
-12 0 8 3.2203 0.0992
-12 0 9 1.9681 -0.1550
-12 0 10 1.9396 0.0904
-12 0 11 -0.7762 -0.1103
-12 0 12 -3.4666 -0.0914
-12 0 13 -0.7258 0.0536
-12 0 14 -7.8140 0.0441
-12 0 15 -8.2255 -0.0010
-12 0 16 -6.6054 0.0148
-12 1 1 1.8523 0.2405
-12 1 2 0.4052 -1.1108
-12 1 3 1.7065 -0.5213
-12 1 4 -4.7350 0.3485
-12 1 5 -3.3711 0.0128
-12 1 6 0.4115 0.0324
-12 1 7 -4.1727 0.1984
-12 1 8 -3.6800 0.1799
-12 1 9 0.1729 -0.0621
-12 1 10 0.0108 -0.1943
-12 1 11 -1.2164 0.1177
-12 1 12 2.7467 -0.0068
-12 1 13 -1.0664 -0.0989
-12 1 14 -0.5977 0.0213
-12 1 15 -5.4963 -0.0305
-12 1 16 -7.4695 0.0224
-12 2 1 -6.6883 0.5091
-12 2 2 3.2675 0.1309
-12 2 3 2.1315 -0.8571
-12 2 4 -1.4723 -0.4055
-12 2 5 -7.4877 0.2947
-12 2 6 -8.4267 -0.1811
-12 2 7 -1.4877 0.0147
-12 2 8 -3.2594 0.1527
-12 2 9 -2.6198 0.0989
-12 2 10 -2.3859 -0.0473
-12 2 11 -1.0648 0.0142
-12 2 12 1.8979 0.1212
-12 2 13 8.8226 -0.0680
-12 2 14 2.8590 -0.1481
-12 2 15 -1.0830 0.0349
-12 2 16 -3.1178 0.0520
-12 2 17 -7.2095 0.1796
-12 3 1 -7.4404 1.0371
-12 3 2 0.1785 0.4593
-12 3 3 11.6659 0.0436
-12 3 4 1.6824 -0.3991
-12 3 5 -11.0264 -0.2889
-12 3 6 -9.2952 0.1113
-12 3 7 -4.0112 -0.3840
-12 3 8 3.8472 0.0061
-12 3 9 -0.5564 0.1780
-12 3 10 -5.6455 0.1377
-12 3 11 -2.3508 -0.0550
-12 3 12 6.9875 0.0147
-12 3 13 10.2034 0.0607
-12 3 14 8.0165 0.0713
-12 3 15 -0.3535 0.0210
-12 3 16 -3.2343 -0.0444
-12 3 17 0.7163 0.0199
-12 4 1 -1.2637 -0.7153
-12 4 2 -1.0593 0.8066
-12 4 3 -0.7194 0.4570
-12 4 4 5.8832 -0.0603
-12 4 5 0.2472 -0.0198
-12 4 6 -5.6089 -0.1468
-12 4 7 -2.7167 -0.0175
-12 4 8 -1.2861 -0.3838
-12 4 9 3.4300 0.0331
-12 4 10 2.6453 0.0433
-12 4 11 -0.7995 0.0744
-12 4 12 4.5760 -0.0496
-12 4 13 10.3446 0.0759
-12 4 14 4.4808 0.1543
-12 4 15 0.5329 0.1458
-12 4 16 2.5038 0.0103
-12 4 17 1.8982 -0.1596
-12 5 1 1.6768 -0.3139
-12 5 2 -6.4268 -0.4894
-12 5 3 -4.0912 0.4954
-12 5 4 1.0694 0.3817
-12 5 5 7.9799 -0.1050
-12 5 6 1.5161 0.2195
-12 5 7 -4.4409 0.0436
-12 5 8 -2.7466 -0.0420
-12 5 9 3.4423 -0.3667
-12 5 10 10.2703 -0.0270
-12 5 11 6.5233 -0.1065
-12 5 12 -2.1191 0.0893
-12 5 13 1.4874 0.0155
-12 5 14 7.6371 0.0515
-12 5 15 2.2221 0.2097
-12 5 16 1.3743 0.1118
-12 5 17 4.6893 -0.0250
-12 6 1 -3.9261 0.0941
-12 6 2 -3.5869 -0.2354
-12 6 3 0.7837 -0.1972
-12 6 4 4.4445 0.1782
-12 6 5 -2.9802 0.2089
-12 6 6 -0.5624 -0.0175
-12 6 7 -0.3309 0.2846
-12 6 8 -0.0947 0.0871
-12 6 9 3.6716 -0.0166
-12 6 10 7.4575 -0.2789
-12 6 11 8.2250 -0.0137
-12 6 12 0.1519 -0.1756
-12 6 13 -3.7366 0.0427
-12 6 14 2.8108 0.1127
-12 6 15 7.7351 0.0753
-12 6 16 0.6417 0.1691
-12 6 17 -1.1474 -0.1978
-12 7 1 1.8256 0.4378
-12 7 2 -7.4063 0.1865
-12 7 3 1.3787 -0.2750
-12 7 4 5.8205 -0.0437
-12 7 5 -0.6302 0.1328
-12 7 6 -9.4447 0.1351
-12 7 7 0.9917 -0.0317
-12 7 8 5.5621 0.0351
-12 7 9 -1.3554 0.0355
-12 7 10 1.6242 0.2339
-12 7 11 6.1840 -0.0328
-12 7 12 5.7416 -0.0051
-12 7 13 -2.2792 -0.2169
-12 7 15 2.8048 0.2136
-12 7 16 6.1511 -0.0708
-12 8 1 6.9760 -0.2516
-12 8 2 -5.4393 0.2741
-12 8 3 -11.2526 0.2306
-12 8 4 4.3968 -0.1528
-12 8 5 9.0951 0.0183
-12 8 6 -1.9446 0.0687
-12 8 7 -5.7610 -0.0760
-12 8 8 1.5382 -0.0752
-12 8 9 2.2975 0.0320
-12 8 10 -6.6325 0.1252
-12 8 11 2.0699 0.3524
-12 8 12 7.5707 0.0633
-12 8 15 0.0608 -0.0878
-12 9 1 18.2998 -0.5316
-12 9 2 -0.3943 -0.1376
-12 9 3 -11.0443 0.3226
-12 9 4 0.3798 0.1558
-12 9 5 10.4718 -0.2849
-12 9 6 5.0688 -0.1889
-12 9 7 -6.2619 0.1712
-12 9 8 -1.1381 0.1142
-12 9 9 0.3721 0.0592
-12 9 10 -2.7338 -0.0446
-12 10 1 10.6764 -0.1161
-12 10 2 17.9697 -0.4813
-12 10 3 -0.1072 -0.3182
-12 10 4 -6.5143 0.1867
-12 10 5 6.1846 0.0896
-12 10 6 2.8335 -0.1371
-12 10 7 -0.8869 -0.0933
-12 10 8 -2.9290 0.2075
-12 11 1 4.7963 0.5300
-12 11 2 21.1341 -0.5427
-12 11 3 7.9528 -0.7748
-12 11 4 -6.3290 -0.1438
-12 11 5 -4.0778 0.6672
-11 -14 1 2.0057 -0.0915
-11 -14 2 0.6412 0.3026
-11 -13 1 7.6057 -0.0953
-11 -13 2 4.6130 -0.1041
-11 -13 3 1.9419 0.1947
-11 -13 4 4.2249 0.1618
-11 -12 1 8.2506 -0.4175
-11 -12 2 10.4133 -0.2783
-11 -12 3 8.0224 -0.0121
-11 -12 4 1.9750 0.0379
-11 -12 5 -1.5693 0.1018
-11 -11 1 -1.1947 0.3744
-11 -11 2 13.6539 -0.1732
-11 -11 3 8.8303 -0.3942
-11 -11 4 -0.6830 0.0604
-11 -11 5 -1.9426 -0.0842
-11 -11 6 -4.8134 0.0551
-11 -11 7 1.2424 -0.0124
-11 -10 1 -2.3617 -0.1191
-11 -10 2 0.7401 0.2991
-11 -10 3 7.9445 0.0424
-11 -10 4 1.6340 -0.3785
-11 -10 5 -9.0772 0.0962
-11 -10 6 -2.1665 -0.1095
-11 -10 7 -2.6869 -0.0547
-11 -10 8 0.3365 -0.0635
-11 -10 9 3.4197 0.0548
-11 -9 1 -4.6138 -0.4387
-11 -9 2 -1.7604 0.0890
-11 -9 3 2.0475 0.2132
-11 -9 4 -0.3513 0.1522
-11 -9 5 -4.1095 -0.1919
-11 -9 6 -9.6570 0.0234
-11 -9 7 1.8448 -0.1929
-11 -9 8 4.3186 -0.1012
-11 -9 9 -0.6626 -0.0222
-11 -9 10 5.1127 0.0917
-11 -8 1 -1.6499 0.2821
-11 -8 2 -6.2310 -0.5221
-11 -8 3 2.7201 0.1484
-11 -8 4 4.6524 0.1788
-11 -8 5 -6.4263 0.0865
-11 -8 6 -5.5015 -0.0345
-11 -8 7 -2.1347 0.0479
-11 -8 8 3.9037 -0.0924
-11 -8 9 4.8657 -0.0385
-11 -8 10 -3.6813 -0.0486
-11 -8 11 3.0163 -0.0547
-11 -7 1 -3.4002 0.2480
-11 -7 2 -1.7464 0.2819
-11 -7 3 1.5805 -0.4918
-11 -7 4 8.3374 -0.0421
-11 -7 5 3.8637 0.1914
-11 -7 6 -11.1976 0.0880
-11 -7 7 -6.6581 0.1199
-11 -7 8 4.1899 0.1203
-11 -7 9 2.4170 -0.0612
-11 -7 10 1.0301 -0.1070
-11 -7 11 -5.4779 -0.0547
-11 -7 12 -0.9930 -0.1327
-11 -7 13 2.6731 0.0410
-11 -6 1 1.0307 0.3311
-11 -6 2 -0.3572 0.1510
-11 -6 3 3.5518 0.1169
-11 -6 4 4.6378 -0.3152
-11 -6 5 3.0480 -0.1309
-11 -6 6 -1.2872 0.2255
-11 -6 7 -9.1413 0.0496
-11 -6 8 -2.7449 0.0665
-11 -6 9 5.3186 0.1102
-11 -6 10 -3.5244 -0.0001
-11 -6 11 -4.7473 -0.1246
-11 -6 12 -3.8620 -0.0028
-11 -6 13 0.0410 -0.1149
-11 -6 14 3.9451 -0.0015
-11 -5 1 2.3253 -0.2342
-11 -5 2 8.1349 0.2042
-11 -5 3 -2.5795 0.1579
-11 -5 4 -4.1143 0.0091
-11 -5 5 1.9962 -0.0455
-11 -5 6 2.7429 -0.1292
-11 -5 7 2.3132 0.0800
-11 -5 8 -3.9031 -0.0443
-11 -5 9 -5.1305 -0.0050
-11 -5 10 -1.7956 0.0736
-11 -5 11 -5.0657 0.0908
-11 -5 12 -1.9640 -0.0129
-11 -5 13 -1.6057 0.1034
-11 -5 14 -1.2919 -0.0466
-11 -5 15 0.5689 -0.1075
-11 -4 1 7.8084 -0.3034
-11 -4 2 3.6841 -0.1015
-11 -4 3 1.3953 0.0729
-11 -4 4 -6.8462 0.2076
-11 -4 5 -6.6078 -0.0203
-11 -4 6 6.0701 0.0905
-11 -4 7 4.9242 -0.1151
-11 -4 8 1.4080 -0.1009
-11 -4 9 -3.1556 -0.0899
-11 -4 10 -7.1057 0.0248
-11 -4 11 -4.6315 0.1062
-11 -4 12 -3.7355 0.1705
-11 -4 13 1.4879 0.0551
-11 -4 14 -0.8011 0.0098
-11 -4 15 0.5693 -0.0898
-11 -4 16 0.3788 -0.0601
-11 -3 1 -1.8191 0.4020
-11 -3 2 7.9522 -0.2649
-11 -3 3 1.0892 0.0840
-11 -3 4 -5.7074 0.0291
-11 -3 5 -5.1543 0.1184
-11 -3 6 -4.5748 -0.0897
-11 -3 7 5.4410 0.0883
-11 -3 8 4.5648 -0.0212
-11 -3 9 0.3987 -0.0856
-11 -3 10 -2.0268 -0.0324
-11 -3 11 -8.4340 0.0339
-11 -3 12 -4.7817 0.0253
-11 -3 13 0.2740 0.0241
-11 -3 14 7.5366 0.0501
-11 -3 15 0.4085 0.0554
-11 -3 16 -0.6901 0.0125
-11 -3 17 -0.6222 0.0587
-11 -2 1 -3.0379 -0.1572
-11 -2 2 -4.1555 0.5543
-11 -2 3 0.0776 -0.1744
-11 -2 4 -1.5502 0.0905
-11 -2 5 -6.7918 -0.0081
-11 -2 6 -0.9740 -0.0115
-11 -2 7 -1.1693 -0.0789
-11 -2 8 -0.0715 0.1303
-11 -2 9 2.6605 0.0557
-11 -2 10 0.8966 -0.0914
-11 -2 11 1.4400 -0.0426
-11 -2 12 -4.7258 -0.0261
-11 -2 13 -2.4634 -0.0045
-11 -2 14 0.3370 -0.0211
-11 -2 15 6.5640 0.0953
-11 -2 16 2.1209 0.0941
-11 -2 17 2.0273 -0.0204
-11 -1 1 -7.0827 -0.6848
-11 -1 2 -9.2010 -0.1756
-11 -1 3 -4.8893 0.4427
-11 -1 4 -0.1150 -0.1322
-11 -1 5 1.8304 0.0693
-11 -1 6 -2.8285 0.1016
-11 -1 7 -2.0776 -0.0511
-11 -1 8 -1.0439 -0.1635
-11 -1 9 -2.7565 0.0553
-11 -1 10 5.7585 0.0649
-11 -1 11 5.4179 -0.0485
-11 -1 12 2.1891 0.0585
-11 -1 13 -4.6661 -0.0413
-11 -1 14 -3.6920 -0.0341
-11 -1 15 0.6235 -0.0416
-11 -1 16 7.4736 0.0690
-11 -1 17 5.7329 0.1076
-11 -1 18 2.3663 0.0563
-11 0 1 -12.5672 -0.6974
-11 0 2 -9.3820 -0.7315
-11 0 3 -0.0501 -0.0418
-11 0 4 3.5660 0.2509
-11 0 5 0.0176 -0.0705
-11 0 6 -0.6626 0.0442
-11 0 7 2.2829 0.0599
-11 0 8 0.5147 -0.0715
-11 0 9 2.4536 -0.1424
-11 0 10 -1.7105 0.0787
-11 0 11 2.6887 0.0863
-11 0 12 4.3164 -0.0972
-11 0 13 2.2285 0.0724
-11 0 14 0.0514 -0.0281
-11 0 15 -3.3136 0.0104
-11 0 16 -2.6156 0.0260
-11 0 17 2.5994 0.0251
-11 0 18 5.6484 0.0540
-11 0 19 4.1622 0.0929
-11 1 1 -2.6257 0.4724
-11 1 2 -5.8560 -0.5887
-11 1 3 -2.9064 -0.6715
-11 1 4 3.4110 0.1407
-11 1 5 2.5970 -0.0182
-11 1 6 3.3636 -0.1770
-11 1 7 5.1781 0.0720
-11 1 8 8.3354 0.0815
-11 1 9 -0.6668 0.0679
-11 1 10 -1.6207 -0.0743
-11 1 11 -2.3250 -0.0597
-11 1 12 -0.0034 0.0318
-11 1 13 6.2138 -0.0855
-11 1 14 2.7461 0.0990
-11 1 15 -1.1603 0.0085
-11 1 16 -7.3098 0.0036
-11 1 17 -4.9653 0.0007
-11 1 18 2.4909 -0.0544
-11 1 19 6.7097 -0.0157
-11 2 1 0.1775 1.6017
-11 2 2 -5.1454 0.2792
-11 2 3 -6.3494 -0.3668
-11 2 4 -1.6508 -0.5581
-11 2 5 8.5517 0.1936
-11 2 6 6.7336 -0.1258
-11 2 7 6.1273 -0.2236
-11 2 8 3.8102 0.1454
-11 2 9 4.1425 0.0342
-11 2 10 -0.3454 0.0668
-11 2 11 -2.0993 -0.0078
-11 2 12 -3.4947 -0.0907
-11 2 13 -5.8518 0.0606
-11 2 14 3.8719 -0.1069
-11 2 15 2.2896 -0.0622
-11 2 16 -0.8669 -0.0048
-11 2 17 -5.1865 0.0316
-11 2 18 -4.7481 -0.0426
-11 2 19 0.8822 -0.1807
-11 2 20 4.8611 -0.1072
-11 3 1 -1.3835 0.3206
-11 3 2 -7.3837 1.5787
-11 3 3 -3.5560 0.0310
-11 3 4 3.8352 -0.0899
-11 3 5 2.3339 -0.2746
-11 3 6 2.8053 0.1421
-11 3 7 1.4019 -0.1427
-11 3 8 5.5452 -0.2903
-11 3 9 5.7587 0.1367
-11 3 10 2.6329 0.0478
-11 3 11 -2.6205 0.0604
-11 3 12 -8.3441 0.0218
-11 3 13 -6.9083 -0.1115
-11 3 14 -4.3528 0.0353
-11 3 15 5.4646 -0.0663
-11 3 16 0.7750 -0.1400
-11 3 17 -3.1934 -0.0583
-11 3 18 -2.0629 -0.0792
-11 3 19 -1.0824 -0.1070
-11 3 20 1.7967 -0.1474
-11 4 1 -5.4376 -1.0018
-11 4 2 -1.5300 0.0469
-11 4 3 0.8891 1.3253
-11 4 4 1.1488 -0.0769
-11 4 5 1.3523 0.0767
-11 4 6 -5.7214 -0.0108
-11 4 7 -1.7639 0.0283
-11 4 8 6.3661 -0.0932
-11 4 9 7.0476 -0.2197
-11 4 10 -0.2078 0.1061
-11 4 11 -3.6271 -0.0019
-11 4 12 -3.2405 -0.0280
-11 4 13 -5.2623 0.0331
-11 4 14 -3.4400 0.0367
-11 4 15 -4.8464 0.0692
-11 4 16 -1.7365 -0.0635
-11 4 17 -1.0422 -0.2768
-11 4 18 2.4978 -0.1401
-11 4 19 5.1456 -0.0060
-11 4 20 -0.4380 0.1306
-11 5 1 8.4888 -0.6933
-11 5 2 0.5211 -0.6893
-11 5 3 -1.3056 -0.1642
-11 5 4 -3.7764 0.8639
-11 5 5 -1.0183 -0.0867
-11 5 6 3.3829 0.1401
-11 5 7 -5.5990 0.2023
-11 5 8 -3.2126 0.0015
-11 5 9 4.5286 -0.0582
-11 5 10 4.0155 -0.1535
-11 5 11 -1.4472 0.0268
-11 5 12 0.7342 -0.0236
-11 5 13 -0.8967 0.0627
-11 5 14 -6.7781 0.0315
-11 5 15 -5.4394 0.0084
-11 5 16 -5.5635 -0.0063
-11 5 17 -1.7953 0.0416
-11 5 18 2.8389 -0.1254
-11 5 19 4.2512 -0.0669
-11 5 20 1.5760 0.0113
-11 6 1 2.1351 0.3000
-11 6 2 6.2173 -0.5517
-11 6 3 -3.5453 -0.3662
-11 6 4 -2.4276 -0.1518
-11 6 5 2.9722 0.3451
-11 6 6 0.4589 -0.1452
-11 6 7 -2.4989 0.1816
-11 6 8 -11.6862 0.3256
-11 6 9 -1.0978 0.0010
-11 6 10 10.3659 -0.0554
-11 6 11 8.3044 -0.0705
-11 6 12 -2.4568 0.0260
-11 6 13 -2.8878 -0.0571
-11 6 14 -3.1548 0.0817
-11 6 15 -4.7261 -0.0848
-11 6 16 -2.2709 0.0009
-11 6 17 -5.0758 0.1474
-11 6 18 -4.0582 0.1539
-11 6 19 1.1032 -0.1741
-11 7 1 -9.5294 0.4065
-11 7 2 -0.6355 0.3118
-11 7 3 8.6513 -0.1991
-11 7 4 0.5630 -0.1778
-11 7 5 -1.5041 -0.1633
-11 7 6 2.0823 -0.0337
-11 7 7 -9.9108 -0.1017
-11 7 8 -7.1104 0.2558
-11 7 9 -2.6807 0.1903
-11 7 10 8.9771 -0.0792
-11 7 11 10.1775 0.0626
-11 7 12 3.2425 0.0269
-11 7 13 -5.2815 -0.0447
-11 7 14 -3.5162 -0.1361
-11 7 15 -0.4062 0.1628
-11 7 16 -4.0836 -0.0209
-11 7 17 -5.1458 -0.0379
-11 7 18 -5.9112 0.0281
-11 8 1 -10.2604 -0.2987
-11 8 2 -4.8609 0.2394
-11 8 3 4.8386 0.1072
-11 8 4 1.2317 0.0294
-11 8 5 -3.5885 0.0095
-11 8 6 -0.6110 -0.0575
-11 8 7 3.0083 -0.1427
-11 8 8 -12.2707 -0.1848
-11 8 9 -4.7192 0.0754
-11 8 10 5.5243 -0.0118
-11 8 11 8.4790 0.0548
-11 8 12 4.4736 0.2693
-11 8 13 1.5760 -0.0338
-11 8 14 -2.9102 -0.1275
-11 8 16 -2.8015 0.2683
-11 9 1 -6.2323 -0.5247
-11 9 2 -9.7947 -0.4973
-11 9 3 -4.2541 0.2775
-11 9 4 -0.1324 0.0997
-11 9 5 -3.1824 0.1535
-11 9 6 5.3338 -0.0150
-11 9 7 6.0634 -0.2306
-11 9 8 -2.6320 -0.1163
-11 9 9 -13.7467 -0.0938
-11 9 10 -0.7966 -0.0240
-11 9 11 8.8564 -0.1619
-11 9 12 3.7275 0.1208
-11 9 13 1.0468 0.3489
-11 10 1 -1.8128 -0.0167
-11 10 2 -20.0619 -0.3191
-11 10 3 -5.6661 -0.1650
-11 10 4 6.4976 0.3839
-11 10 5 3.4232 -0.2001
-11 10 6 -0.9723 -0.2509
-11 10 7 6.5507 -0.0498
-11 10 8 4.0652 0.0045
-11 10 9 -7.3178 0.2114
-11 10 10 -7.6590 -0.2186
-11 10 11 2.9863 -0.4075
-11 11 1 -0.4895 0.7286
-11 11 2 -9.7474 0.0592
-11 11 3 -10.1197 -0.0827
-11 11 4 8.8570 -0.1496
-11 11 5 9.3687 0.0464
-11 11 6 -2.5397 -0.2399
-11 11 7 -0.1883 -0.1206
-11 11 8 5.8019 0.1674
-11 11 9 3.1420 -0.0548
-11 12 1 13.5307 0.0942
-11 12 2 1.1167 0.5163
-11 12 3 -5.9918 -0.1673
-11 12 4 -1.8770 -0.1562
-11 12 5 6.8136 0.0637
-10 -15 1 3.6098 0.2385
-10 -15 2 9.7713 0.4325
-10 -14 1 -0.7908 -0.4890
-10 -14 2 8.3303 0.2701
-10 -14 3 5.3002 0.2409
-10 -14 4 -5.0020 0.0654
-10 -13 1 -8.4083 -0.8758
-10 -13 2 2.0755 -0.3600
-10 -13 3 5.2385 0.1331
-10 -13 4 -3.2546 0.0649
-10 -13 5 -6.3587 0.1263
-10 -13 6 -3.9524 0.1189
-10 -12 1 -8.9505 0.7326
-10 -12 2 -6.6798 -0.8181
-10 -12 3 1.1396 -0.3292
-10 -12 4 4.7286 0.0128
-10 -12 5 -3.6537 -0.0889
-10 -12 6 -5.7554 0.1300
-10 -12 7 -0.2790 0.1033
-10 -12 8 6.5453 0.0846
-10 -11 1 -7.4368 0.6319
-10 -11 2 -7.7711 0.7294
-10 -11 3 2.5319 -0.6316
-10 -11 4 3.0921 -0.2831
-10 -11 5 1.7298 0.0168
-10 -11 6 -2.4730 -0.2253
-10 -11 7 -4.4492 0.0846
-10 -11 8 3.3812 0.1194
-10 -11 9 5.8725 0.1265
-10 -10 1 -6.2987 0.3962
-10 -10 2 1.5501 0.5545
-10 -10 3 -2.2707 0.5884
-10 -10 4 3.3778 -0.3388
-10 -10 5 1.9596 -0.2115
-10 -10 6 -1.7030 0.1082
-10 -10 7 0.6683 -0.2533
-10 -10 8 -3.1198 -0.0273
-10 -10 9 1.1591 0.0077
-10 -10 10 2.8589 0.0090
-10 -10 11 -4.8018 0.0120
-10 -9 1 -6.2725 -1.0208
-10 -9 2 -0.5690 0.3190
-10 -9 3 4.6019 0.5109
-10 -9 4 -2.0417 0.2839
-10 -9 5 -1.0001 -0.0550
-10 -9 6 2.1270 -0.0076
-10 -9 7 -4.0305 0.1597
-10 -9 8 1.7822 -0.3349
-10 -9 9 1.2336 -0.2039
-10 -9 10 -0.9009 -0.0246
-10 -9 11 1.9192 0.0511
-10 -9 12 -2.6727 0.0198
-10 -9 13 -6.1708 0.1584
-10 -9 14 -1.0662 0.0058
-10 -9 15 0.9892 0.0583
-10 -9 16 5.3012 -0.1422
-10 -9 17 -1.0743 -0.2581
-10 -8 1 -4.5059 -0.4774
-10 -8 2 1.4141 -0.8525
-10 -8 3 -1.1536 0.1160
-10 -8 4 0.0774 0.4292
-10 -8 5 0.2999 0.0478
-10 -8 6 -2.7445 0.1074
-10 -8 7 2.0543 0.1129
-10 -8 8 -1.3670 0.0986
-10 -8 9 3.6058 -0.2444
-10 -8 10 4.9957 -0.1236
-10 -8 11 -3.7104 -0.0074
-10 -8 12 0.7890 -0.0207
-10 -8 13 0.5739 -0.1098
-10 -8 14 -6.5270 0.1440
-10 -8 15 -0.8680 0.0099
-10 -8 16 1.7593 -0.0462
-10 -8 17 4.3350 -0.0663
-10 -7 1 -6.0101 0.4315
-10 -7 2 -6.4272 -0.5470
-10 -7 3 1.7067 -0.5311
-10 -7 4 -0.1334 -0.0189
-10 -7 5 1.1983 0.2311
-10 -7 6 7.0356 -0.1054
-10 -7 7 -2.1521 0.1461
-10 -7 8 -2.8970 0.2145
-10 -7 9 1.5518 0.1025
-10 -7 10 3.9669 -0.0786
-10 -7 11 5.6268 -0.0524
-10 -7 12 -3.1941 -0.0718
-10 -7 13 -0.1544 -0.0634
-10 -7 14 4.0186 -0.1527
-10 -7 15 -2.6992 0.0594
-10 -7 16 2.5313 -0.0444
-10 -7 17 3.4176 -0.0635
-10 -7 18 0.8152 0.1444
-10 -6 1 -6.0260 0.7549
-10 -6 2 -9.5221 0.5751
-10 -6 3 -2.8847 -0.5480
-10 -6 4 7.4825 -0.2664
-10 -6 5 6.8154 -0.0345
-10 -6 6 2.7116 0.0199
-10 -6 7 3.4462 -0.1194
-10 -6 8 -5.1926 0.1201
-10 -6 9 -6.5129 0.1956
-10 -6 10 4.8989 0.0823
-10 -6 11 3.5133 0.0688
-10 -6 12 3.3723 0.0232
-10 -6 13 0.9993 -0.1276
-10 -6 14 2.1271 -0.0870
-10 -6 15 7.7795 -0.1494
-10 -6 16 1.9898 -0.0031
-10 -6 17 1.1393 0.0195
-10 -6 18 1.6043 0.0483
-10 -6 19 0.0617 0.1556
-10 -5 1 -0.5793 -0.3301
-10 -5 2 -9.9096 0.5146
-10 -5 3 -0.6054 0.5734
-10 -5 4 5.3482 -0.4079
-10 -5 5 7.3865 -0.1146
-10 -5 6 4.6007 0.0292
-10 -5 7 -0.5090 -0.1413
-10 -5 8 -2.1120 -0.1138
-10 -5 9 -3.9090 0.0734
-10 -5 10 -5.8342 0.1434
-10 -5 11 2.5036 0.0323
-10 -5 12 3.5292 0.0957
-10 -5 13 4.5642 0.0567
-10 -5 14 4.6083 -0.0743
-10 -5 15 1.3204 0.0399
-10 -5 16 5.9438 -0.0623
-10 -5 17 5.5955 -0.0985
-10 -4 1 2.9502 -0.7370
-10 -4 2 3.6855 -0.2718
-10 -4 3 -6.0222 0.3248
-10 -4 4 3.0157 0.3865
-10 -4 5 5.2246 -0.2340
-10 -4 6 3.3680 -0.0532
-10 -4 7 1.6896 0.1010
-10 -4 8 -1.7762 -0.1769
-10 -4 9 -3.5195 -0.0979
-10 -4 10 -0.8214 -0.0186
-10 -4 11 -2.8589 0.0427
-10 -4 12 -1.9485 0.0064
-10 -4 13 1.8769 0.1591
-10 -4 14 3.6650 0.1549
-10 -4 15 2.6579 -0.0128
-10 -4 16 2.2345 0.0434
-10 -4 17 5.6092 -0.0533
-10 -4 18 5.4552 -0.0836
-10 -3 1 3.2178 0.1562
-10 -3 2 1.1478 -0.6143
-10 -3 3 7.0136 -0.3117
-10 -3 4 -1.9193 0.2177
-10 -3 5 -0.5360 0.1718
-10 -3 6 2.4584 -0.0886
-10 -3 7 2.0494 -0.0108
-10 -3 8 1.4570 0.0894
-10 -3 9 0.5213 -0.1826
-10 -3 10 1.0087 -0.0418
-10 -3 11 -0.2334 -0.0351
-10 -3 12 -5.6602 0.0370
-10 -3 13 -6.5598 0.0332
-10 -3 14 1.3936 0.0817
-10 -3 15 5.9891 0.0730
-10 -3 16 -0.4815 0.0274
-10 -3 17 -0.2919 0.0979
-10 -3 18 0.5230 0.0393
-10 -3 19 1.8820 -0.0086
-10 -2 1 4.0163 0.2738
-10 -2 2 16.0797 0.1282
-10 -2 3 2.2920 -0.3501
-10 -2 4 0.3884 -0.2767
-10 -2 5 -4.3295 0.1865
-10 -2 6 -4.5378 -0.0022
-10 -2 7 4.7206 -0.1048
-10 -2 8 6.5955 -0.0005
-10 -2 9 1.8966 0.1253
-10 -2 10 -0.6855 -0.0810
-10 -2 11 1.8199 0.0528
-10 -2 12 -1.2213 -0.0972
-10 -2 13 -4.9520 -0.0684
-10 -2 14 -3.1236 0.0069
-10 -2 15 -2.2166 0.0038
-10 -2 16 0.6903 0.0424
-10 -2 17 -4.5162 0.1063
-10 -2 18 -0.2703 0.0295
-10 -2 19 1.7705 -0.0190
-10 -2 20 2.4101 0.0860
-10 -1 1 18.3700 0.0983
-10 -1 2 12.6828 0.3503
-10 -1 3 9.0681 0.0402
-10 -1 4 -7.2469 -0.1049
-10 -1 5 -6.9654 -0.1732
-10 -1 6 1.3642 0.0850
-10 -1 7 0.3641 -0.0538
-10 -1 8 2.7110 -0.0742
-10 -1 9 2.5565 0.0142
-10 -1 10 -0.9217 0.1433
-10 -1 11 2.2414 -0.0823
-10 -1 12 5.8831 0.0238
-10 -1 13 -1.6474 -0.1145
-10 -1 14 -8.7718 -0.0888
-10 -1 15 -3.4508 -0.0052
-10 -1 16 -4.5837 -0.0716
-10 -1 17 1.8444 -0.0374
-10 -1 18 0.2672 0.0925
-10 -1 19 -1.8231 -0.0152
-10 -1 20 -0.2157 -0.0049
-10 -1 21 1.4946 0.1984
-10 0 1 11.7651 -0.3929
-10 0 2 16.2473 -0.1212
-10 0 3 2.4922 0.3554
-10 0 4 -1.3723 -0.0380
-10 0 5 -1.8629 -0.0000
-10 0 6 -3.3307 0.0331
-10 0 7 -0.9975 0.0094
-10 0 8 -2.5827 -0.0570
-10 0 9 -1.1448 -0.0409
-10 0 10 3.9926 -0.0601
-10 0 11 2.3191 0.1326
-10 0 12 1.2655 -0.0723
-10 0 13 -1.4282 -0.0191
-10 0 14 -4.8833 -0.0609
-10 0 15 -4.3478 -0.1003
-10 0 16 4.9470 -0.0834
-10 0 17 -1.9417 -0.0756
-10 0 18 -2.5370 0.0005
-10 0 19 -1.7046 0.0743
-10 0 20 -4.5971 -0.0061
-10 0 21 1.1182 -0.0110
-10 1 1 -1.3983 0.3693
-10 1 2 5.3059 -0.2124
-10 1 3 11.3598 -0.2269
-10 1 4 1.5474 0.2615
-10 1 5 -4.3338 0.0211
-10 1 6 -2.0350 -0.0456
-10 1 7 -3.4904 0.1333
-10 1 8 -2.8352 -0.0338
-10 1 9 3.0374 -0.0404
-10 1 10 -0.1823 0.0852
-10 1 11 -1.1039 -0.1043
-10 1 12 -2.5957 0.0330
-10 1 13 -1.5949 -0.0734
-10 1 14 -0.9844 -0.0237
-10 1 15 1.1877 0.0548
-10 1 16 1.3460 -0.0678
-10 1 17 3.9724 -0.1296
-10 1 18 -4.4538 -0.0419
-10 1 19 -7.2249 0.0747
-10 1 20 -0.2561 0.0654
-10 1 21 -3.2128 0.0589
-10 1 22 -0.7251 -0.0228
-10 2 1 -2.0181 0.8319
-10 2 2 5.4430 0.2307
-10 2 3 5.6776 -0.1173
-10 2 4 -0.1899 -0.1731
-10 2 5 -6.9582 0.0354
-10 2 6 -1.9510 0.0906
-10 2 7 4.0999 -0.0969
-10 2 8 1.4483 0.1748
-10 2 9 -4.2505 0.0339
-10 2 10 1.7597 -0.0633
-10 2 11 -1.2693 0.1288
-10 2 12 -2.5124 -0.0963
-10 2 13 -1.2111 -0.0386
-10 2 14 -1.6390 0.0186
-10 2 15 -2.1806 -0.0103
-10 2 16 1.7560 0.0507
-10 2 17 3.9281 -0.0489
-10 2 18 3.4077 -0.0509
-10 2 19 -4.4051 0.0318
-10 2 20 -10.4868 0.1086
-10 2 21 -0.5542 0.0230
-10 2 22 -1.8338 -0.0483
-10 2 23 -3.0185 -0.1359
-10 3 1 5.3284 -0.4040
-10 3 2 2.5400 0.8079
-10 3 3 -0.3853 0.1417
-10 3 4 -3.4121 -0.2088
-10 3 5 -3.6229 0.0091
-10 3 6 -1.8185 -0.0941
-10 3 7 5.1247 0.1375
-10 3 8 1.2112 -0.0819
-10 3 9 -2.7273 0.0828
-10 3 10 -1.0485 0.0457
-10 3 11 7.1728 -0.0350
-10 3 12 1.5424 0.1752
-10 3 13 -7.0295 -0.0251
-10 3 14 -5.6061 -0.1504
-10 3 15 -1.1632 0.0207
-10 3 16 1.8726 -0.0124
-10 3 17 3.0316 0.0789
-10 3 18 3.1156 0.0641
-10 3 19 0.1861 -0.0011
-10 3 20 -3.3804 -0.0868
-10 3 21 -7.8789 -0.0544
-10 3 22 1.1015 0.0271
-10 3 23 -0.0917 -0.0639
-10 4 1 1.0606 -0.3513
-10 4 2 -1.4731 -0.3815
-10 4 3 0.5160 0.5633
-10 4 4 3.1427 0.1592
-10 4 5 -1.1262 -0.2641
-10 4 6 -3.9753 0.1888
-10 4 7 -3.4673 -0.1657
-10 4 8 3.3386 0.0392
-10 4 9 3.1617 -0.0110
-10 4 10 1.6820 0.0553
-10 4 11 2.1824 0.0461
-10 4 12 2.8064 -0.0134
-10 4 13 -3.2026 0.0327
-10 4 14 -6.8786 -0.0221
-10 4 15 -0.8455 -0.0882
-10 4 16 2.9106 0.1244
-10 4 17 -0.1802 -0.0327
-10 4 18 -1.7164 -0.0452
-10 4 19 4.7964 0.0345
-10 4 20 4.4219 -0.0281
-10 4 21 0.6653 -0.0556
-10 4 22 -5.6775 -0.0315
-10 5 1 0.3342 -0.8855
-10 5 2 2.7712 -0.2772
-10 5 3 1.8181 -0.2030
-10 5 4 4.6945 0.1974
-10 5 5 -0.3033 0.1242
-10 5 6 -6.6786 -0.2017
-10 5 7 -0.7961 0.2507
-10 5 8 5.2981 -0.1755
-10 5 9 4.6226 -0.0231
-10 5 10 0.3719 0.0627
-10 5 11 -2.9482 0.0114
-10 5 12 -1.5051 -0.0841
-10 5 13 3.3999 0.0005
-10 5 14 0.1029 0.0163
-10 5 15 -5.0560 0.1001
-10 5 16 -1.9039 0.0073
-10 5 17 2.6240 0.0083
-10 5 18 1.8804 -0.1531
-10 5 19 1.6658 -0.0523
-10 5 20 7.1329 0.2290
-10 5 21 2.7687 0.0917
-10 6 1 8.6450 0.6845
-10 6 2 4.6557 -0.7577
-10 6 3 5.5236 -0.2772
-10 6 4 -2.2080 -0.0444
-10 6 5 0.0555 -0.0575
-10 6 6 -0.1507 0.0892
-10 6 7 2.0720 -0.0659
-10 6 8 7.7961 0.1613
-10 6 9 3.9261 -0.1651
-10 6 10 -4.5713 -0.0014
-10 6 11 -3.4208 0.0288
-10 6 12 1.6282 -0.0139
-10 6 13 -0.4303 -0.0631
-10 6 14 0.5825 0.1084
-10 6 15 -3.5296 -0.0008
-10 6 16 -3.7043 0.0114
-10 6 17 3.4748 0.0162
-10 6 18 7.3899 0.0677
-10 6 19 2.5160 0.0606
-10 7 1 10.3296 0.4581
-10 7 2 3.9946 0.3734
-10 7 3 -2.9827 -0.5366
-10 7 4 10.8377 -0.0517
-10 7 5 3.7181 0.0496
-10 7 6 -1.7542 -0.2472
-10 7 7 -0.6273 -0.0497
-10 7 8 4.7132 0.0472
-10 7 9 8.0028 0.1465
-10 7 10 0.6000 -0.1052
-10 7 11 -2.9227 0.0220
-10 7 12 -0.6263 -0.0404
-10 7 13 1.4839 0.0323
-10 7 14 -6.7564 0.0171
-10 7 15 -3.0171 0.0655
-10 7 16 1.2177 -0.0878
-10 7 17 3.6623 -0.0148
-10 7 18 3.9274 0.2002
-10 8 1 6.4224 -0.1746
-10 8 2 1.6716 0.3583
-10 8 3 2.5031 0.2264
-10 8 4 3.1626 -0.3480
-10 8 5 13.9885 0.0821
-10 8 6 -2.3098 -0.0244
-10 8 7 -12.0271 -0.2079
-10 8 8 1.6561 -0.0108
-10 8 9 10.9320 0.0769
-10 8 10 10.1105 0.0489
-10 8 11 -1.0357 -0.1122
-10 8 12 -1.1817 0.1058
-10 8 13 -2.2540 -0.0000
-10 8 14 -2.0517 -0.0143
-10 8 15 -6.4276 -0.0740
-10 8 16 1.1559 -0.0314
-10 8 17 4.8003 -0.0659
-10 9 1 4.4648 0.0941
-10 9 2 12.0016 -0.1367
-10 9 3 -2.1070 0.0646
-10 9 4 -4.7740 0.1043
-10 9 5 -3.3959 -0.2159
-10 9 6 3.3328 0.3266
-10 9 7 -3.0294 0.0538
-10 9 8 -7.2962 -0.2032
-10 9 9 7.9922 -0.1290
-10 9 10 10.8848 0.0182
-10 9 11 6.7684 0.0863
-10 9 12 -2.4497 -0.0260
-10 9 13 -0.5589 0.1221
-10 9 14 -1.9001 -0.1342
-10 9 15 -1.1739 -0.2158
-10 10 1 5.5176 0.0913
-10 10 2 11.3235 -0.0168
-10 10 3 -2.1303 -0.1457
-10 10 4 -16.7325 -0.0387
-10 10 5 -10.2815 0.3264
-10 10 6 -2.3019 -0.0901
-10 10 7 0.0980 0.2042
-10 10 8 1.1769 -0.0920
-10 10 9 -1.1062 -0.1293
-10 10 10 7.7331 0.1012
-10 10 11 6.8105 0.0949
-10 10 12 3.2343 -0.1280
-10 10 13 -1.7988 -0.2602
-10 11 1 -2.1435 0.5666
-10 11 2 2.8316 0.0559
-10 11 3 -0.5918 -0.1230
-10 11 4 -12.2429 0.1775
-10 11 5 -9.5826 -0.0378
-10 11 6 -6.8521 0.1040
-10 11 7 -7.1971 -0.2658
-10 11 8 -2.2034 0.1413
-10 11 9 7.6611 0.1456
-10 11 10 4.9333 0.1720
-10 11 11 2.3286 0.0975
-10 12 1 -8.0748 -0.0963
-10 12 2 2.9261 0.3589
-10 12 3 3.6217 0.0794
-10 12 4 -5.3069 -0.2052
-10 12 5 -11.7759 0.1702
-10 12 6 -4.4427 -0.2769
-10 12 7 -8.1203 -0.1187
-10 12 8 -7.6972 -0.0155
-10 12 9 5.4702 0.2823
-10 13 1 -3.4311 -0.2299
-10 13 2 -0.9038 0.1030
-10 13 3 9.8722 0.0083
-10 13 4 -4.0879 -0.0694
-10 13 5 -11.8827 -0.2281
-9 -16 1 0.4882 -0.0325
-9 -16 2 0.0986 -0.0475
-9 -15 1 -6.1701 0.4764
-9 -15 2 -1.0058 0.0100
-9 -15 3 -0.5629 -0.1294
-9 -15 4 -5.7508 0.1927
-9 -14 1 -2.9476 -0.3537
-9 -14 2 -5.0962 0.2627
-9 -14 3 2.2660 0.0140
-9 -14 4 1.2255 -0.1811
-9 -14 5 -7.9752 0.1297
-9 -14 6 -3.6022 0.1692
-9 -13 1 -1.5845 -0.0653
-9 -13 2 -0.8382 -0.4458
-9 -13 3 2.7029 0.0736
-9 -13 4 2.9218 -0.0011
-9 -13 5 -4.2421 -0.1078
-9 -13 6 -9.2300 0.0876
-9 -13 7 -1.2150 0.1512
-9 -13 8 4.4852 0.3602
-9 -12 1 8.8571 0.6713
-9 -12 2 -0.0186 0.0200
-9 -12 3 -1.4126 -0.5615
-9 -12 4 2.4126 0.0717
-9 -12 5 -0.4464 -0.0088
-9 -12 6 -6.5981 -0.0976
-9 -12 7 -4.5737 -0.0172
-9 -12 8 0.8843 -0.0118
-9 -12 9 4.4655 0.2078
-9 -12 10 0.9899 -0.0116
-9 -12 11 3.1154 0.0186
-9 -12 12 0.9609 0.0884
-9 -12 13 -5.4617 -0.0846
-9 -12 14 -6.4025 -0.1589
-9 -11 1 5.5324 0.7210
-9 -11 2 3.4433 0.7045
-9 -11 3 -5.2724 0.0644
-9 -11 4 0.0020 -0.5994
-9 -11 5 2.5318 0.1942
-9 -11 6 -2.0517 -0.0130
-9 -11 7 -4.8167 -0.2126
-9 -11 8 0.8272 -0.0561
-9 -11 9 2.3363 -0.0385
-9 -11 10 3.2864 0.1603
-9 -11 11 1.6721 0.0648
-9 -11 12 1.7962 -0.0048
-9 -11 13 -0.6080 -0.0313
-9 -11 14 -6.9757 -0.1193
-9 -11 15 -6.1816 -0.1028
-9 -10 1 4.4177 -0.1798
-9 -10 2 -0.5375 0.8431
-9 -10 3 0.3363 0.4318
-9 -10 4 -3.4638 0.1698
-9 -10 5 2.7300 -0.3753
-9 -10 6 1.0371 0.2413
-9 -10 7 -1.8261 -0.0384
-9 -10 8 0.3894 -0.2621
-9 -10 9 2.2972 0.0178
-9 -10 10 -0.5795 -0.0346
-9 -10 11 -0.4933 -0.0359
-9 -10 12 2.0312 0.0195
-9 -10 13 3.6367 0.0309
-9 -10 14 0.9542 -0.0237
-9 -10 15 -6.1433 -0.0090
-9 -10 16 -3.4127 -0.0419
-9 -9 1 3.4218 -1.6185
-9 -9 2 1.7406 -0.3252
-9 -9 3 -3.5977 0.8442
-9 -9 4 3.3668 0.1738
-9 -9 5 0.0086 0.2213
-9 -9 6 0.4813 -0.1005
-9 -9 7 0.2467 0.1834
-9 -9 8 -2.0412 -0.0072
-9 -9 9 0.7392 -0.2168
-9 -9 10 0.6171 -0.0265
-9 -9 11 -1.4908 -0.0475
-9 -9 12 -0.1259 -0.0756
-9 -9 13 4.2106 0.0714
-9 -9 14 4.2520 0.0691
-9 -9 15 -0.5425 -0.1233
-9 -9 16 -6.5349 0.0209
-9 -9 17 0.0722 0.0626
-9 -8 1 1.3382 -0.4019
-9 -8 2 1.5098 -1.3102
-9 -8 3 2.1464 -0.3358
-9 -8 4 -2.7766 0.6554
-9 -8 5 2.9031 -0.0485
-9 -8 6 -1.2762 0.1447
-9 -8 7 -5.5392 0.1226
-9 -8 8 1.0981 0.1040
-9 -8 9 -0.5455 -0.0095
-9 -8 10 0.9785 -0.0708
-9 -8 11 2.2363 -0.0081
-9 -8 12 -1.3354 0.0059
-9 -8 13 -0.6824 -0.0649
-9 -8 14 2.5547 -0.0424
-9 -8 15 -1.0503 0.0393
-9 -8 16 -4.0914 -0.0461
-9 -8 17 -3.1452 0.1278
-9 -8 18 5.7808 0.0332
-9 -7 1 3.8063 0.9191
-9 -7 2 4.3426 -0.4263
-9 -7 3 -1.6773 -0.9531
-9 -7 4 -1.9266 -0.2371
-9 -7 5 -3.5766 0.3132
-9 -7 6 -2.6802 -0.2303
-9 -7 7 -0.2936 0.0365
-9 -7 8 -2.9762 0.2546
-9 -7 9 4.4097 0.1252
-9 -7 10 2.0677 0.0266
-9 -7 11 -0.0175 0.0697
-9 -7 12 1.9703 -0.0562
-9 -7 13 -4.1352 -0.0528
-9 -7 14 -4.4439 -0.0027
-9 -7 15 -0.9889 -0.0509
-9 -7 16 -4.7111 0.0936
-9 -7 17 -1.7445 0.0203
-9 -7 18 3.9949 0.0033
-9 -7 19 5.8707 -0.1138
-9 -6 1 0.4988 0.8076
-9 -6 2 2.9605 0.8258
-9 -6 3 -0.0980 -0.3093
-9 -6 4 -6.3700 -0.6760
-9 -6 5 -4.7795 -0.1224
-9 -6 6 0.1027 0.0099
-9 -6 7 -1.5605 -0.2699
-9 -6 8 4.8186 0.0686
-9 -6 9 2.3917 0.2585
-9 -6 10 3.1570 0.0768
-9 -6 11 3.1496 -0.0206
-9 -6 12 -3.3650 0.1107
-9 -6 13 -2.7873 -0.0219
-9 -6 14 -4.8892 -0.0380
-9 -6 15 -3.1174 0.0298
-9 -6 16 -0.3674 -0.1189
-9 -6 17 -4.6849 0.0820
-9 -6 18 0.2803 0.0529
-9 -6 19 5.7597 -0.0515
-9 -6 20 1.8692 -0.0629
-9 -5 1 -1.0836 -0.2624
-9 -5 2 -1.7487 0.6110
-9 -5 3 -1.2829 0.5142
-9 -5 4 -2.4216 -0.1169
-9 -5 5 -1.8456 -0.3706
-9 -5 6 -3.0487 0.0192
-9 -5 7 2.6769 -0.1108
-9 -5 8 3.4366 -0.2611
-9 -5 9 7.2079 0.0447
-9 -5 10 2.8766 0.1030
-9 -5 11 -2.4491 0.0295
-9 -5 12 2.1948 0.0130
-9 -5 13 -3.3926 0.0945
-9 -5 14 -2.6001 -0.0219
-9 -5 15 -0.2894 -0.0729
-9 -5 16 -2.0478 -0.0113
-9 -5 17 -2.7467 -0.1023
-9 -5 18 -1.3910 0.1424
-9 -5 19 4.2033 0.0170
-9 -5 20 5.4197 -0.0906
-9 -5 21 -1.2502 0.0812
-9 -4 1 -7.3646 -0.7271
-9 -4 2 -4.9006 -0.3804
-9 -4 3 -3.9513 0.4626
-9 -4 4 -2.3196 0.2714
-9 -4 5 0.9629 0.0988
-9 -4 6 3.2907 -0.1024
-9 -4 7 -2.4438 0.0053
-9 -4 8 1.7657 -0.1479
-9 -4 9 6.2074 -0.1917
-9 -4 10 2.2517 0.0160
-9 -4 11 -1.2202 -0.0345
-9 -4 12 -1.5236 -0.0333
-9 -4 13 5.2949 -0.0079
-9 -4 14 -1.3532 0.0486
-9 -4 15 -4.0718 0.0328
-9 -4 16 0.3733 -0.0501
-9 -4 17 1.0857 -0.0576
-9 -4 18 1.5080 -0.1009
-9 -4 19 4.9047 0.1289
-9 -4 20 1.9697 -0.0290
-9 -3 1 -0.1013 0.2206
-9 -3 2 -9.2928 -0.4447
-9 -3 3 -13.2200 -0.3890
-9 -3 4 -3.1003 0.3384
-9 -3 5 5.7998 0.0936
-9 -3 6 5.2737 0.1188
-9 -3 7 -1.5429 0.0547
-9 -3 8 -6.5739 0.0091
-9 -3 9 -0.2718 -0.0762
-9 -3 10 7.0401 -0.1324
-9 -3 11 -0.2312 -0.0966
-9 -3 12 -3.1010 -0.1098
-9 -3 13 -0.4542 -0.0002
-9 -3 14 3.5949 0.0271
-9 -3 15 1.0802 0.0450
-9 -3 16 1.1737 0.0201
-9 -3 17 2.1461 -0.0733
-9 -3 18 2.9751 -0.0161
-9 -3 19 1.1335 -0.0296
-9 -3 20 1.5906 0.0614
-9 -3 21 -2.7845 -0.0560
-9 -2 1 -9.9147 0.9536
-9 -2 2 -12.7294 0.1141
-9 -2 3 -5.5331 -0.2072
-9 -2 4 -5.5662 -0.2883
-9 -2 5 3.3256 0.1520
-9 -2 6 4.8096 0.0148
-9 -2 7 -3.9328 0.0807
-9 -2 8 -7.3828 0.1070
-9 -2 9 0.0338 0.0239
-9 -2 10 4.3017 -0.0459
-9 -2 11 0.4103 -0.0749
-9 -2 12 -6.7772 -0.0701
-9 -2 13 -4.9493 -0.0560
-9 -2 14 4.2137 0.0128
-9 -2 15 10.2602 -0.0259
-9 -2 16 5.2410 0.0465
-9 -2 17 -0.4763 0.0554
-9 -2 18 -6.1080 0.0005
-9 -2 19 1.8611 0.0532
-9 -2 20 3.7557 -0.0670
-9 -2 21 -0.5658 -0.0757
-9 -2 22 -3.5688 0.0204
-9 -1 1 -1.5317 -0.1667
-9 -1 2 -2.1363 0.9012
-9 -1 3 -7.1168 0.0486
-9 -1 4 1.6795 -0.1020
-9 -1 5 -4.9682 -0.0684
-9 -1 6 -3.2130 0.0084
-9 -1 7 1.5588 -0.0551
-9 -1 8 -1.5202 0.0324
-9 -1 9 -1.9918 0.0765
-9 -1 10 2.1909 0.0832
-9 -1 11 -1.6531 0.0189
-9 -1 12 -6.8383 -0.0106
-9 -1 13 -0.6929 -0.0142
-9 -1 14 2.6299 -0.0688
-9 -1 15 3.8356 0.0089
-9 -1 16 8.2910 -0.0069
-9 -1 17 0.9113 0.0788
-9 -1 18 -1.4961 0.0191
-9 -1 19 -3.5092 0.0103
-9 -1 20 4.3968 0.0893
-9 -1 21 3.3593 -0.0573
-9 -1 22 -5.4246 -0.1278
-9 -1 23 -2.4105 0.0284
-9 0 1 -2.3222 -0.4391
-9 0 2 2.4776 -0.2593
-9 0 3 3.5377 0.6835
-9 0 4 -11.6367 0.0882
-9 0 5 -4.0729 -0.1430
-9 0 6 1.3174 0.1073
-9 0 7 1.2624 0.0049
-9 0 8 1.4352 -0.1188
-9 0 9 -3.1455 0.0413
-9 0 10 -1.7091 0.0314
-9 0 11 3.5422 0.0769
-9 0 12 1.7911 0.0690
-9 0 13 -3.4248 0.0208
-9 0 14 -0.4811 0.0355
-9 0 15 -1.7846 -0.0946
-9 0 16 -1.8013 0.0004
-9 0 17 12.6839 -0.0358
-9 0 18 5.7501 0.0414
-9 0 19 1.1536 0.0030
-9 0 20 -1.1549 0.0559
-9 0 21 0.1158 0.0732
-9 0 22 1.3413 -0.1191
-9 0 23 -2.7873 -0.1292
-9 1 1 5.3279 -0.6707
-9 1 2 0.4222 -0.3755
-9 1 3 -7.2705 -0.1254
-9 1 4 1.0545 0.3608
-9 1 5 -4.4518 0.1001
-9 1 6 -0.8991 -0.1686
-9 1 7 3.7168 0.1928
-9 1 8 -1.3973 0.0867
-9 1 9 -1.5979 -0.2057
-9 1 10 2.0744 0.0630
-9 1 11 4.1884 0.0536
-9 1 12 2.2363 0.0038
-9 1 13 -0.5961 0.0716
-9 1 14 -3.7623 -0.0010
-9 1 15 -2.2717 0.0475
-9 1 16 0.4618 -0.0900
-9 1 17 -0.1722 0.0078
-9 1 18 14.1486 -0.0580
-9 1 19 7.2703 0.0033
-9 1 20 1.2638 -0.0338
-9 1 21 2.0463 0.0048
-9 1 22 -1.3578 0.0890
-9 1 23 1.3360 0.0072
-9 1 24 1.5534 0.0425
-9 2 1 -3.2708 0.4343
-9 2 2 -3.4690 -0.5727
-9 2 3 2.3091 -0.3985
-9 2 4 -1.8149 0.1343
-9 2 5 1.9991 0.0565
-9 2 6 -3.5655 -0.0196
-9 2 7 -4.3550 -0.1061
-9 2 8 4.1850 0.1631
-9 2 9 4.7594 0.1558
-9 2 10 0.1136 -0.1787
-9 2 11 -0.7374 0.0795
-9 2 12 -1.5826 0.0567
-9 2 13 0.7081 -0.1376
-9 2 14 4.9457 0.0593
-9 2 15 0.9616 0.0606
-9 2 16 -6.0013 0.0969
-9 2 17 -0.6551 -0.0745
-9 2 18 0.0842 -0.0404
-9 2 19 12.0602 -0.0755
-9 2 20 9.5033 -0.0031
-9 2 21 0.5565 0.0121
-9 2 22 3.0960 0.0586
-9 2 23 -1.2098 0.1634
-9 2 24 -0.5053 -0.0057
-9 3 1 0.1761 0.4568
-9 3 2 3.9769 0.2801
-9 3 3 -0.1453 -0.3590
-9 3 4 0.3934 -0.4375
-9 3 5 -5.4634 0.2599
-9 3 6 0.5640 -0.1390
-9 3 7 2.1670 -0.1440
-9 3 8 0.7385 0.0781
-9 3 9 1.0546 0.0928
-9 3 10 0.3492 0.0812
-9 3 11 -3.0537 -0.1172
-9 3 12 -1.3530 0.0808
-9 3 13 1.6806 0.1133
-9 3 14 3.5923 -0.1340
-9 3 15 2.5596 0.0386
-9 3 16 -2.0481 0.0737
-9 3 17 -5.8443 0.0576
-9 3 18 2.5933 -0.0418
-9 3 19 -0.9991 0.0116
-9 3 20 2.4711 0.0405
-9 3 21 7.7432 -0.0022
-9 3 22 1.6817 -0.0496
-9 3 23 3.9538 -0.0268
-9 4 1 -1.5030 -0.2068
-9 4 2 1.3664 0.5281
-9 4 3 -0.2445 -0.0054
-9 4 4 -7.3075 -0.1594
-9 4 5 -0.4193 -0.3140
-9 4 6 1.1982 0.2542
-9 4 7 5.2895 -0.1851
-9 4 8 -0.7499 -0.2008
-9 4 9 -6.4877 0.1659
-9 4 10 -3.1993 -0.0171
-9 4 11 5.1311 -0.0231
-9 4 12 3.4349 0.0435
-9 4 13 -3.5749 0.1386
-9 4 14 -3.3671 0.0737
-9 4 15 1.4962 -0.1470
-9 4 16 2.6890 -0.0186
-9 4 17 2.1315 0.1302
-9 4 18 -3.8360 0.0535
-9 4 19 -4.0144 0.0058
-9 4 20 -5.9306 0.0225
-9 4 21 -1.2011 -0.0049
-9 4 22 9.7336 -0.1625
-9 5 1 -3.0998 -0.3969
-9 5 2 -6.3659 -0.3969
-9 5 3 -4.8413 0.5708
-9 5 4 -1.6488 -0.0826
-9 5 5 -4.6843 -0.0072
-9 5 6 1.6270 -0.1832
-9 5 7 -2.0832 0.1212
-9 5 8 -1.6066 -0.1534
-9 5 9 -1.6657 -0.1458
-9 5 10 -2.8748 0.1744
-9 5 11 2.2626 -0.0624
-9 5 12 5.0848 -0.0904
-9 5 13 -0.7462 0.0559
-9 5 14 -6.2125 0.0881
-9 5 15 -0.6317 -0.0159
-9 5 16 4.0994 -0.0103
-9 5 17 -0.2429 0.0114
-9 5 18 0.1734 0.0652
-9 5 19 -2.2890 -0.1266
-9 5 20 -4.6957 -0.0565
-9 5 21 -2.9160 0.0190
-9 6 1 -3.5550 0.2613
-9 6 2 -2.8208 -0.1624
-9 6 3 -4.5995 -0.4112
-9 6 4 -6.3103 0.4570
-9 6 5 -7.4435 -0.1170
-9 6 6 -8.4504 0.0153
-9 6 7 0.6693 -0.0396
-9 6 8 0.5291 0.1106
-9 6 9 -1.5220 -0.1198
-9 6 10 0.8601 -0.1240
-9 6 11 -3.1706 0.1176
-9 6 12 0.0337 -0.1058
-9 6 13 4.2148 -0.1387
-9 6 14 2.3328 -0.0164
-9 6 15 -1.6622 0.0778
-9 6 16 -3.1808 -0.0566
-9 6 17 -1.8011 0.0643
-9 6 18 0.2755 -0.0779
-9 6 19 6.8714 -0.0836
-9 6 20 3.8991 -0.1711
-9 7 1 -2.8444 0.3934
-9 7 2 4.2872 0.2259
-9 7 3 -3.5352 -0.1419
-9 7 4 -13.0805 -0.4051
-9 7 5 -8.7807 0.3470
-9 7 6 -4.3342 -0.0212
-9 7 7 -0.6927 0.0255
-9 7 8 2.4795 -0.0301
-9 7 9 0.1129 0.0736
-9 7 10 -7.4010 -0.1160
-9 7 11 -1.5278 -0.0736
-9 7 12 0.1512 0.1149
-9 7 13 2.7758 -0.1574
-9 7 14 6.2916 -0.1453
-9 7 15 1.8683 -0.0528
-9 7 16 -4.3724 0.0689
-9 7 17 -7.0133 -0.1140
-9 7 18 1.4510 0.0728
-9 7 19 8.7927 -0.0633
-9 8 1 -0.9566 0.3990
-9 8 2 -4.9502 0.3055
-9 8 3 -3.8977 0.1528
-9 8 4 -0.9156 -0.0974
-9 8 5 -3.7116 -0.1393
-9 8 6 3.4479 0.2855
-9 8 7 -1.4114 -0.1759
-9 8 8 -1.7752 -0.0546
-9 8 9 -2.5376 0.0355
-9 8 10 -3.3120 0.1356
-9 8 11 -7.6874 -0.0880
-9 8 12 0.5531 -0.0918
-9 8 13 6.3210 0.0727
-9 8 14 1.7612 -0.1229
-9 8 15 0.9143 -0.0021
-9 8 16 -2.0800 0.0071
-9 8 17 -4.2029 0.0296
-9 8 18 -3.3596 -0.1835
-9 9 1 1.7617 -0.6280
-9 9 2 -4.5468 0.3651
-9 9 3 0.7358 0.2168
-9 9 4 4.0080 0.1550
-9 9 5 10.5480 -0.0454
-9 9 6 1.1574 -0.0228
-9 9 7 3.6518 0.1903
-9 9 8 -3.2284 -0.2145
-9 9 9 -2.9877 0.0667
-9 9 10 -4.6262 0.0448
-9 9 11 -5.6809 -0.0022
-9 9 12 -2.2778 -0.0855
-9 9 13 3.4341 0.0089
-9 9 14 4.1777 0.1335
-9 9 15 -5.3979 -0.0022
-9 9 16 -4.2345 0.1017
-9 9 17 -1.4837 -0.0245
-9 10 1 0.0523 -0.1737
-9 10 2 6.6035 -0.7060
-9 10 3 5.3360 0.3891
-9 10 4 7.2640 0.0253
-9 10 5 0.2088 -0.0261
-9 10 6 8.9857 0.1193
-9 10 7 4.4754 0.1779
-9 10 8 4.5729 0.1965
-9 10 9 -3.4801 -0.2251
-9 10 10 -6.8848 0.0438
-9 10 11 -4.2113 -0.0373
-9 10 12 -3.2308 0.0230
-9 10 13 2.0224 0.0305
-9 10 14 -0.1990 -0.0038
-9 10 15 -3.9248 0.0104
-9 10 16 -7.4292 0.0336
-9 11 1 -3.3241 -0.0263
-9 11 2 -0.6990 -0.0314
-9 11 3 5.1008 -0.6320
-9 11 4 3.7153 0.2486
-9 11 5 5.2664 -0.0576
-9 11 6 1.2167 -0.0302
-9 11 7 8.9668 0.2899
-9 11 8 2.6520 0.1463
-9 11 9 -0.9642 0.1001
-9 11 10 -1.8550 -0.1188
-9 11 11 -4.4603 0.1419
-9 11 12 -0.3506 -0.0773
-9 11 13 -1.6814 -0.0543
-9 11 14 -1.6116 -0.1511
-9 12 1 1.4170 0.3866
-9 12 2 -15.5055 -0.0415
-9 12 3 -9.2076 0.1013
-9 12 4 9.2957 -0.3974
-9 12 5 10.0677 0.0889
-9 12 6 3.3252 0.0032
-9 12 7 -2.7973 -0.0325
-9 12 8 -0.3350 0.1544
-9 12 9 -0.5670 0.0531
-9 12 10 2.8746 0.1767
-9 12 11 6.4895 -0.0445
-9 12 12 -1.6370 0.0643
-9 13 1 11.4525 -0.1120
-9 13 2 -6.0437 0.4000
-9 13 3 -17.2876 0.0465
-9 13 4 1.4051 0.0823
-9 13 5 13.7981 -0.1524
-9 13 6 1.9899 0.0701
-9 13 7 -6.1313 0.0772
-9 13 8 -3.1701 -0.1172
-9 13 9 -0.2654 -0.1457
-9 14 1 10.6318 -0.2035
-9 14 2 8.1109 -0.1983
-9 14 3 -7.6689 0.2576
-8 -16 1 -2.7150 0.4144
-8 -16 2 5.5715 -0.5051
-8 -16 3 0.8955 -0.4675
-8 -16 4 3.0147 -0.2703
-8 -15 1 6.7984 0.2651
-8 -15 2 0.1664 0.3017
-8 -15 3 5.7234 -0.5432
-8 -15 4 -0.3431 -0.2996
-8 -15 5 1.6360 -0.0064
-8 -15 6 5.2376 0.1046
-8 -14 1 6.5231 0.1525
-8 -14 2 8.0388 0.2262
-8 -14 3 -3.1916 0.2038
-8 -14 4 1.5385 -0.3689
-8 -14 5 2.5469 -0.1184
-8 -14 6 2.7091 -0.0048
-8 -14 7 4.3899 -0.0807
-8 -14 8 0.4678 -0.1788
-8 -14 9 0.1570 -0.0072
-8 -14 10 0.3115 0.2418
-8 -14 11 -0.8818 -0.3254
-8 -13 1 5.4419 0.0531
-8 -13 2 1.7535 0.1030
-8 -13 3 6.1061 0.1716
-8 -13 4 -0.7202 0.0999
-8 -13 5 2.5002 -0.2094
-8 -13 6 4.8717 0.0506
-8 -13 7 -0.4773 -0.0088
-8 -13 8 -0.5874 -0.0939
-8 -13 9 -1.3695 -0.0185
-8 -13 10 -0.9482 -0.0103
-8 -13 11 2.0305 0.0222
-8 -13 12 2.9429 -0.3706
-8 -13 13 -0.7919 -0.2975
-8 -12 1 -6.7074 0.1009
-8 -12 2 7.1019 0.1901
-8 -12 3 4.3312 -0.0435
-8 -12 4 6.1608 0.1270
-8 -12 5 2.0956 0.1280
-8 -12 6 0.9972 -0.0959
-8 -12 7 1.1789 0.1576
-8 -12 8 -3.9141 -0.0432
-8 -12 9 -3.4222 -0.1448
-8 -12 10 -0.5276 0.0473
-8 -12 11 2.1185 -0.0075
-8 -12 12 4.8594 0.0432
-8 -12 13 4.1996 -0.1734
-8 -12 14 -3.5045 -0.1775
-8 -11 1 -0.2548 0.3547
-8 -11 2 -1.2837 0.0215
-8 -11 3 10.2551 0.2865
-8 -11 4 4.1054 -0.0945
-8 -11 5 2.0914 -0.0126
-8 -11 6 1.7991 0.1717
-8 -11 7 -1.6470 -0.0721
-8 -11 8 -3.9899 0.1493
-8 -11 9 -2.2750 -0.0123
-8 -11 10 0.0561 -0.0901
-8 -11 11 2.3375 0.1633
-8 -11 12 3.5803 0.0355
-8 -11 13 1.0562 -0.0007
-8 -11 14 -0.7367 -0.1445
-8 -11 15 -5.1618 -0.1247
-8 -11 16 -1.9276 0.1153
-8 -10 1 -2.7854 -0.9745
-8 -10 2 5.2457 0.5434
-8 -10 3 2.6071 -0.0608
-8 -10 4 7.3517 0.1358
-8 -10 5 -0.6727 -0.0584
-8 -10 6 -1.1046 -0.1087
-8 -10 7 0.6353 0.2106
-8 -10 8 -1.3147 -0.0504
-8 -10 9 -2.4279 0.1149
-8 -10 10 3.2391 0.1036
-8 -10 11 2.7749 -0.0264
-8 -10 12 -1.6459 0.0885
-8 -10 13 -1.8536 -0.0499
-8 -10 14 -3.4226 -0.0141
-8 -10 15 -1.2308 0.0307
-8 -10 16 -0.3261 0.0317
-8 -10 17 -0.2470 0.0747
-8 -9 1 -7.2650 -0.5165
-8 -9 2 -0.9430 -1.0263
-8 -9 3 6.1117 0.5290
-8 -9 4 0.8359 -0.1008
-8 -9 5 2.7489 -0.0530
-8 -9 6 -2.4162 0.1242
-8 -9 7 1.3401 -0.0988
-8 -9 8 2.3574 0.1420
-8 -9 9 0.4537 -0.0224
-8 -9 10 -0.8375 0.0467
-8 -9 11 2.4675 0.0655
-8 -9 12 1.1525 -0.0580
-8 -9 13 -5.9616 0.0214
-8 -9 14 -3.3452 0.0421
-8 -9 15 0.1276 0.0966
-8 -9 16 2.0755 0.0790
-8 -9 17 1.5189 -0.0772
-8 -9 18 -2.3938 -0.0345
-8 -8 1 -3.0236 -0.1089
-8 -8 2 -3.5510 -0.3785
-8 -8 3 -2.2234 -0.8032
-8 -8 4 4.8237 0.3958
-8 -8 5 -0.0741 -0.0652
-8 -8 6 4.2137 -0.1297
-8 -8 7 -0.0507 0.2521
-8 -8 8 0.9860 -0.0887
-8 -8 9 1.3987 -0.0230
-8 -8 10 -1.8399 -0.0637
-8 -8 11 -1.7422 -0.0257
-8 -8 12 1.5353 0.0363
-8 -8 13 3.1947 0.0464
-8 -8 14 -3.5207 0.0167
-8 -8 15 -1.5984 0.0204
-8 -8 16 1.8795 0.0066
-8 -8 17 0.1349 0.0178
-8 -8 18 0.2772 -0.0701
-8 -8 19 -0.3895 0.0557
-8 -7 1 2.3062 0.9542
-8 -7 2 -0.6053 -0.2418
-8 -7 3 -0.1828 -0.2179
-8 -7 4 -1.9603 -0.4138
-8 -7 5 3.7826 0.2091
-8 -7 6 0.7222 -0.0669
-8 -7 7 3.3668 -0.1361
-8 -7 8 -1.0993 0.1877
-8 -7 9 -3.6956 -0.1221
-8 -7 10 0.3589 -0.0629
-8 -7 11 -3.2732 -0.0078
-8 -7 12 -0.0312 0.0187
-8 -7 13 5.4086 -0.0162
-8 -7 14 4.6912 -0.0027
-8 -7 15 -4.2760 -0.0965
-8 -7 16 -3.9058 0.0311
-8 -7 17 1.5880 0.0344
-8 -7 18 0.8034 0.0168
-8 -7 19 3.5254 -0.0643
-8 -7 20 2.5189 0.0060
-8 -6 1 1.9188 0.8345
-8 -6 2 3.4935 0.7138
-8 -6 3 -0.1142 -0.2134
-8 -6 4 1.7636 -0.0258
-8 -6 5 -3.4040 -0.1640
-8 -6 6 -0.0878 -0.0256
-8 -6 7 1.6093 -0.1268
-8 -6 8 -0.9968 -0.0776
-8 -6 9 -3.1609 0.1527
-8 -6 10 -5.7516 -0.0576
-8 -6 11 2.6925 0.0207
-8 -6 12 0.1278 -0.0122
-8 -6 13 -0.0047 -0.0260
-8 -6 14 2.4697 -0.0943
-8 -6 15 -0.1214 -0.0048
-8 -6 16 -3.2700 -0.0572
-8 -6 17 -0.8756 0.0931
-8 -6 18 1.9911 -0.0277
-8 -6 19 -0.8604 -0.0831
-8 -6 20 3.2773 0.0013
-8 -6 21 1.5900 0.0030
-8 -5 1 4.9111 -0.3472
-8 -5 2 -1.2159 0.8094
-8 -5 3 2.0586 0.4190
-8 -5 4 3.8174 -0.2191
-8 -5 5 -0.5416 0.0697
-8 -5 6 -6.4021 -0.0961
-8 -5 7 -3.4616 -0.0934
-8 -5 8 2.6763 -0.0314
-8 -5 9 -3.9566 0.0027
-8 -5 10 -0.5480 0.0930
-8 -5 11 -1.6568 -0.0687
-8 -5 12 1.3150 0.0558
-8 -5 13 -0.9846 0.0269
-8 -5 14 -3.7411 0.0055
-8 -5 15 0.3757 -0.1001
-8 -5 16 1.0477 0.0185
-8 -5 17 -0.5562 -0.0434
-8 -5 18 -4.3458 0.0417
-8 -5 19 -2.8337 -0.0591
-8 -5 20 -0.3389 -0.0534
-8 -5 21 6.2261 0.1125
-8 -4 1 2.1863 -0.3902
-8 -4 2 5.3063 -0.3037
-8 -4 3 2.4517 0.6086
-8 -4 4 4.0729 0.1574
-8 -4 5 2.3172 -0.2372
-8 -4 6 -8.6018 0.2366
-8 -4 7 -4.9154 0.0239
-8 -4 8 0.4514 -0.1151
-8 -4 9 5.1596 0.0009
-8 -4 10 -4.5312 -0.0165
-8 -4 11 -0.2671 0.0503
-8 -4 12 -0.5089 -0.0210
-8 -4 13 -1.2303 0.0700
-8 -4 14 2.5265 0.0464
-8 -4 15 -2.7260 0.0158
-8 -4 16 -4.1000 -0.0901
-8 -4 17 -2.8850 0.0591
-8 -4 18 -0.8250 -0.0537
-8 -4 19 -4.4811 -0.0719
-8 -4 20 1.1633 -0.0029
-8 -4 21 3.7003 0.0323
-8 -4 22 3.4886 0.0954
-8 -3 1 2.7825 -0.2648
-8 -3 2 11.2174 -0.2540
-8 -3 3 6.3377 -0.2122
-8 -3 4 -2.4168 0.3542
-8 -3 5 -2.8342 0.0974
-8 -3 6 3.1445 -0.1795
-8 -3 7 -2.3441 0.3054
-8 -3 8 1.5725 0.0599
-8 -3 9 -1.6086 -0.1937
-8 -3 10 -0.9858 0.0612
-8 -3 11 -2.5460 0.0508
-8 -3 12 3.6880 -0.0373
-8 -3 13 3.5438 -0.0383
-8 -3 14 -2.7843 0.0347
-8 -3 15 -0.5512 0.0460
-8 -3 16 -5.4379 0.0527
-8 -3 17 -4.8186 -0.0765
-8 -3 18 0.0589 0.0136
-8 -3 19 4.4008 -0.0633
-8 -3 20 -3.1618 -0.0922
-8 -3 21 0.2853 0.0879
-8 -3 22 1.9938 0.0276
-8 -3 23 -1.2621 -0.0355
-8 -2 1 11.7046 0.5945
-8 -2 2 7.3015 -0.1293
-8 -2 3 0.2961 -0.1771
-8 -2 4 -4.3160 -0.0510
-8 -2 5 -0.0976 0.0913
-8 -2 6 4.5514 0.0377
-8 -2 7 7.8849 -0.0893
-8 -2 8 -2.9144 0.2625
-8 -2 9 -4.0409 0.0805
-8 -2 10 -3.8101 -0.1929
-8 -2 11 2.9011 0.0774
-8 -2 12 3.7767 0.0791
-8 -2 13 -0.3198 -0.1550
-8 -2 14 -2.6002 0.0022
-8 -2 15 -4.7352 0.0455
-8 -2 16 1.9173 -0.0621
-8 -2 17 1.1588 0.0269
-8 -2 18 -0.5093 0.0040
-8 -2 19 -3.6599 0.0164
-8 -2 20 1.8613 -0.0268
-8 -2 21 -2.7493 -0.1027
-8 -2 22 -0.6301 0.0465
-8 -2 23 2.0876 0.0303
-8 -2 24 -3.2813 -0.0143
-8 -1 1 -4.3820 -0.3893
-8 -1 2 4.1704 0.5302
-8 -1 3 3.6756 0.0926
-8 -1 4 -1.7474 -0.2679
-8 -1 5 1.3005 0.0404
-8 -1 6 2.4173 -0.0238
-8 -1 7 -0.5756 -0.0321
-8 -1 8 2.8148 0.0160
-8 -1 9 -0.1175 0.1517
-8 -1 10 -1.0235 0.0334
-8 -1 11 -2.7576 -0.0839
-8 -1 12 -0.6498 0.0572
-8 -1 13 -1.8865 0.0922
-8 -1 14 -2.7808 -0.1789
-8 -1 15 0.4771 0.0306
-8 -1 16 -0.4383 0.0359
-8 -1 17 2.2502 -0.1262
-8 -1 18 -0.5911 0.0704
-8 -1 19 -2.1057 0.0755
-8 -1 20 -7.2093 -0.0665
-8 -1 21 1.7182 -0.0238
-8 -1 22 0.0022 0.0287
-8 -1 23 -4.3396 0.0659
-8 -1 24 -1.5627 -0.0249
-8 -1 25 -4.2572 -0.1199
-8 0 1 5.6144 -0.6610
-8 0 2 -2.1177 -0.2290
-8 0 3 6.8952 0.2990
-8 0 4 9.7735 0.2018
-8 0 5 -6.3194 -0.2769
-8 0 6 -6.4190 0.0853
-8 0 7 -0.0895 -0.0109
-8 0 8 1.5827 -0.1299
-8 0 9 5.3925 0.0470
-8 0 10 -1.3747 0.0898
-8 0 11 -5.8084 -0.0232
-8 0 12 -3.3027 0.0749
-8 0 13 1.3211 0.0075
-8 0 14 -0.4011 0.0697
-8 0 15 -2.0717 -0.0720
-8 0 16 -2.9794 0.0691
-8 0 17 -4.7576 0.0278
-8 0 18 2.3590 -0.1611
-8 0 19 -0.2926 0.0289
-8 0 20 -1.8520 0.0698
-8 0 21 -7.6150 -0.0091
-8 0 22 -2.2444 0.0518
-8 0 23 -2.1883 0.0518
-8 0 24 -8.2607 -0.1142
-8 0 25 -2.5176 -0.1708
-8 1 1 -5.5896 -0.5701
-8 1 2 10.5827 -0.8976
-8 1 3 3.7954 0.0269
-8 1 4 -3.4476 0.1059
-8 1 5 3.6049 0.1548
-8 1 6 -5.4957 -0.1482
-8 1 7 -4.2032 0.0577
-8 1 8 2.0216 0.0309
-8 1 9 -2.3756 -0.1393
-8 1 10 -0.8759 -0.0102
-8 1 11 -0.8516 0.0731
-8 1 12 1.9645 -0.0629
-8 1 13 2.1728 0.1770
-8 1 14 -1.4915 -0.0001
-8 1 15 -6.0900 0.0394
-8 1 16 -3.1370 0.0293
-8 1 17 -1.1949 0.0136
-8 1 18 -4.7786 -0.0169
-8 1 19 2.6613 -0.1131
-8 1 20 -1.5875 0.0532
-8 1 21 -2.3710 0.0190
-8 1 22 -6.2190 -0.0500
-8 1 23 -7.2961 -0.0581
-8 1 24 -4.2582 0.0135
-8 1 25 -4.4867 -0.0141
-8 1 26 0.3941 -0.0460
-8 2 1 7.5917 0.9297
-8 2 2 -5.8316 -0.4297
-8 2 3 -4.4001 -0.9253
-8 2 4 2.6618 0.2402
-8 2 5 -0.1355 0.0287
-8 2 6 5.6097 -0.0480
-8 2 7 -4.7713 0.0098
-8 2 8 -10.6321 0.0394
-8 2 9 0.2231 0.0180
-8 2 10 2.7933 -0.0546
-8 2 11 2.6347 -0.0674
-8 2 12 1.1701 0.0741
-8 2 13 0.0215 -0.0872
-8 2 14 -1.1171 0.1203
-8 2 15 0.7135 -0.0112
-8 2 16 -0.7451 -0.0119
-8 2 17 -1.4427 0.0709
-8 2 18 -1.4136 -0.0209
-8 2 19 -6.6295 -0.0043
-8 2 20 3.0260 -0.0781
-8 2 21 2.0570 -0.0170
-8 2 22 -2.4015 -0.1220
-8 2 23 -6.4093 -0.0337
-8 2 24 -8.2269 0.0776
-8 2 25 -1.7256 0.1246
-8 3 1 -3.9713 0.8055
-8 3 2 -1.0759 0.5696
-8 3 3 -5.9625 -0.1727
-8 3 4 -2.6820 -0.6710
-8 3 5 10.0846 0.1965
-8 3 6 -0.5509 -0.0296
-8 3 7 -4.7008 -0.2511
-8 3 8 -4.5699 0.1218
-8 3 9 -2.7514 0.1062
-8 3 10 6.4663 -0.0251
-8 3 12 -5.1430 -0.0960
-8 3 13 -2.5094 -0.0142
-8 3 14 4.2688 -0.1049
-8 3 15 5.3247 0.0386
-8 3 16 3.7373 0.0114
-8 3 17 -2.0097 -0.0517
-8 3 18 -2.8571 0.0476
-8 3 19 4.7340 -0.0441
-8 3 20 -2.7793 0.0032
-8 3 21 -0.9116 -0.0459
-8 3 22 1.9829 0.0181
-8 3 23 -1.6449 -0.0445
-8 3 24 -3.8744 0.0837
-8 4 1 11.4021 0.1276
-8 4 2 0.5040 0.9110
-8 4 3 2.3286 0.3220
-8 4 4 -1.4203 -0.1036
-8 4 5 -2.9281 -0.3772
-8 4 6 9.9245 0.0546
-8 4 7 1.2972 -0.0034
-8 4 8 -4.3099 -0.2900
-8 4 9 -1.4720 0.1312
-8 4 10 -0.6394 0.1322
-8 4 11 0.0833 -0.1002
-8 4 12 1.2727 0.0632
-8 4 13 -1.6434 -0.0164
-8 4 14 -0.2724 -0.0603
-8 4 15 4.0329 -0.0758
-8 4 16 3.3441 -0.0263
-8 4 17 2.6980 -0.0269
-8 4 18 2.6637 -0.0604
-8 4 19 2.1717 0.0730
-8 4 20 4.5190 0.0228
-8 4 21 -7.0228 0.0554
-8 4 22 -5.9622 0.0287
-8 4 23 6.0708 0.0876
-8 5 1 4.8704 -0.3189
-8 5 2 9.7839 0.0324
-8 5 3 2.1343 0.6480
-8 5 4 1.0108 0.1533
-8 5 5 5.5358 -0.0574
-8 5 6 5.8466 -0.0020
-8 5 7 12.5250 -0.0307
-8 5 8 -3.0810 -0.0618
-8 5 9 -11.8199 -0.2713
-8 5 10 -4.0713 0.1131
-8 5 11 3.2685 0.1236
-8 5 12 1.7871 -0.0943
-8 5 13 2.3620 0.0652
-8 5 14 -2.5870 0.0823
-8 5 15 -6.3086 -0.0612
-8 5 16 2.4752 -0.0407
-8 5 17 7.8573 -0.0084
-8 5 18 2.7246 -0.0325
-8 5 19 0.6389 -0.0017
-8 5 20 0.1412 0.0962
-8 5 21 0.0389 0.0536
-8 5 22 -5.5850 0.0535
-8 6 1 0.4992 -0.5616
-8 6 2 -3.7934 -0.3166
-8 6 3 8.8302 -0.0218
-8 6 4 10.6565 0.4307
-8 6 5 5.3668 0.1455
-8 6 6 9.9253 -0.0557
-8 6 7 3.7909 0.1618
-8 6 8 3.1496 -0.0927
-8 6 9 -9.5650 -0.0394
-8 6 10 -10.3697 -0.1284
-8 6 11 1.9224 0.0988
-8 6 12 5.5051 -0.0060
-8 6 13 -2.5660 -0.0864
-8 6 14 -4.0993 0.0847
-8 6 15 -3.3116 0.1686
-8 6 16 -3.6171 0.0212
-8 6 17 4.4207 -0.0204
-8 6 18 6.2304 0.0090
-8 6 19 -3.4907 -0.0713
-8 6 20 -2.7795 0.0074
-8 6 21 2.9757 0.0676
-8 6 22 -1.4149 0.0553
-8 7 1 -10.0315 0.5530
-8 7 2 -4.2929 -0.3357
-8 7 3 5.1862 -0.2138
-8 7 4 11.7992 0.0332
-8 7 5 4.3103 0.1695
-8 7 6 -4.8300 0.0158
-8 7 7 7.5000 -0.0073
-8 7 8 4.5827 0.3226
-8 7 9 -1.8063 -0.0694
-8 7 10 -7.5846 -0.0154
-8 7 11 -5.5163 -0.1097
-8 7 12 1.9898 0.0215
-8 7 13 -1.0678 -0.0635
-8 7 14 -7.2647 0.0027
-8 7 15 -3.6926 0.1076
-8 7 16 1.3721 0.0857
-8 7 17 0.8243 -0.0013
-8 7 18 2.0057 -0.0368
-8 7 19 2.0232 0.0656
-8 7 20 -2.5342 -0.0723
-8 7 21 -1.7644 -0.0342
-8 8 1 2.8018 -0.1368
-8 8 2 -3.7474 0.5414
-8 8 3 -5.8295 -0.1124
-8 8 4 -0.6070 -0.2114
-8 8 5 -0.0924 -0.0348
-8 8 6 -2.4185 0.1035
-8 8 7 -3.3262 0.0579
-8 8 8 6.8356 0.0315
-8 8 9 5.0257 0.2640
-8 8 10 -3.5085 -0.1435
-8 8 11 -2.8465 0.0309
-8 8 12 -5.3378 -0.0405
-8 8 13 -4.8505 -0.0084
-8 8 14 -3.7249 -0.0832
-8 8 15 -1.9850 -0.0245
-8 8 16 1.7481 0.0198
-8 8 17 2.7433 -0.0477
-8 8 18 1.5983 0.0093
-8 8 19 2.6779 0.0411
-8 8 20 3.5151 0.1255
-8 9 1 11.9312 -0.6240
-8 9 2 -0.6545 -0.1665
-8 9 3 -11.2079 0.3638
-8 9 4 -10.0627 -0.0978
-8 9 5 -0.3080 -0.0678
-8 9 6 0.2810 0.0082
-8 9 7 -5.0702 0.1165
-8 9 8 -2.0866 -0.0198
-8 9 9 2.8399 -0.1082
-8 9 10 8.6373 0.2163
-8 9 11 -0.4716 -0.0576
-8 9 12 -5.0131 0.0642
-8 9 13 -8.4691 -0.0436
-8 9 14 -4.1142 -0.0717
-8 9 15 4.0374 -0.0700
-8 9 16 2.7683 0.0149
-8 9 17 0.6303 -0.0103
-8 9 18 2.6261 -0.1324
-8 9 19 6.3211 0.0096
-8 10 1 -1.6931 0.0457
-8 10 2 9.3065 -0.6989
-8 10 3 1.3478 -0.3327
-8 10 4 -4.8427 0.3063
-8 10 5 -4.2053 -0.0931
-8 10 6 -4.5949 0.0219
-8 10 7 -1.5058 -0.0530
-8 10 8 -3.8314 0.0515
-8 10 9 4.3987 -0.0641
-8 10 10 1.6163 -0.1258
-8 10 11 7.1141 0.2217
-8 10 12 0.0110 -0.0006
-8 10 13 -8.0271 0.0458
-8 10 14 -4.7456 0.0293
-8 10 15 2.8295 -0.0027
-8 10 16 7.2359 -0.0383
-8 10 17 1.8837 0.0712
-8 10 18 0.8147 -0.0320
-8 11 1 -14.7909 0.3537
-8 11 2 4.2189 0.0296
-8 11 3 18.6775 -0.6177
-8 11 4 3.7572 -0.3592
-8 11 5 -7.7088 0.3432
-8 11 6 -3.8103 -0.2307
-8 11 7 -4.5506 -0.0519
-8 11 8 7.4059 -0.0722
-8 11 9 1.1643 0.0110
-8 11 10 2.3251 -0.0474
-8 11 11 -1.8534 0.0060
-8 11 12 3.2813 0.2560
-8 11 13 1.6983 0.0462
-8 11 14 -6.3963 0.0984
-8 11 15 1.3998 0.0530
-8 11 16 7.5561 0.0046
-8 12 1 -17.0888 0.9909
-8 12 2 -8.5482 0.3690
-8 12 3 6.4705 -0.0801
-8 12 4 7.4121 -0.2804
-8 12 5 -1.4113 -0.1905
-8 12 6 -0.6269 0.2155
-8 12 7 6.8215 -0.4506
-8 12 8 -2.2049 -0.0711
-8 12 9 7.0241 0.0189
-8 12 10 -1.0008 0.0609
-8 12 11 -2.9237 0.0912
-8 12 12 0.4055 0.1280
-8 12 13 2.6254 0.1012
-8 12 14 3.5286 -0.0515
-8 13 1 -2.7769 -0.6131
-8 13 2 -23.3020 0.7249
-8 13 3 -7.7915 0.3476
-8 13 4 2.9224 -0.1263
-8 13 5 1.2075 0.1067
-8 13 6 4.2165 -0.0206
-8 13 7 5.9397 -0.0654
-8 13 8 6.4584 -0.4581
-8 13 9 -5.0020 0.2049
-8 13 10 3.0451 0.1458
-8 13 11 -0.1038 -0.0111
-8 13 12 -2.4068 -0.0023
-8 14 1 10.2108 -0.4227
-8 14 2 -11.4370 -0.4607
-8 14 3 -16.6777 0.3439
-8 14 4 3.7321 0.1950
-8 14 5 -0.6793 0.0916
-8 14 6 -7.8194 0.3938
-8 14 7 4.1144 -0.0335
-8 14 8 6.8874 -0.2010
-7 -17 2 -1.8755 0.1262
-7 -17 3 -8.8366 0.1012
-7 -16 1 0.3892 0.4340
-7 -16 2 -3.9399 -0.1493
-7 -16 3 -4.7387 -0.0183
-7 -16 4 -7.8326 0.0706
-7 -16 5 -0.5461 0.1558
-7 -16 6 -0.3591 -0.0189
-7 -16 7 1.5788 0.0523
-7 -15 1 -1.0974 0.4313
-7 -15 2 -3.1849 0.3375
-7 -15 3 -5.9810 -0.3680
-7 -15 4 -0.7612 -0.1692
-7 -15 5 -3.5867 0.0918
-7 -15 6 -0.0209 0.0794
-7 -15 7 -0.5128 0.1329
-7 -15 8 1.2878 0.0702
-7 -15 9 1.8475 0.2341
-7 -14 1 2.0030 0.1280
-7 -14 2 -4.2580 0.4562
-7 -14 3 -1.7451 0.1137
-7 -14 4 -5.3021 -0.3557
-7 -14 5 -0.0346 -0.0996
-7 -14 6 -1.7159 0.1011
-7 -14 7 0.7981 -0.0659
-7 -14 8 0.3448 0.0757
-7 -14 9 1.6779 0.0234
-7 -14 10 3.6086 0.2679
-7 -14 11 4.4511 0.4154
-7 -13 1 5.2633 -0.5116
-7 -13 2 0.6418 0.1407
-7 -13 3 -7.8900 0.3671
-7 -13 4 -2.6077 0.0179
-7 -13 5 -5.4192 -0.2515
-7 -13 6 0.2466 -0.0650
-7 -13 7 2.2005 0.0247
-7 -13 8 2.2056 -0.1201
-7 -13 9 -0.3511 0.1457
-7 -13 10 1.0791 0.0868
-7 -13 11 3.3349 0.2038
-7 -13 12 1.2737 0.2110
-7 -13 13 -0.2149 0.0482
-7 -12 1 1.8614 -0.4484
-7 -12 2 -2.2865 -0.3392
-7 -12 3 -3.9042 0.0910
-7 -12 4 -8.2619 0.1155
-7 -12 5 -0.3938 0.0563
-7 -12 6 -1.9654 -0.0780
-7 -12 7 1.2101 0.0119
-7 -12 8 3.4758 0.0295
-7 -12 9 0.1452 -0.1586
-7 -12 10 -2.8836 0.0947
-7 -12 11 -0.4993 -0.0038
-7 -12 12 3.6896 0.0188
-7 -12 13 0.8112 0.0995
-7 -12 14 3.9145 0.1407
-7 -12 15 -3.7512 0.2296
-7 -11 1 3.6154 0.3115
-7 -11 2 0.7693 -0.3479
-7 -11 3 -8.7968 -0.3371
-7 -11 4 -2.7375 0.1205
-7 -11 5 -0.3634 -0.0356
-7 -11 6 2.5138 0.1531
-7 -11 7 -0.6773 0.0405
-7 -11 8 -0.9710 -0.0211
-7 -11 9 -1.1480 -0.0224
-7 -11 10 -3.2484 -0.2262
-7 -11 11 -2.0958 0.0574
-7 -11 12 2.1076 0.0330
-7 -11 13 8.7762 -0.0539
-7 -11 14 1.9370 0.0598
-7 -11 15 3.4514 0.0918
-7 -11 16 -4.4808 0.0505
-7 -10 1 -2.9767 0.0231
-7 -10 2 1.9800 0.3116
-7 -10 3 0.7597 -0.0986
-7 -10 4 -5.9715 -0.3839
-7 -10 5 2.7992 0.1958
-7 -10 6 4.5622 -0.1528
-7 -10 7 -0.3351 0.0893
-7 -10 8 -4.6583 0.0794
-7 -10 9 -4.2844 -0.0656
-7 -10 10 -4.0349 -0.0159
-7 -10 11 -0.6257 -0.1286
-7 -10 12 4.8121 0.0819
-7 -10 13 5.2612 0.0395
-7 -10 14 8.2270 -0.2064
-7 -10 15 -3.4055 -0.0415
-7 -10 16 -1.7029 0.0293
-7 -10 17 -0.7908 -0.0233
-7 -10 18 -2.1990 -0.0774
-7 -9 1 -2.8481 0.3625
-7 -9 2 1.6284 0.1725
-7 -9 3 3.7630 0.1517
-7 -9 4 1.5425 0.0661
-7 -9 5 -1.9351 -0.4046
-7 -9 6 2.8680 0.2520
-7 -9 7 1.5711 -0.1850
-7 -9 8 -3.1386 -0.0229
-7 -9 9 -6.9975 0.1122
-7 -9 10 -2.7654 -0.0214
-7 -9 11 0.3211 0.0414
-7 -9 12 3.6462 -0.0286
-7 -9 13 6.4012 -0.0507
-7 -9 14 -0.3932 -0.0263
-7 -9 15 1.6877 -0.1609
-7 -9 16 -4.2632 0.0452
-7 -9 17 -0.5260 0.0636
-7 -9 18 4.4975 -0.0823
-7 -9 19 -4.6971 -0.1024
-7 -8 1 -7.1471 -0.7856
-7 -8 2 -0.3304 0.1173
-7 -8 3 6.0851 0.3180
-7 -8 4 2.2735 -0.0977
-7 -8 5 -1.2477 0.1504
-7 -8 6 -1.6522 -0.2441
-7 -8 7 2.9002 0.2942
-7 -8 8 -1.2446 -0.1731
-7 -8 9 -2.3313 -0.0938
-7 -8 10 -4.1849 0.1277
-7 -8 11 1.7513 0.0135
-7 -8 12 3.5708 -0.0141
-7 -8 13 -0.5706 -0.0083
-7 -8 14 1.7254 -0.0719
-7 -8 15 -2.5472 0.1047
-7 -8 16 1.4508 0.0222
-7 -8 17 -1.4227 -0.0153
-7 -8 18 -3.4049 -0.0002
-7 -8 19 1.4132 -0.0657
-7 -8 20 -7.6774 -0.0206
-7 -7 1 -7.3606 0.7691
-7 -7 2 -1.1368 -0.6706
-7 -7 3 5.5674 -0.1105
-7 -7 4 3.3020 0.3649
-7 -7 5 -2.8401 -0.2194
-7 -7 6 -1.6076 0.2080
-7 -7 7 -1.5616 -0.0363
-7 -7 8 4.5999 0.2654
-7 -7 9 -0.0956 -0.1916
-7 -7 10 0.6196 -0.1343
-7 -7 11 -0.6221 0.1066
-7 -7 12 -0.0382 0.0386
-7 -7 13 2.1942 -0.0358
-7 -7 14 -1.1961 0.0679
-7 -7 15 3.1210 -0.0033
-7 -7 16 -2.2702 0.0848
-7 -7 17 -3.6854 0.0234
-7 -7 18 -2.4581 -0.0885
-7 -7 19 -3.7325 0.1094
-7 -7 20 2.4420 0.0303
-7 -7 21 -4.9552 -0.0469
-7 -7 22 -0.5908 -0.0753
-7 -6 1 -1.2807 0.2959
-7 -6 2 -0.4615 0.6406
-7 -6 3 6.3759 -0.5340
-7 -6 4 1.2335 -0.1886
-7 -6 5 -3.7657 0.3728
-7 -6 6 -4.2072 -0.2120
-7 -6 7 3.2016 0.1490
-7 -6 8 0.0014 0.0019
-7 -6 9 4.7959 0.1708
-7 -6 10 1.7750 -0.1515
-7 -6 11 -1.1362 -0.0440
-7 -6 12 1.0661 0.1449
-7 -6 13 0.7619 0.0147
-7 -6 14 4.9517 -0.1182
-7 -6 15 -0.3454 0.0477
-7 -6 16 -1.8467 0.0251
-7 -6 17 -5.0327 -0.0207
-7 -6 18 -2.4244 0.0573
-7 -6 19 4.5070 -0.0488
-7 -6 20 -1.2121 0.1350
-7 -6 21 -0.5455 -0.0334
-7 -6 22 -4.5296 -0.0738
-7 -6 23 1.8628 0.0296
-7 -5 1 0.3399 0.0198
-7 -5 2 7.7867 0.3752
-7 -5 3 -1.7596 0.5730
-7 -5 4 -0.5848 -0.4286
-7 -5 5 -1.2824 -0.1334
-7 -5 6 0.8216 0.3099
-7 -5 7 -0.9203 -0.2878
-7 -5 8 3.1708 0.0233
-7 -5 9 -2.3861 0.0691
-7 -5 10 0.0986 0.1727
-7 -5 11 5.7401 -0.0565
-7 -5 12 1.2505 -0.0008
-7 -5 13 2.6995 0.0733
-7 -5 14 -0.7011 -0.0784
-7 -5 15 1.9205 -0.1306
-7 -5 16 -0.5478 0.0600
-7 -5 17 -1.0098 0.0458
-7 -5 18 0.6624 -0.1334
-7 -5 19 0.8903 0.0941
-7 -5 20 3.3206 -0.0263
-7 -5 21 -4.9151 0.0402
-7 -5 22 -2.6212 -0.0427
-7 -5 23 1.4450 0.0379
-7 -5 24 7.0476 0.0631
-7 -4 1 2.2933 -0.5926
-7 -4 2 -7.3321 0.1423
-7 -4 3 4.4302 0.2587
-7 -4 4 1.5775 0.4429
-7 -4 5 3.4179 -0.3960
-7 -4 6 2.6830 -0.0570
-7 -4 7 -0.7756 0.2826
-7 -4 8 -5.3089 -0.2785
-7 -4 9 0.5505 0.0111
-7 -4 10 2.3657 0.1443
-7 -4 11 -1.6557 0.0422
-7 -4 12 6.6178 -0.0592
-7 -4 13 -0.2456 0.0483
-7 -4 14 -1.4807 0.0385
-7 -4 15 1.2956 -0.0915
-7 -4 16 5.2460 -0.0515
-7 -4 17 2.0504 0.0448
-7 -4 18 -2.3831 0.0276
-7 -4 19 0.2650 -0.1705
-7 -4 20 -0.5732 0.1131
-7 -4 21 2.2991 -0.0479
-7 -4 22 -4.4293 -0.0282
-7 -4 23 -2.1503 0.0779
-7 -4 24 4.9197 0.1033
-7 -3 1 -15.5382 -0.6459
-7 -3 2 -3.2513 -0.6530
-7 -3 3 -0.6199 0.2105
-7 -3 4 13.1970 -0.0278
-7 -3 5 5.2392 0.2683
-7 -3 6 -3.1216 -0.1992
-7 -3 7 -1.2292 0.0920
-7 -3 8 1.1333 0.2547
-7 -3 9 0.5370 -0.2441
-7 -3 10 -0.3316 -0.0450
-7 -3 11 1.5537 0.1508
-7 -3 12 -6.7657 -0.0674
-7 -3 13 5.0909 -0.0279
-7 -3 14 3.9734 0.1162
-7 -3 15 0.1471 -0.0064
-7 -3 16 3.2116 -0.0496
-7 -3 17 2.2540 0.0808
-7 -3 18 -1.3473 -0.0151
-7 -3 19 -2.3817 -0.0537
-7 -3 20 4.7246 -0.1356
-7 -3 21 1.2178 0.1356
-7 -3 22 -0.6908 -0.0356
-7 -3 23 -7.8236 -0.0271
-7 -3 24 -3.3422 0.1212
-7 -2 1 -9.5372 0.5533
-7 -2 2 -7.5044 -0.4069
-7 -2 3 7.8251 -0.7303
-7 -2 4 2.5095 0.3087
-7 -2 5 1.2912 -0.1479
-7 -2 6 1.8600 0.0856
-7 -2 7 2.6795 0.0039
-7 -2 8 5.6179 0.1337
-7 -2 9 0.9503 0.1146
-7 -2 10 -1.8757 -0.1241
-7 -2 11 -5.2153 -0.0490
-7 -2 12 5.2533 0.1171
-7 -2 13 -0.1967 -0.1088
-7 -2 14 1.5423 -0.0276
-7 -2 15 2.1524 0.1563
-7 -2 16 -0.3175 -0.0154
-7 -2 17 3.3989 -0.0315
-7 -2 18 1.7928 0.0891
-7 -2 19 1.7345 -0.0909
-7 -2 20 1.5647 -0.0412
-7 -2 21 6.9719 0.0030
-7 -2 22 -1.5881 0.0706
-7 -2 23 -6.6961 -0.1247
-7 -2 24 -7.1173 -0.0051
-7 -2 25 1.0730 0.1649
-7 -1 1 2.0960 0.0208
-7 -1 2 -4.3679 0.2989
-7 -1 3 -6.2097 -0.0428
-7 -1 4 3.6015 -0.5555
-7 -1 5 2.2389 0.2929
-7 -1 6 3.2091 -0.2041
-7 -1 7 6.6281 -0.1219
-7 -1 8 2.7048 0.1010
-7 -1 9 0.2398 0.1514
-7 -1 10 -1.1201 -0.0407
-7 -1 11 5.0663 0.0080
-7 -1 12 -1.2500 -0.0318
-7 -1 13 3.9254 0.0293
-7 -1 14 -2.6685 -0.0520
-7 -1 15 -5.2608 -0.0331
-7 -1 16 6.1850 0.0905
-7 -1 17 7.5518 -0.0745
-7 -1 18 3.2078 -0.0247
-7 -1 19 -1.3435 0.1176
-7 -1 20 4.9094 -0.0472
-7 -1 21 5.4489 -0.0610
-7 -1 22 7.3568 -0.0354
-7 -1 23 -3.2518 -0.0184
-7 -1 24 -7.7163 -0.0193
-7 -1 25 -1.9568 0.1586
-7 -1 26 3.3098 0.0795
-7 0 1 -6.6516 -0.2907
-7 0 2 -3.5327 0.2266
-7 0 3 -3.3552 0.1612
-7 0 4 3.7684 0.1109
-7 0 5 11.8161 -0.2923
-7 0 6 1.9698 0.1847
-7 0 7 -3.5459 -0.1698
-7 0 8 0.2059 -0.2024
-7 0 9 3.5388 0.0539
-7 0 10 6.5966 0.1154
-7 0 11 0.4916 -0.1551
-7 0 12 0.2918 0.0851
-7 0 13 -5.1495 0.0430
-7 0 14 2.2049 -0.0737
-7 0 15 2.4166 -0.0112
-7 0 16 -2.5036 -0.0488
-7 0 17 6.8118 0.0372
-7 0 18 7.0706 -0.0381
-7 0 19 0.5627 0.0283
-7 0 20 -1.8812 0.0373
-7 0 21 8.8484 -0.0761
-7 0 22 9.4459 -0.0256
-7 0 23 6.7876 0.0492
-7 0 24 -3.6367 0.0529
-7 0 25 -7.6700 0.0147
-7 0 26 -0.1998 0.0421
-7 0 27 2.8333 -0.0946
-7 1 1 -6.9609 -0.0464
-7 1 2 -8.5832 -0.5324
-7 1 3 9.9218 0.2352
-7 1 4 10.6782 0.0787
-7 1 5 0.4111 0.0406
-7 1 6 2.8779 0.0158
-7 1 7 -1.8307 0.1514
-7 1 8 0.6384 -0.1423
-7 1 9 4.0276 -0.1852
-7 1 10 -0.2538 -0.0364
-7 1 11 0.6717 0.0416
-7 1 12 -5.2237 -0.1774
-7 1 13 0.1677 0.0813
-7 1 14 2.7241 0.1111
-7 1 15 1.4486 -0.1334
-7 1 16 -1.9093 0.0594
-7 1 17 -3.2207 0.0264
-7 1 18 7.3919 0.0179
-7 1 19 6.9194 -0.0572
-7 1 20 -2.0161 0.0249
-7 1 21 -4.6291 0.0115
-7 1 22 10.5581 0.0367
-7 1 23 14.5799 0.1052
-7 1 24 4.2402 -0.0153
-7 1 25 -7.5514 -0.0732
-7 1 26 -6.5054 -0.0187
-7 2 1 -6.5723 0.3341
-7 2 2 9.9613 0.0617
-7 2 3 -0.5326 -0.5726
-7 2 4 2.7742 0.0571
-7 2 5 4.6877 0.1064
-7 2 6 -4.6371 -0.0582
-7 2 7 7.0145 0.1973
-7 2 8 4.9514 0.1715
-7 2 9 -3.0775 -0.1271
-7 2 10 -3.9595 -0.1011
-7 2 11 -4.9535 -0.0553
-7 2 12 2.8020 -0.0688
-7 2 13 -0.2828 -0.1258
-7 2 14 -1.9878 0.0715
-7 2 15 -1.9583 0.1490
-7 2 16 -2.9291 -0.1222
-7 2 17 -0.1089 0.1065
-7 2 18 2.1500 0.0616
-7 2 19 3.3764 -0.0000
-7 2 20 -1.5222 -0.0224
-7 2 21 -4.5581 0.0746
-7 2 22 -0.2424 0.0205
-7 2 23 13.1516 0.0148
-7 2 24 12.8895 0.0713
-7 2 25 -1.4585 -0.0924
-7 3 1 0.9011 1.1888
-7 3 2 -0.7421 0.2089
-7 3 3 1.5670 -0.0722
-7 3 4 -6.2323 -0.2972
-7 3 5 -1.9744 -0.0317
-7 3 6 8.5263 0.0969
-7 3 7 -4.2021 -0.1574
-7 3 8 0.2975 0.1906
-7 3 9 3.9174 0.1897
-7 3 10 -2.9100 -0.0466
-7 3 11 0.4987 0.0026
-7 3 12 -1.6259 -0.0039
-7 3 13 -2.8752 -0.1534
-7 3 14 -3.4909 -0.0579
-7 3 15 -3.3700 0.0546
-7 3 16 -0.0632 0.0962
-7 3 17 0.7502 -0.0915
-7 3 18 -1.3939 0.1232
-7 3 19 -2.8766 0.0623
-7 3 20 -0.7222 -0.0057
-7 3 21 -0.4181 0.0042
-7 3 22 -1.2742 0.0264
-7 3 23 2.5855 -0.0084
-7 3 24 10.2155 -0.0083
-7 4 1 -4.5876 -0.3647
-7 4 2 8.8153 1.0759
-7 4 3 -3.4055 0.2401
-7 4 4 -6.4846 -0.1529
-7 4 5 -4.4308 0.0559
-7 4 6 -5.9952 -0.1027
-7 4 7 2.3010 -0.0549
-7 4 8 -2.7933 -0.1545
-7 4 9 1.7663 0.1757
-7 4 10 9.2585 0.1428
-7 4 11 0.2325 0.0247
-7 4 12 -3.1358 0.0494
-7 4 13 -3.6844 0.0500
-7 4 14 -3.4347 -0.1291
-7 4 15 2.5035 -0.0193
-7 4 16 1.0815 -0.0060
-7 4 17 -3.1789 -0.0102
-7 4 18 -1.8594 -0.0593
-7 4 19 -1.5218 0.0927
-7 4 20 -1.0373 0.0081
-7 4 21 1.7897 -0.0241
-7 4 22 0.1611 0.0494
-7 4 23 -2.2549 -0.0001
-7 4 24 4.9210 -0.0388
-7 5 1 3.0043 -0.8576
-7 5 2 3.9587 -0.1422
-7 5 3 11.5243 0.8049
-7 5 4 -11.4526 0.2137
-7 5 5 -16.5661 -0.2370
-7 5 6 -1.2747 0.2345
-7 5 7 -0.7532 -0.0477
-7 5 8 3.5874 -0.0914
-7 5 9 4.5325 -0.1045
-7 5 10 1.3596 0.0647
-7 5 11 2.2271 -0.0313
-7 5 12 0.7927 0.0772
-7 5 13 -1.3531 0.1507
-7 5 14 2.8394 0.0860
-7 5 15 2.0817 -0.0813
-7 5 16 2.9495 -0.0586
-7 5 17 -0.6010 -0.0703
-7 5 18 -4.5586 -0.0462
-7 5 19 -0.6406 -0.0182
-7 5 20 1.4076 0.0363
-7 5 21 0.5858 -0.0258
-7 5 22 0.3642 -0.0099
-7 5 23 -0.7291 0.0546
-7 5 24 -1.4223 -0.0780
-7 6 1 7.2241 -0.4872
-7 6 2 6.6104 -0.6679
-7 6 3 -5.4754 -0.0222
-7 6 4 -0.5698 0.3602
-7 6 5 -6.8344 0.1465
-7 6 6 -4.4905 -0.1165
-7 6 7 8.5547 0.3120
-7 6 8 1.0413 -0.0114
-7 6 9 0.6152 -0.1231
-7 6 10 5.0439 -0.1145
-7 6 11 -0.4679 -0.0032
-7 6 12 -2.9640 -0.0622
-7 6 13 7.4496 0.0831
-7 6 14 6.0545 0.1497
-7 6 15 4.2616 0.0156
-7 6 16 1.7936 0.0011
-7 6 17 0.7095 0.0273
-7 6 18 -1.6596 -0.0380
-7 6 19 -3.5572 -0.0545
-7 6 20 -1.4417 -0.0269
-7 6 21 1.3742 -0.0123
-7 6 22 1.5938 -0.0471
-7 6 23 -3.1959 -0.0352
-7 7 1 6.7684 -0.1173
-7 7 2 -0.1828 -0.3641
-7 7 3 -0.5595 -0.5246
-7 7 4 -5.7622 0.0156
-7 7 5 5.8173 0.1666
-7 7 6 7.4678 0.1166
-7 7 7 1.0172 -0.0952
-7 7 8 6.0032 0.1972
-7 7 9 0.5572 0.0180
-7 7 10 0.4293 -0.0211
-7 7 11 2.2789 -0.0215
-7 7 12 0.7899 -0.0490
-7 7 13 0.7463 -0.0838
-7 7 14 12.3920 -0.0252
-7 7 15 5.1006 0.1236
-7 7 16 -3.1454 0.0625
-7 7 17 -0.9038 0.1275
-7 7 18 2.4348 0.0996
-7 7 19 -2.6641 -0.0640
-7 7 20 -6.0825 -0.0689
-7 7 21 -3.2765 0.0025
-7 7 22 0.1505 -0.0205
-7 7 23 3.0801 -0.0981
-7 8 1 -4.5383 0.2075
-7 8 2 9.5352 -0.3568
-7 8 3 5.5028 -0.1941
-7 8 4 -0.7834 -0.2106
-7 8 5 -4.9878 -0.0189
-7 8 6 5.6101 -0.0371
-7 8 7 13.9701 0.0092
-7 8 8 3.0062 -0.0651
-7 8 9 1.7051 0.2037
-7 8 10 -1.0443 0.0966
-7 8 11 -0.1244 -0.0009
-7 8 12 3.5038 0.0339
-7 8 13 6.3692 -0.0797
-7 8 14 2.5003 -0.0358
-7 8 15 3.4566 -0.0487
-7 8 16 -2.4458 0.0589
-7 8 17 -3.6966 0.0529
-7 8 18 0.2393 0.1240
-7 8 19 0.9875 0.1050
-7 8 20 -7.6710 -0.0363
-7 8 21 -8.4705 -0.0046
-7 8 22 2.4319 0.0353
-7 9 1 -2.8132 0.0454
-7 9 2 6.0216 -0.0338
-7 9 3 9.8768 -0.2339
-7 9 4 -2.1359 -0.0809
-7 9 5 -8.3437 -0.0663
-7 9 6 2.4767 -0.1276
-7 9 7 10.8701 -0.1580
-7 9 8 10.0007 0.0745
-7 9 9 -3.9766 0.0513
-7 9 10 -3.3597 0.1246
-7 9 11 2.8358 0.0527
-7 9 12 2.7913 -0.0168
-7 9 13 3.3950 0.1143
-7 9 14 4.2486 -0.0678
-7 9 15 -1.8399 -0.0482
-7 9 16 -2.9391 -0.0702
-7 9 17 -3.4190 -0.0513
-7 9 18 -1.1932 0.0041
-7 9 19 -3.5398 0.0903
-7 9 20 -3.3532 0.0780
-7 9 21 -2.6148 0.0255
-7 10 1 5.9248 0.3254
-7 10 2 -3.6396 0.0845
-7 10 3 -1.4499 -0.1722
-7 10 4 0.6878 -0.0338
-7 10 5 1.0157 -0.0779
-7 10 6 0.0286 -0.0264
-7 10 7 7.4983 -0.0961
-7 10 8 2.2880 -0.1802
-7 10 9 -5.1434 0.1507
-7 10 10 -4.1342 0.0976
-7 10 11 -0.6663 -0.0617
-7 10 12 4.9306 -0.0177
-7 10 13 1.5890 -0.0013
-7 10 14 1.8505 0.0657
-7 10 15 1.1319 -0.0638
-7 10 16 -6.2332 -0.0211
-7 10 17 -4.1000 -0.0334
-7 10 18 -0.8291 -0.1344
-7 10 19 1.4789 -0.1037
-7 10 20 -3.3866 0.0504
-7 11 1 -2.0539 0.4440
-7 11 2 -0.8426 0.1581
-7 11 3 -5.6354 0.2438
-7 11 4 3.3786 -0.2047
-7 11 5 2.9975 0.0716
-7 11 6 3.2968 -0.0327
-7 11 7 1.4766 -0.0279
-7 11 8 1.4405 -0.0110
-7 11 9 -4.1763 -0.1485
-7 11 10 -12.1494 0.1084
-7 11 11 -0.9008 -0.0269
-7 11 12 0.7929 -0.2194
-7 11 13 3.8048 -0.0032
-7 11 14 1.0408 0.1033
-7 11 15 -1.7961 -0.0195
-7 11 16 -2.9426 -0.0518
-7 11 17 -5.4180 0.0136
-7 11 18 2.9389 -0.0442
-7 12 1 7.5286 -0.1668
-7 12 2 1.6699 0.5424
-7 12 3 4.9785 -0.0180
-7 12 4 -1.7017 0.3689
-7 12 5 0.7582 -0.1488
-7 12 6 -1.7660 0.0386
-7 12 7 4.9632 0.0415
-7 12 8 7.2683 -0.0422
-7 12 9 -5.5078 0.0459
-7 12 10 -8.1618 -0.1440
-7 12 11 -12.7445 -0.0556
-7 12 12 0.6064 -0.1164
-7 12 13 0.3258 -0.0253
-7 12 14 0.4396 0.1201
-7 12 15 0.6716 0.0656
-7 12 16 -2.0872 -0.1984
-7 12 17 -1.3982 -0.0739
-7 13 1 10.5541 -0.3383
-7 13 2 17.3834 -0.2470
-7 13 3 5.1340 0.6132
-7 13 4 -0.5485 -0.1209
-7 13 5 -5.5456 0.2489
-7 13 6 0.4682 -0.0966
-7 13 7 4.1167 -0.0099
-7 13 8 7.3899 0.0740
-7 13 9 5.0936 -0.0660
-7 13 10 -13.9190 0.1296
-7 13 11 -7.0984 -0.0461
-7 13 12 -6.9990 -0.0583
-7 13 13 -1.4581 -0.0538
-7 13 14 -0.3499 0.1620
-7 14 1 -5.5187 -0.5028
-7 14 2 9.0742 0.0829
-7 14 3 15.8084 -0.0827
-7 14 4 2.1336 0.3412
-7 14 5 1.7210 -0.3647
-7 14 6 -0.5847 0.1134
-7 14 7 0.0113 0.1078
-7 14 8 3.8788 -0.0599
-7 14 9 1.8838 -0.0327
-7 14 10 1.4691 0.0753
-7 14 11 -10.7791 0.4301
-7 15 1 -11.3879 -0.1656
-7 15 2 -15.9203 -0.3140
-7 15 3 8.5032 0.3044
-7 15 4 19.5428 -0.1015
-7 15 5 6.2284 -0.0428
-6 -18 1 -4.1830 -0.2637
-6 -17 1 -1.2688 -0.5941
-6 -17 2 -2.7820 -0.2507
-6 -17 3 1.8168 0.0896
-6 -17 4 2.5792 -0.2192
-6 -16 1 1.2172 0.1338
-6 -16 2 3.0234 -0.4061
-6 -16 3 0.2657 -0.2392
-6 -16 4 -1.3605 0.1464
-6 -16 5 -0.7885 -0.1989
-6 -16 6 -0.5805 0.0961
-6 -16 7 0.6769 -0.1527
-6 -15 1 4.4791 0.3414
-6 -15 2 3.5560 0.1057
-6 -15 3 3.7332 -0.1436
-6 -15 4 -2.9913 -0.2807
-6 -15 5 -5.0252 0.0747
-6 -15 6 -0.3626 -0.1365
-6 -15 7 0.2141 0.0918
-6 -15 8 -0.6443 -0.0909
-6 -15 9 1.3417 -0.0447
-6 -15 10 -2.1798 0.0900
-6 -14 1 7.5792 0.0842
-6 -14 2 6.4412 0.3902
-6 -14 3 3.2794 0.0578
-6 -14 4 2.2260 -0.0924
-6 -14 5 -3.2980 -0.2315
-6 -14 6 -3.5573 0.1378
-6 -14 7 -0.1199 -0.0360
-6 -14 8 -0.5701 -0.0215
-6 -14 9 -2.0863 -0.1285
-6 -14 10 2.4631 -0.0403
-6 -14 11 -2.8807 -0.0270
-6 -14 12 -0.3288 -0.2324
-6 -13 1 4.3405 -0.2611
-6 -13 2 7.8620 0.0117
-6 -13 3 8.0382 0.2625
-6 -13 4 4.2720 0.0661
-6 -13 5 0.8902 -0.0313
-6 -13 6 -3.6060 -0.0856
-6 -13 7 -2.2918 0.0942
-6 -13 8 -0.9602 -0.1862
-6 -13 9 0.1318 -0.1228
-6 -13 10 -1.8508 0.0334
-6 -13 11 3.3156 0.0575
-6 -13 12 -2.1481 -0.0556
-6 -13 13 -0.9612 -0.2328
-6 -13 14 3.9342 -0.1752
-6 -12 1 -0.6912 -0.2880
-6 -12 2 5.4560 -0.3215
-6 -12 3 6.5652 0.0345
-6 -12 4 7.5061 0.0538
-6 -12 5 1.8777 0.0414
-6 -12 6 -1.0384 0.0010
-6 -12 7 -3.1036 -0.0462
-6 -12 8 -0.7893 0.0357
-6 -12 9 -0.7940 -0.1770
-6 -12 10 1.9379 -0.0145
-6 -12 11 -0.6767 0.1597
-6 -12 12 1.3010 -0.0647
-6 -12 13 -3.3825 -0.1203
-6 -12 14 -3.6805 -0.1407
-6 -12 15 5.9393 -0.0275
-6 -11 1 1.0378 0.7697
-6 -11 2 0.0256 -0.0871
-6 -11 3 1.4510 -0.5134
-6 -11 4 0.3544 0.0589
-6 -11 5 5.0980 -0.0745
-6 -11 6 3.0726 0.0173
-6 -11 7 -0.0273 0.1023
-6 -11 8 -3.6571 -0.0550
-6 -11 9 -0.7584 0.0228
-6 -11 10 0.7024 -0.0515
-6 -11 11 2.9135 -0.0175
-6 -11 12 -2.4772 0.0973
-6 -11 13 -5.2819 -0.1084
-6 -11 14 -2.1818 0.0317
-6 -11 15 -1.0536 0.0448
-6 -11 16 8.2484 0.0550
-6 -11 17 -4.3577 0.0278
-6 -10 1 4.5850 0.6901
-6 -10 2 3.3291 0.6058
-6 -10 3 -6.2334 0.0748
-6 -10 4 -3.1703 -0.5598
-6 -10 5 0.5500 0.1816
-6 -10 6 7.7631 -0.0172
-6 -10 7 4.7372 -0.1145
-6 -10 8 -2.9694 0.1008
-6 -10 9 -5.2456 -0.0729
-6 -10 10 0.7908 0.0568
-6 -10 11 0.9301 0.0835
-6 -10 12 -1.2033 -0.1083
-6 -10 13 -4.0159 0.0524
-6 -10 14 -4.6512 0.0405
-6 -10 15 5.2181 0.1169
-6 -10 16 -0.4134 0.0115
-6 -10 17 1.6997 -0.0111
-6 -10 18 -6.0090 0.0237
-6 -9 1 -2.8813 -0.5747
-6 -9 2 1.3431 0.8493
-6 -9 3 1.4736 0.3562
-6 -9 4 -6.0876 0.1844
-6 -9 5 0.1566 -0.3836
-6 -9 6 4.9689 0.2130
-6 -9 7 5.2868 0.0260
-6 -9 8 1.5033 -0.2823
-6 -9 9 -4.1790 0.1018
-6 -9 10 -4.8490 0.0046
-6 -9 11 -0.4411 0.0529
-6 -9 12 -1.1636 0.1032
-6 -9 13 -1.1946 -0.1479
-6 -9 14 2.2946 0.0257
-6 -9 15 -2.1600 0.0934
-6 -9 16 4.0382 -0.0173
-6 -9 17 -3.2082 -0.0512
-6 -9 18 0.7524 0.0087
-6 -9 19 3.6460 0.0410
-6 -8 1 0.4723 -0.6265
-6 -8 2 -0.1574 -0.7300
-6 -8 3 -3.7388 0.7941
-6 -8 4 1.8953 0.1130
-6 -8 5 0.9981 0.1609
-6 -8 6 3.4018 -0.1183
-6 -8 7 5.0851 0.1858
-6 -8 8 0.4478 0.0763
-6 -8 9 -2.7165 -0.3386
-6 -8 10 -4.7097 0.1079
-6 -8 11 -4.5031 0.0454
-6 -8 12 1.1559 -0.0390
-6 -8 13 2.0528 0.0290
-6 -8 14 -0.7605 -0.1058
-6 -8 15 2.7729 -0.0472
-6 -8 16 -2.6965 0.0773
-6 -8 17 4.7233 -0.0524
-6 -8 18 2.1662 0.0013
-6 -8 19 1.9872 -0.0266
-6 -8 20 5.6748 -0.0590
-6 -7 1 -1.0352 -0.2242
-6 -7 2 -4.5291 -0.3894
-6 -7 3 -0.8803 -0.7582
-6 -7 4 -0.0286 0.5738
-6 -7 5 5.1276 -0.0282
-6 -7 6 6.2970 0.0934
-6 -7 7 2.2674 0.1304
-6 -7 8 -1.2212 0.1409
-6 -7 9 -4.6765 0.1038
-6 -7 10 -4.2529 -0.2993
-6 -7 11 0.9329 0.0824
-6 -7 12 0.1235 -0.0399
-6 -7 13 0.1583 -0.1376
-6 -7 14 -0.6207 0.0297
-6 -7 15 -2.1117 0.0679
-6 -7 16 6.8692 -0.0838
-6 -7 17 2.1729 0.0626
-6 -7 18 2.0162 -0.0144
-6 -7 19 -0.2662 -0.0020
-6 -7 20 -2.0669 -0.0852
-6 -7 21 5.8102 -0.0765
-6 -7 22 0.3927 0.1012
-6 -7 23 -1.9279 0.0711
-6 -7 24 -5.4939 -0.0613
-6 -6 1 -11.0115 0.5821
-6 -6 2 -1.7388 -0.2257
-6 -6 3 -0.2943 -0.2395
-6 -6 4 8.7307 -0.5982
-6 -6 5 4.4935 0.3747
-6 -6 6 -2.0588 -0.0991
-6 -6 7 0.7987 0.0277
-6 -6 8 1.0055 0.2629
-6 -6 9 -3.3809 0.0324
-6 -6 10 -1.8136 0.0766
-6 -6 11 -0.4339 -0.2091
-6 -6 12 2.4899 0.0728
-6 -6 13 -1.7605 -0.0948
-6 -6 14 -2.7793 -0.0747
-6 -6 15 2.7656 0.1120
-6 -6 16 2.6855 0.1472
-6 -6 17 5.1586 -0.1574
-6 -6 18 -2.9433 0.0669
-6 -6 19 -4.8681 0.0641
-6 -6 20 0.8272 -0.0474
-6 -6 21 0.3168 -0.0681
-6 -6 22 5.8850 -0.0283
-6 -6 23 -0.6073 0.1032
-6 -6 24 -5.6726 0.0418
-6 -5 1 -13.8309 0.4069
-6 -5 2 -4.2316 0.4646
-6 -5 3 13.7565 -0.1691
-6 -5 4 3.6194 -0.0884
-6 -5 5 -0.6387 -0.3216
-6 -5 6 -3.8292 0.2543
-6 -5 7 -3.7741 -0.1964
-6 -5 8 2.4801 -0.0917
-6 -5 9 5.3115 0.2351
-6 -5 10 -4.7694 -0.0871
-6 -5 11 -2.7604 0.1260
-6 -5 12 1.0279 -0.0057
-6 -5 13 2.8129 0.0869
-6 -5 14 0.1004 -0.1319
-6 -5 15 -2.4992 -0.0135
-6 -5 16 3.1196 0.0960
-6 -5 17 0.6221 0.1033
-6 -5 18 -1.0416 -0.1475
-6 -5 19 -2.3939 0.0885
-6 -5 20 -2.5483 0.0744
-6 -5 21 1.4447 -0.0993
-6 -5 22 -0.7556 0.0403
-6 -5 23 3.0773 0.0077
-6 -5 24 -0.8191 -0.0210
-6 -4 1 0.2796 -1.0153
-6 -4 2 6.2656 0.4132
-6 -4 3 -3.7896 0.3130
-6 -4 4 4.8140 -0.1212
-6 -4 5 -2.2093 0.0752
-6 -4 6 -3.3786 -0.1809
-6 -4 7 -0.6906 0.0865
-6 -4 8 0.1245 -0.2753
-6 -4 9 -2.2037 -0.1291
-6 -4 10 2.6099 0.2337
-6 -4 11 -2.2905 -0.1068
-6 -4 12 -1.1968 0.1537
-6 -4 13 2.8401 0.1037
-6 -4 14 0.6402 0.0253
-6 -4 15 -2.1176 -0.1335
-6 -4 16 -3.0657 0.0302
-6 -4 17 3.9177 -0.0032
-6 -4 18 1.9584 0.0278
-6 -4 19 -2.8335 -0.0578
-6 -4 20 -1.0859 0.0619
-6 -4 21 -2.8267 0.0423
-6 -4 22 -0.9090 -0.0797
-6 -4 23 1.4807 0.1180
-6 -4 24 3.4268 -0.0378
-6 -4 25 -0.8213 -0.1188
-6 -3 1 -4.3222 0.3544
-6 -3 2 -10.2439 -1.0334
-6 -3 3 2.8879 0.4102
-6 -3 4 -6.3776 0.1868
-6 -3 5 7.9283 -0.2667
-6 -3 6 3.9788 0.1331
-6 -3 7 -8.9664 -0.1240
-6 -3 8 -9.4930 0.0362
-6 -3 9 1.9394 -0.1679
-6 -3 10 2.3183 -0.0972
-6 -3 11 3.4978 0.1385
-6 -3 12 -1.8152 -0.1289
-6 -3 13 -7.1897 0.1040
-6 -3 14 1.1409 0.1489
-6 -3 15 1.7004 -0.0112
-6 -3 16 -0.4079 -0.1018
-6 -3 17 -1.1595 0.0429
-6 -3 18 1.4631 -0.0795
-6 -3 19 0.2747 0.0126
-6 -3 20 -3.8762 0.0216
-6 -3 21 -0.7141 -0.0521
-6 -3 22 -1.1056 0.0354
-6 -3 23 0.8968 0.0429
-6 -3 24 2.7868 0.1312
-6 -3 25 -0.9177 -0.0849
-6 -3 26 -3.2466 -0.0802
-6 -2 1 -1.1583 -0.0171
-6 -2 2 -8.2464 0.6058
-6 -2 3 -13.1923 -0.9293
-6 -2 4 11.0092 0.2152
-6 -2 5 0.9191 0.1728
-6 -2 6 -1.3942 -0.3799
-6 -2 7 -4.0493 0.1869
-6 -2 8 -9.0010 -0.0231
-6 -2 9 -4.3580 0.0117
-6 -2 10 7.7924 -0.1001
-6 -2 11 1.2675 -0.0750
-6 -2 12 -6.5046 0.0311
-6 -2 13 -1.8863 -0.0674
-6 -2 14 -1.7098 0.0298
-6 -2 15 3.4802 0.1172
-6 -2 16 -1.3261 0.0147
-6 -2 17 -4.4172 -0.0025
-6 -2 18 -1.6208 0.0669
-6 -2 19 -1.1574 -0.1378
-6 -2 20 0.5576 -0.0430
-6 -2 21 -2.0856 0.0595
-6 -2 22 -1.5252 -0.0539
-6 -2 23 0.3725 0.1197
-6 -2 24 0.6715 0.0907
-6 -2 25 -2.1482 -0.0019
-6 -2 26 -5.2081 -0.0576
-6 -2 27 -0.6364 0.1358
-6 -1 1 -2.8507 1.1183
-6 -1 2 0.6266 -0.1551
-6 -1 3 1.6189 0.5362
-6 -1 4 -16.3369 -0.5949
-6 -1 5 -1.3884 0.1017
-6 -1 6 1.6379 0.2860
-6 -1 7 0.5074 -0.4095
-6 -1 8 1.5257 0.1284
-6 -1 9 -3.9724 0.0448
-6 -1 10 -8.6478 -0.0187
-6 -1 11 1.6149 -0.0840
-6 -1 12 5.9266 0.0131
-6 -1 13 -3.4617 -0.0502
-6 -1 14 2.0759 -0.0149
-6 -1 15 -1.1474 -0.0096
-6 -1 16 -4.6135 0.1110
-6 -1 17 -4.1169 0.0820
-6 -1 18 -2.0067 0.0163
-6 -1 19 -0.4385 0.0068
-6 -1 20 -4.8633 -0.1157
-6 -1 21 0.5301 0.0068
-6 -1 22 -0.2190 0.0991
-6 -1 23 -4.2964 -0.0771
-6 -1 24 -0.9867 0.0417
-6 -1 25 -0.2593 0.0486
-6 -1 26 -4.7937 0.0203
-6 -1 27 -4.9570 0.1064
-6 -1 28 0.3283 0.2308
-6 0 1 15.8711 -0.8351
-6 0 2 -1.5435 0.9583
-6 0 3 -14.8756 -0.0700
-6 0 4 -8.0421 0.3253
-6 0 5 -9.4598 -0.1752
-6 0 6 5.2988 0.0770
-6 0 7 9.9747 0.3004
-6 0 8 -1.0318 -0.3531
-6 0 9 -6.5378 0.0675
-6 0 10 -2.5815 0.0682
-6 0 11 -0.4716 -0.0496
-6 0 12 5.4945 -0.1210
-6 0 13 7.4319 0.1158
-6 0 14 -7.7909 -0.0804
-6 0 15 0.3437 0.0223
-6 0 16 3.2106 -0.0075
-6 0 17 -5.3644 0.0494
-6 0 18 -4.0191 0.0594
-6 0 19 -2.6008 0.0125
-6 0 20 -1.1143 0.0382
-6 0 21 -3.7066 -0.0300
-6 0 22 0.2247 -0.0294
-6 0 23 -2.6948 -0.0189
-6 0 24 -6.6931 -0.0789
-6 0 25 0.6100 0.0390
-6 0 26 0.9905 0.0667
-6 0 27 -7.2557 0.0295
-6 1 1 8.4151 -0.3748
-6 1 2 -4.6291 -0.8208
-6 1 3 -17.9821 0.6405
-6 1 4 -9.1708 0.0634
-6 1 5 8.4727 0.0455
-6 1 6 4.1921 0.1145
-6 1 7 -1.8753 0.1536
-6 1 8 -0.5015 0.2152
-6 1 9 2.4008 -0.2464
-6 1 10 1.3119 0.0411
-6 1 11 3.6092 0.0081
-6 1 12 2.1104 -0.0521
-6 1 13 -2.8868 -0.1172
-6 1 14 3.2205 0.1701
-6 1 15 0.4551 -0.1187
-6 1 16 5.0571 -0.0121
-6 1 17 2.1148 0.0129
-6 1 18 -10.2059 0.0138
-6 1 19 -0.5622 0.0325
-6 1 20 3.9185 -0.0076
-6 1 21 -0.6426 0.0340
-6 1 22 -7.7931 -0.0235
-6 1 23 -6.6534 -0.0412
-6 1 24 -1.4294 -0.0464
-6 1 25 -0.6740 -0.0357
-6 1 26 0.2948 -0.0300
-6 2 1 -7.9951 0.1963
-6 2 2 -5.3630 -0.3987
-6 2 3 -0.8868 -0.5213
-6 2 4 -6.6402 0.2942
-6 2 5 -0.9399 0.0540
-6 2 6 6.6018 -0.1242
-6 2 7 1.4624 0.2423
-6 2 8 1.0035 0.2123
-6 2 9 3.0215 0.0688
-6 2 10 6.3500 -0.1402
-6 2 11 -1.1819 0.0733
-6 2 12 -2.4192 -0.0481
-6 2 13 4.9634 -0.0267
-6 2 14 -1.0456 -0.0934
-6 2 15 2.5348 0.1182
-6 2 16 3.3414 -0.1362
-6 2 17 0.1958 -0.0116
-6 2 18 1.0751 0.0525
-6 2 19 -1.7244 -0.0443
-6 2 20 7.1499 -0.0283
-6 2 21 1.5601 -0.0098
-6 2 22 -11.3649 0.0746
-6 2 23 -12.0815 -0.0185
-6 2 24 -4.6745 -0.0496
-6 2 25 4.9252 -0.0993
-6 3 1 -1.9201 0.5474
-6 3 2 -0.7990 0.4041
-6 3 3 -4.4864 -0.4345
-6 3 4 -0.1284 -0.2058
-6 3 5 -4.6631 0.0550
-6 3 6 1.1869 -0.0731
-6 3 7 11.7453 -0.1387
-6 3 8 4.0125 0.2361
-6 3 9 0.1956 0.1508
-6 3 10 -2.5378 -0.0627
-6 3 11 1.5878 -0.0008
-6 3 12 2.0869 0.1511
-6 3 13 -0.1920 -0.0697
-6 3 14 3.0873 -0.0303
-6 3 15 -4.8725 -0.0530
-6 3 16 -2.8922 0.0666
-6 3 17 6.2988 -0.1106
-6 3 18 2.5444 -0.0234
-6 3 19 3.7411 0.0410
-6 3 20 2.3828 -0.0618
-6 3 21 2.8447 0.0004
-6 3 22 -4.7435 -0.0033
-6 3 23 -16.8728 0.0147
-6 3 24 -9.5531 -0.0732
-6 3 25 1.2692 0.0016
-6 4 1 -1.9045 -0.0500
-6 4 2 -7.4135 0.2875
-6 4 3 -1.8346 0.4769
-6 4 4 -3.1834 -0.3556
-6 4 5 5.7962 0.0078
-6 4 6 4.6038 -0.0094
-6 4 7 -1.6335 -0.1909
-6 4 8 4.9607 -0.1348
-6 4 9 -0.2736 0.1126
-6 4 10 -1.1537 0.0629
-6 4 11 0.2542 -0.0664
-6 4 12 1.3922 0.1685
-6 4 13 1.6991 0.1443
-6 4 14 -5.1045 -0.1123
-6 4 15 -4.8218 -0.0108
-6 4 16 -3.2348 0.0403
-6 4 17 -0.9802 0.0292
-6 4 18 6.7391 -0.1119
-6 4 19 2.7948 -0.0363
-6 4 20 3.3976 0.0372
-6 4 21 2.4899 -0.0548
-6 4 22 -2.7989 -0.0115
-6 4 23 -7.0858 -0.0478
-6 5 1 -1.2871 -0.6733
-6 5 2 -6.0997 0.1081
-6 5 3 -5.6842 0.1003
-6 5 4 9.6925 0.4304
-6 5 5 2.7073 -0.1639
-6 5 6 -3.3608 0.0837
-6 5 7 -2.2587 -0.0413
-6 5 8 -4.0819 -0.2540
-6 5 9 3.2594 -0.0853
-6 5 10 2.0642 0.0378
-6 5 11 -1.8041 0.0434
-6 5 12 -0.5182 -0.0895
-6 5 13 -0.3581 0.2009
-6 5 14 -2.7251 0.0846
-6 5 15 -7.6106 -0.0775
-6 5 16 -6.9072 0.0637
-6 5 17 0.5324 0.0628
-6 5 18 0.5952 -0.0491
-6 5 19 4.9644 -0.0958
-6 5 20 5.3316 -0.0123
-6 5 21 2.7939 -0.0017
-6 5 22 0.1876 -0.0584
-6 5 23 -4.9944 0.0207
-6 5 24 -3.8542 -0.0065
-6 5 25 -9.3815 0.0297
-6 6 1 -2.9066 -0.6020
-6 6 2 1.8320 -0.6267
-6 6 3 2.1392 0.2462
-6 6 4 -6.4703 0.0536
-6 6 5 2.3066 0.1921
-6 6 6 -1.9938 -0.0670
-6 6 7 -8.8165 0.1386
-6 6 8 -2.4392 0.0238
-6 6 9 -0.3816 -0.1934
-6 6 10 -0.7374 -0.0064
-6 6 11 1.4175 -0.0954
-6 6 12 -0.7190 -0.0133
-6 6 13 -2.9795 -0.1043
-6 6 14 -2.4330 0.1877
-6 6 15 -4.7122 0.0544
-6 6 16 -4.0153 -0.0603
-6 6 17 -2.5509 0.0668
-6 6 18 2.3834 0.0283
-6 6 19 -0.3519 -0.0523
-6 6 20 4.4178 -0.0188
-6 6 21 8.9073 0.0058
-6 6 22 2.9067 -0.0492
-6 6 23 -1.3152 -0.0179
-6 6 24 -5.2861 0.0718
-6 6 25 -2.3325 -0.0337
-6 7 1 4.8688 0.0459
-6 7 2 3.8168 -0.6082
-6 7 3 -7.0032 -0.3898
-6 7 4 -6.2082 0.2260
-6 7 5 -7.2757 -0.0526
-6 7 6 3.8317 -0.0213
-6 7 7 -1.9393 0.0711
-6 7 8 -12.4532 0.2319
-6 7 9 -5.5611 0.0514
-6 7 10 3.2216 -0.2015
-6 7 11 -0.2352 0.0439
-6 7 12 -1.8814 -0.1744
-6 7 13 -0.9906 -0.0354
-6 7 14 -3.9771 -0.0789
-6 7 15 1.6732 0.0782
-6 7 16 1.0696 0.0154
-6 7 17 -0.9406 -0.0143
-6 7 18 -2.8335 0.0724
-6 7 19 1.5810 0.0158
-6 7 20 2.0860 -0.0045
-6 7 21 7.3639 0.0346
-6 7 22 7.9314 -0.0092
-6 7 23 -2.7281 -0.0516
-6 7 24 -4.3298 0.0315
-6 8 1 -1.6278 0.8208
-6 8 2 -2.6778 0.0852
-6 8 3 1.5989 -0.6356
-6 8 4 -6.8923 -0.1349
-6 8 5 -2.5262 0.1851
-6 8 6 -4.0173 -0.1632
-6 8 7 -2.4040 -0.0894
-6 8 8 -6.0586 0.1505
-6 8 9 -7.3048 0.1654
-6 8 10 -2.4072 0.0337
-6 8 11 1.0552 -0.1634
-6 8 12 -2.0873 0.0887
-6 8 13 -2.2520 -0.1743
-6 8 14 4.8775 -0.0628
-6 8 15 1.0360 -0.0159
-6 8 16 2.0794 0.0042
-6 8 17 0.1784 0.0039
-6 8 18 0.2194 0.0341
-6 8 19 0.2730 0.0427
-6 8 20 5.4201 0.0124
-6 8 21 0.9625 0.0473
-6 8 22 -0.7424 0.0480
-6 8 23 -0.0875 -0.0137
-6 8 24 -3.7418 -0.0015
-6 9 1 -2.2629 0.6677
-6 9 2 -4.7937 0.6154
-6 9 3 3.4112 0.1639
-6 9 4 6.6975 -0.4968
-6 9 5 -9.3159 0.0178
-6 9 6 -8.1279 0.1092
-6 9 7 -3.3985 -0.2759
-6 9 8 -1.0634 -0.0761
-6 9 9 -2.1056 0.1729
-6 9 10 -3.7259 0.0202
-6 9 11 -3.0732 0.0131
-6 9 12 -0.6891 -0.0689
-6 9 13 3.3215 0.1076
-6 9 14 1.2558 -0.0420
-6 9 15 3.5455 -0.0241
-6 9 16 1.2956 -0.0087
-6 9 17 1.9719 -0.0798
-6 9 18 0.5781 -0.0358
-6 9 19 3.9087 0.0916
-6 9 20 1.1975 0.0443
-6 9 21 1.9049 0.0061
-6 9 22 -5.3603 0.0435
-6 9 23 -8.3077 0.0264
-6 10 1 2.9794 -0.1699
-6 10 2 3.9099 0.8446
-6 10 3 -1.2753 0.3662
-6 10 4 -4.3934 0.1368
-6 10 5 -4.4778 -0.2484
-6 10 6 -6.9595 0.0076
-6 10 7 -2.2488 0.0622
-6 10 8 0.4855 -0.2388
-6 10 9 -1.9951 -0.0631
-6 10 10 -0.3163 0.0859
-6 10 11 0.7208 -0.0793
-6 10 12 -0.2409 0.0509
-6 10 13 -0.0850 0.1142
-6 10 14 3.6555 0.1111
-6 10 15 2.2545 0.0019
-6 10 16 2.4925 -0.0540
-6 10 17 1.7091 -0.0620
-6 10 18 1.4924 -0.0522
-6 10 19 -1.8604 -0.0193
-6 10 20 6.2920 0.0909
-6 10 21 2.4947 -0.0128
-6 10 22 -2.9513 -0.0603
-6 11 1 6.5728 -0.4784
-6 11 2 1.2713 -0.2564
-6 11 3 -1.6121 0.6766
-6 11 4 -9.3510 0.1437
-6 11 5 -7.7161 0.0218
-6 11 6 -2.4807 0.0659
-6 11 7 0.0906 0.0204
-6 11 8 -2.9801 0.0445
-6 11 9 -0.5248 -0.1820
-6 11 10 1.9667 -0.0895
-6 11 11 3.7517 0.0349
-6 11 12 1.1828 -0.0087
-6 11 13 -0.9758 0.0471
-6 11 14 4.2437 0.1185
-6 11 15 5.3863 0.0137
-6 11 16 0.9845 -0.0375
-6 11 17 -1.3550 0.0252
-6 11 18 -0.8929 -0.0354
-6 11 19 4.3966 -0.0507
-6 11 20 1.6708 -0.1027
-6 11 21 6.2253 -0.0221
-6 11 22 -0.1710 -0.0873
-6 12 1 -9.4183 -0.4888
-6 12 2 -1.2108 -0.2614
-6 12 3 -3.2341 -0.3410
-6 12 4 1.7409 0.2556
-6 12 5 -5.5141 0.1424
-6 12 6 -5.4027 -0.0196
-6 12 7 -5.0001 0.2385
-6 12 8 -0.7429 0.0231
-6 12 9 -1.0411 0.0149
-6 12 10 2.6477 -0.1213
-6 12 11 4.7464 -0.0331
-6 12 12 0.6861 -0.0181
-6 12 13 1.0373 -0.0429
-6 12 14 2.3185 -0.0334
-6 12 15 9.0923 0.0726
-6 12 16 3.2286 0.0046
-6 12 17 -3.0860 -0.0714
-6 12 18 -0.1563 0.0877
-6 12 19 0.7863 -0.0617
-6 12 20 5.3437 -0.1442
-6 12 21 0.7483 -0.1863
-6 12 22 1.4027 -0.0909
-6 13 1 -7.7116 0.5401
-6 13 2 -13.7550 -0.3814
-6 13 3 -0.0977 -0.2831
-6 13 4 2.6258 -0.2191
-6 13 5 3.5819 0.0046
-6 13 6 -5.4779 0.1774
-6 13 7 -2.9164 -0.1659
-6 13 8 -3.2850 0.1874
-6 13 9 -0.3425 0.1052
-6 13 10 0.5260 0.0290
-6 13 11 0.1179 -0.1507
-6 13 12 2.5508 -0.0136
-6 13 13 -1.9345 -0.0668
-6 13 14 3.9562 -0.0670
-6 13 15 6.8864 0.0267
-6 13 16 11.2084 0.0047
-6 13 17 1.7403 -0.0649
-6 13 18 -6.4021 -0.0880
-6 14 1 2.5390 -0.3034
-6 14 2 -2.6123 0.4007
-6 14 3 -14.4020 -0.0748
-6 14 4 -1.5058 -0.2101
-6 14 5 2.3208 -0.0273
-6 14 6 4.2828 -0.2271
-6 14 7 2.2296 0.0172
-6 14 8 4.6279 -0.2070
-6 14 9 -2.3643 0.1797
-6 14 10 -6.9965 0.1003
-6 14 11 -4.2778 -0.0703
-6 14 12 -3.7850 -0.1548
-6 14 13 4.7113 0.1089
-6 14 14 2.6595 -0.0184
-6 15 1 9.4881 0.1632
-6 15 2 6.5988 -0.3152
-6 15 3 -10.9664 0.2606
-6 15 4 -16.8817 0.2331
-6 15 5 -0.1334 -0.2063
-6 15 6 6.5728 -0.0046
-6 15 7 10.8437 -0.2446
-6 15 8 9.1804 -0.0382
-6 15 9 2.4486 -0.1667
-6 15 10 -8.5920 0.0561
-5 -18 1 -1.0189 -0.2377
-5 -17 1 -1.1119 -0.1959
-5 -17 2 -1.6116 -0.2126
-5 -17 3 -3.7487 0.5022
-5 -17 4 1.5819 0.3016
-5 -17 5 0.1674 0.0055
-5 -16 1 0.4870 -0.2912
-5 -16 2 -5.2553 -0.1198
-5 -16 3 -3.4631 -0.3058
-5 -16 4 -1.2098 0.3463
-5 -16 5 2.8812 0.2775
-5 -16 6 1.2667 -0.1353
-5 -16 7 -4.5585 -0.0761
-5 -16 8 0.5247 0.0846
-5 -15 1 -1.0565 0.6452
-5 -15 2 -0.4807 -0.2825
-5 -15 3 -5.0322 -0.2422
-5 -15 4 -0.9122 -0.2016
-5 -15 5 0.8568 0.2369
-5 -15 6 -0.2105 0.0904
-5 -15 7 0.2109 -0.3032
-5 -15 8 -4.9257 0.0242
-5 -15 9 0.0773 0.2207
-5 -15 10 0.5629 0.1934
-5 -14 1 1.2403 0.3638
-5 -14 2 0.3520 0.5182
-5 -14 3 1.7443 -0.2351
-5 -14 4 -4.7115 -0.2768
-5 -14 5 -1.2044 -0.0468
-5 -14 6 1.3595 0.0410
-5 -14 7 -3.3109 -0.0900
-5 -14 8 -1.6021 -0.1631
-5 -14 9 -4.8806 0.2311
-5 -14 10 0.5568 0.1396
-5 -14 11 3.1943 0.0651
-5 -14 12 0.4914 0.0039
-5 -13 1 0.0603 -0.1595
-5 -13 2 4.2821 0.3702
-5 -13 3 1.7670 0.2228
-5 -13 4 1.5388 -0.1571
-5 -13 5 -2.7088 -0.1072
-5 -13 6 -1.1087 0.0827
-5 -13 7 0.4397 -0.0723
-5 -13 8 -5.9462 -0.1155
-5 -13 9 -2.8557 -0.0428
-5 -13 10 -1.6849 0.1717
-5 -13 11 0.2500 -0.0543
-5 -13 12 2.6258 0.0988
-5 -13 13 -1.4757 0.1252
-5 -13 14 2.9173 0.1078
-5 -12 1 -1.8278 0.1175
-5 -12 2 -0.4696 -0.3463
-5 -12 3 7.0880 0.3256
-5 -12 4 5.3261 0.0842
-5 -12 5 2.3767 -0.0548
-5 -12 6 -3.7139 0.0979
-5 -12 7 -3.4414 0.0274
-5 -12 8 0.9346 -0.1632
-5 -12 9 -3.3140 -0.0213
-5 -12 10 -2.9519 0.0092
-5 -12 11 -0.1560 0.0420
-5 -12 12 -1.1787 -0.1391
-5 -12 13 3.8495 0.1140
-5 -12 14 0.4237 0.0943
-5 -12 15 1.6501 0.0395
-5 -12 16 1.7125 -0.0086
-5 -11 1 -0.4140 0.0112
-5 -11 2 1.3179 0.3803
-5 -11 3 2.9154 -0.4060
-5 -11 4 8.4051 0.1920
-5 -11 5 3.2205 0.0689
-5 -11 6 -1.9835 -0.1260
-5 -11 7 -4.0104 0.1785
-5 -11 8 1.5772 0.0314
-5 -11 9 3.1768 -0.1040
-5 -11 10 -3.8292 0.0684
-5 -11 11 -4.3080 -0.0904
-5 -11 12 4.0919 -0.1306
-5 -11 13 1.7840 -0.1317
-5 -11 14 2.0235 0.0671
-5 -11 15 -1.2876 0.0412
-5 -11 16 -0.0785 0.0034
-5 -11 17 6.4912 0.0586
-5 -10 1 -0.6360 0.4398
-5 -10 2 2.7208 -0.0424
-5 -10 3 3.2391 0.3912
-5 -10 4 -1.8589 -0.3158
-5 -10 5 2.9929 -0.0077
-5 -10 6 0.5835 0.1620
-5 -10 7 1.0594 -0.1838
-5 -10 8 0.5526 0.1759
-5 -10 9 2.3986 0.0617
-5 -10 10 -0.7451 -0.1088
-5 -10 11 -2.6419 0.0423
-5 -10 12 1.1819 -0.1061
-5 -10 13 6.7011 -0.1490
-5 -10 14 -1.0264 -0.0460
-5 -10 15 -3.4199 -0.0043
-5 -10 16 1.8401 0.0413
-5 -10 17 1.8263 0.0229
-5 -10 18 4.2839 0.0813
-5 -10 19 0.4525 -0.0907
-5 -9 1 -1.8981 -0.8491
-5 -9 2 0.2741 0.5394
-5 -9 3 -0.3033 -0.0007
-5 -9 4 -0.8549 0.2162
-5 -9 5 -5.4724 -0.0356
-5 -9 6 3.9951 -0.1120
-5 -9 7 1.0503 0.1937
-5 -9 8 0.7476 -0.2682
-5 -9 9 0.9554 0.0703
-5 -9 10 2.2543 0.1135
-5 -9 11 -0.0807 -0.0654
-5 -9 12 -0.8437 0.0471
-5 -9 13 1.2602 -0.0001
-5 -9 14 3.6818 -0.1108
-5 -9 15 -0.0675 0.0335
-5 -9 16 -3.2938 -0.0275
-5 -9 17 1.6781 0.0376
-5 -9 18 -4.0580 0.0040
-5 -9 19 -2.2391 0.0281
-5 -9 20 1.3176 -0.0743
-5 -8 1 -13.1008 -0.6138
-5 -8 2 -0.6667 -0.8124
-5 -8 3 3.2739 0.4664
-5 -8 4 -6.8587 0.1012
-5 -8 5 -3.5662 -0.0392
-5 -8 6 -4.3789 0.2078
-5 -8 7 4.3585 -0.1583
-5 -8 8 -0.1356 0.1290
-5 -8 9 0.2241 -0.2369
-5 -8 10 4.0108 0.0295
-5 -8 11 -0.2129 0.1342
-5 -8 12 -4.1598 -0.0296
-5 -8 13 -1.3224 0.0675
-5 -8 14 4.3138 0.1099
-5 -8 15 3.8882 -0.0927
-5 -8 16 -0.8043 0.0509
-5 -8 17 -7.6282 -0.0431
-5 -8 18 -1.3037 -0.0469
-5 -8 19 -2.8047 -0.0126
-5 -8 20 -0.2795 0.0164
-5 -8 21 3.9913 0.0386
-5 -8 22 2.6671 0.0853
-5 -7 1 5.3601 -0.1650
-5 -7 2 -1.3288 -0.6694
-5 -7 3 -2.9710 -0.5924
-5 -7 4 -4.4942 0.2673
-5 -7 5 -13.2428 0.1026
-5 -7 6 0.7081 -0.2402
-5 -7 7 3.4142 0.3776
-5 -7 8 4.1879 -0.1061
-5 -7 9 -3.0625 0.0553
-5 -7 10 -4.8568 -0.1276
-5 -7 11 1.4082 -0.0039
-5 -7 12 -2.1115 0.0707
-5 -7 13 -2.1748 -0.0230
-5 -7 14 2.5758 0.0544
-5 -7 15 3.1085 0.0977
-5 -7 16 -2.5646 -0.0957
-5 -7 17 -1.3951 0.0536
-5 -7 18 -3.0259 -0.0277
-5 -7 19 1.2827 -0.1409
-5 -7 20 -0.7536 0.0359
-5 -7 21 -1.4298 0.0668
-5 -7 22 2.2551 0.0643
-5 -7 23 1.7271 0.0040
-5 -7 24 1.6067 -0.1202
-5 -6 1 -2.5531 0.9748
-5 -6 2 1.0445 -0.2124
-5 -6 3 -3.9185 -0.6524
-5 -6 4 -9.6737 -0.3016
-5 -6 5 -0.4057 0.0902
-5 -6 6 -2.7699 0.0289
-5 -6 7 4.1919 -0.2897
-5 -6 8 0.6670 0.4542
-5 -6 9 -4.6387 -0.0594
-5 -6 10 -5.1704 -0.0099
-5 -6 11 -4.3252 0.0048
-5 -6 12 2.4593 -0.0757
-5 -6 13 -0.5205 -0.0606
-5 -6 14 -2.5663 -0.0430
-5 -6 15 0.9326 0.0392
-5 -6 16 0.4632 0.0655
-5 -6 17 -2.0208 -0.0454
-5 -6 18 3.1479 0.0288
-5 -6 19 -0.0283 0.0113
-5 -6 20 -2.2378 -0.1216
-5 -6 21 -0.3103 0.1093
-5 -6 22 0.2167 0.0342
-5 -6 23 2.0287 -0.0666
-5 -6 24 2.3913 -0.0593
-5 -6 25 3.3784 -0.0446
-5 -5 1 4.4877 0.4867
-5 -5 2 -14.1534 0.6609
-5 -5 3 -3.4033 -0.2220
-5 -5 4 10.5383 -0.4125
-5 -5 5 0.4927 -0.0890
-5 -5 6 0.0122 -0.0347
-5 -5 7 -6.5940 -0.0159
-5 -5 8 -2.4378 -0.2441
-5 -5 9 0.7332 0.3842
-5 -5 10 -2.4667 -0.0710
-5 -5 11 -1.3979 -0.0524
-5 -5 12 -3.7541 0.1270
-5 -5 13 -1.5917 -0.1316
-5 -5 14 -0.0709 -0.1179
-5 -5 15 -0.1152 0.0037
-5 -5 16 0.7857 0.0291
-5 -5 17 -1.2985 0.0068
-5 -5 18 -1.6764 0.0186
-5 -5 19 2.1540 0.0085
-5 -5 20 0.2737 0.0866
-5 -5 21 -1.8517 -0.0522
-5 -5 22 1.9796 0.0651
-5 -5 23 0.5945 -0.0250
-5 -5 24 0.5938 -0.0376
-5 -5 25 3.4198 0.0592
-5 -4 1 -18.1618 -0.0187
-5 -4 2 2.2668 0.4243
-5 -4 3 5.8529 0.4733
-5 -4 4 2.4316 -0.2340
-5 -4 5 7.1800 -0.0612
-5 -4 6 -5.0966 0.0200
-5 -4 7 -2.6939 -0.1341
-5 -4 8 -0.9492 -0.0372
-5 -4 9 0.8972 -0.2421
-5 -4 10 0.6894 0.2066
-5 -4 11 -3.8032 -0.0141
-5 -4 12 0.2707 -0.0039
-5 -4 13 0.9225 0.2162
-5 -4 14 -3.0651 -0.1251
-5 -4 15 -0.0639 -0.1080
-5 -4 16 0.2587 0.0500
-5 -4 17 -2.3644 0.0008
-5 -4 18 -3.0566 -0.0604
-5 -4 19 0.6921 0.0649
-5 -4 20 1.0249 -0.0221
-5 -4 21 1.4723 0.1161
-5 -4 22 -0.0948 0.0156
-5 -4 23 -0.5223 0.0277
-5 -4 24 0.0946 0.0034
-5 -4 25 2.8215 0.0720
-5 -4 26 5.4372 0.0736
-5 -3 1 22.6546 0.0819
-5 -3 2 -5.5296 0.2543
-5 -3 3 -0.0162 0.1694
-5 -3 4 7.2454 0.4739
-5 -3 5 -6.2867 -0.2249
-5 -3 6 6.2416 0.1505
-5 -3 7 5.7673 0.0042
-5 -3 8 -0.8605 -0.2535
-5 -3 9 -5.0989 -0.0095
-5 -3 10 -2.3675 -0.1660
-5 -3 11 3.3346 0.0811
-5 -3 12 3.2198 0.0706
-5 -3 13 3.1949 -0.0027
-5 -3 14 -1.2237 0.1844
-5 -3 15 -7.9631 -0.0250
-5 -3 16 0.6240 -0.0483
-5 -3 17 3.9359 0.0266
-5 -3 18 -2.2665 -0.0526
-5 -3 19 -5.2734 -0.1249
-5 -3 20 1.6327 0.0894
-5 -3 21 0.8062 -0.0229
-5 -3 22 2.2625 0.0792
-5 -3 23 0.6000 0.0210
-5 -3 24 -2.9489 0.0117
-5 -3 25 3.7240 0.0306
-5 -3 26 6.6933 0.1043
-5 -3 27 3.6879 0.0075
-5 -2 1 -9.7290 -0.4391
-5 -2 2 7.2150 0.1015
-5 -2 3 -5.7089 0.5102
-5 -2 4 -3.7412 -0.2111
-5 -2 5 19.3211 0.5089
-5 -2 6 1.1871 -0.1929
-5 -2 7 -0.5616 0.1394
-5 -2 8 -1.8741 0.0228
-5 -2 9 -6.3199 -0.2360
-5 -2 10 0.0673 0.0464
-5 -2 11 6.7274 -0.0894
-5 -2 12 3.4174 -0.0588
-5 -2 13 -1.9904 0.0672
-5 -2 14 -2.5162 0.0024
-5 -2 15 0.1327 0.1244
-5 -2 16 -0.4122 0.0846
-5 -2 17 2.8317 -0.0406
-5 -2 18 1.2984 -0.0486
-5 -2 19 -3.1517 -0.0230
-5 -2 20 -5.9283 -0.1144
-5 -2 21 2.7861 0.0470
-5 -2 22 2.5999 -0.0649
-5 -2 23 1.4035 -0.0130
-5 -2 24 2.3403 0.0231
-5 -2 25 -1.0113 0.0526
-5 -2 26 6.3204 0.0048
-5 -2 27 6.5913 0.0290
-5 -2 28 2.6692 0.0024
-5 -1 1 14.3578 0.2222
-5 -1 2 -19.1358 -0.1066
-5 -1 3 5.2695 -0.2089
-5 -1 4 21.1734 0.5844
-5 -1 5 -1.5614 -0.4215
-5 -1 6 3.4370 0.5156
-5 -1 7 -6.2241 -0.0785
-5 -1 8 -6.5380 0.0418
-5 -1 9 1.9065 0.0750
-5 -1 10 0.7584 -0.1534
-5 -1 11 0.2169 0.0152
-5 -1 12 -0.4776 -0.0397
-5 -1 13 -3.0617 -0.1084
-5 -1 14 -0.0514 0.0058
-5 -1 15 1.7167 0.0083
-5 -1 16 1.7233 0.0325
-5 -1 17 0.9675 0.1272
-5 -1 18 1.3235 -0.0043
-5 -1 19 -0.1099 -0.0594
-5 -1 20 -0.4055 0.0200
-5 -1 21 -7.1966 -0.1035
-5 -1 22 1.3666 -0.0251
-5 -1 23 7.3851 -0.0601
-5 -1 24 1.6543 -0.0435
-5 -1 25 2.6529 0.0045
-5 -1 26 1.3026 0.0296
-5 -1 27 7.4723 -0.0370
-5 -1 28 7.5487 0.0424
-5 0 1 -11.9589 -0.9682
-5 0 2 20.6180 -0.1642
-5 0 3 5.6599 0.2354
-5 0 4 -2.7276 -0.4684
-5 0 5 10.0544 0.5434
-5 0 6 -12.4876 -0.3773
-5 0 7 -3.3199 0.3846
-5 0 8 5.8576 0.0118
-5 0 9 -7.1539 -0.0186
-5 0 10 -7.6513 0.1214
-5 0 11 -0.4795 -0.0376
-5 0 12 1.2143 -0.0329
-5 0 13 0.0480 -0.0264
-5 0 14 -1.7565 -0.0911
-5 0 15 -2.5966 -0.0871
-5 0 16 -0.3807 0.0353
-5 0 17 2.6485 -0.0280
-5 0 18 5.5077 0.0892
-5 0 19 1.9599 0.0303
-5 0 20 -7.2841 -0.0138
-5 0 21 -1.7831 0.0520
-5 0 22 -0.8283 -0.0436
-5 0 23 5.7510 -0.0657
-5 0 24 8.0937 -0.0750
-5 0 25 -3.3392 -0.0408
-5 0 26 3.0216 0.0023
-5 0 27 8.6000 0.0212
-5 1 1 24.0211 0.3221
-5 1 2 -0.1299 -0.6055
-5 1 3 2.1473 -0.3067
-5 1 4 -2.7761 0.4255
-5 1 5 -11.3113 -0.5872
-5 1 6 10.2520 0.3456
-5 1 7 -0.1724 -0.2000
-5 1 8 -11.6046 0.2143
-5 1 9 -5.1411 0.0568
-5 1 10 -10.0646 0.0313
-5 1 11 -2.8044 0.1327
-5 1 12 10.7111 0.0129
-5 1 13 1.5587 -0.0652
-5 1 14 -8.5377 -0.0310
-5 1 15 -4.2377 -0.0130
-5 1 16 -0.7809 -0.1454
-5 1 17 4.1158 0.0240
-5 1 18 4.2850 -0.0917
-5 1 19 -0.4754 0.0468
-5 1 20 -2.5598 0.0947
-5 1 21 -7.6109 0.0479
-5 1 22 6.5783 0.0079
-5 1 23 10.7976 -0.0087
-5 1 24 1.4981 -0.0433
-5 1 25 -1.0375 -0.0412
-5 1 26 -2.4416 0.0335
-5 2 1 12.4159 -0.1697
-5 2 2 11.3265 0.0319
-5 2 3 -9.7675 -0.2620
-5 2 4 -7.2454 -0.3107
-5 2 5 6.8265 0.3160
-5 2 6 -4.7627 -0.4969
-5 2 7 -4.2120 0.2060
-5 2 8 -3.6241 -0.0313
-5 2 9 -13.8390 0.0474
-5 2 10 -4.3837 0.0371
-5 2 11 3.0506 0.1211
-5 2 12 2.3357 0.0824
-5 2 13 5.6694 -0.0143
-5 2 14 -1.1803 -0.0150
-5 2 15 -7.9783 -0.0287
-5 2 16 0.9093 0.0167
-5 2 17 0.1292 -0.1702
-5 2 18 -0.4809 0.0345
-5 2 19 2.8232 -0.0871
-5 2 20 -2.7711 0.0201
-5 2 21 1.3426 0.0535
-5 2 22 -0.4116 0.0405
-5 2 23 10.3816 0.0210
-5 2 24 12.9760 0.0888
-5 2 25 -6.4327 0.0159
-5 2 26 -6.7704 -0.0693
-5 3 1 -5.1375 0.6175
-5 3 2 11.4704 -0.0745
-5 3 3 13.8762 -0.1293
-5 3 4 -3.6054 -0.1023
-5 3 5 -12.6929 -0.1483
-5 3 6 -4.2172 0.1270
-5 3 7 -4.5308 -0.3352
-5 3 8 -4.8812 0.1219
-5 3 9 3.1484 0.0388
-5 3 10 -6.5867 -0.0573
-5 3 11 -7.6989 -0.0126
-5 3 12 8.2618 0.1401
-5 3 13 6.7396 0.0030
-5 3 14 1.7597 -0.0289
-5 3 15 0.3631 0.0732
-5 3 16 -6.6601 -0.0516
-5 3 17 -0.4745 0.0190
-5 3 18 1.7426 -0.0936
-5 3 19 -1.0141 0.0579
-5 3 20 4.5201 -0.1212
-5 3 21 -2.9213 -0.0114
-5 3 22 2.5244 0.0387
-5 3 23 6.0838 0.0849
-5 3 24 7.8810 0.0556
-5 3 25 6.7275 0.0458
-5 3 26 -10.1036 -0.0255
-5 4 1 -8.6980 0.3161
-5 4 2 6.5883 0.5439
-5 4 3 13.5876 -0.1253
-5 4 4 -0.5682 -0.0635
-5 4 5 -13.5401 -0.0086
-5 4 6 -7.8490 -0.0174
-5 4 7 2.1799 -0.0847
-5 4 8 2.7496 -0.1703
-5 4 9 -5.8068 0.1290
-5 4 10 -1.4981 0.0028
-5 4 11 0.6162 -0.1566
-5 4 12 -1.5171 -0.0511
-5 4 13 9.9293 0.1452
-5 4 14 5.5449 -0.0352
-5 4 15 -5.5606 -0.0190
-5 4 16 0.9425 0.1090
-5 4 17 -0.5804 -0.0682
-5 4 18 -0.7076 0.0384
-5 4 19 3.8162 -0.0111
-5 4 20 -3.4098 0.0521
-5 4 21 2.1564 -0.1069
-5 4 22 -1.0803 0.0403
-5 4 23 1.6514 0.0140
-5 4 24 7.0241 0.0093
-5 4 25 0.4532 0.0054
-5 4 26 0.0570 0.0036
-5 5 1 -1.7409 -0.5742
-5 5 2 -7.7325 0.3125
-5 5 3 -1.5610 0.5707
-5 5 4 3.5065 -0.2407
-5 5 5 -0.0644 0.0352
-5 5 8 -1.2729 -0.1964
-5 5 9 -0.7938 -0.0622
-5 5 10 -0.8844 0.0747
-5 5 11 0.5676 -0.0854
-5 5 12 5.2130 -0.1167
-5 5 13 0.4631 -0.0002
-5 5 14 3.5098 0.1213
-5 5 15 3.6984 -0.0893
-5 5 16 -5.6372 -0.0058
-5 5 17 -0.2392 0.0973
-5 5 18 1.7680 -0.0657
-5 5 19 -1.8100 0.0598
-5 5 20 4.6842 0.0344
-5 5 21 -4.2419 0.0485
-5 5 22 -3.8856 -0.0690
-5 5 23 -0.9377 0.0494
-5 5 24 0.7776 -0.0664
-5 5 25 6.5134 -0.0602
-5 5 26 -4.7862 0.0476
-5 5 27 -6.3946 0.0764
-5 6 1 -1.1303 -0.3440
-5 6 2 -14.3389 -0.3684
-5 6 3 -5.9113 0.2117
-5 6 4 10.5454 0.4795
-5 6 5 6.0982 -0.3241
-5 6 6 -4.5799 0.1274
-5 6 7 -2.4957 0.1199
-5 6 8 5.5497 0.0469
-5 6 9 0.7850 -0.2579
-5 6 10 0.4130 0.0021
-5 6 11 0.8924 0.0469
-5 6 12 -1.4240 -0.1054
-5 6 13 4.7823 0.0154
-5 6 14 3.4895 0.0176
-5 6 15 -1.7536 0.0516
-5 6 16 -1.4324 -0.1208
-5 6 17 -4.9162 0.0091
-5 6 18 -1.7644 0.0521
-5 6 19 5.1035 -0.0585
-5 6 20 -0.9268 0.0530
-5 6 21 -0.0328 0.0180
-5 6 22 -6.2958 0.0509
-5 6 23 -5.9464 -0.0219
-5 6 24 4.3482 0.0321
-5 6 25 3.0248 -0.1122
-5 6 26 -0.3096 -0.0110
-5 7 1 2.3170 0.2914
-5 7 2 -0.2290 -0.3661
-5 7 3 -8.2754 -0.2292
-5 7 4 0.3148 0.0584
-5 7 5 10.2447 0.2858
-5 7 6 0.3128 -0.2873
-5 7 7 -2.4827 0.1666
-5 7 8 5.1960 0.1091
-5 7 9 5.7273 0.0452
-5 7 10 -4.5037 -0.2042
-5 7 11 1.1013 0.0432
-5 7 12 5.3204 0.0524
-5 7 13 -2.4105 -0.0902
-5 7 14 -1.1949 0.1211
-5 7 15 0.7764 -0.0391
-5 7 16 -3.3395 -0.0449
-5 7 17 -0.6607 -0.0982
-5 7 18 -0.4405 0.0456
-5 7 19 -3.6947 0.0007
-5 7 20 2.1169 -0.0739
-5 7 21 -1.0168 0.0289
-5 7 22 -0.1546 0.0097
-5 7 23 0.1318 0.0668
-5 7 24 -2.2757 -0.0271
-5 7 25 3.5790 0.0107
-5 7 26 0.1238 0.0234
-5 8 1 6.8631 0.6908
-5 8 2 3.4812 0.4065
-5 8 3 -9.7158 -0.3673
-5 8 4 -9.0839 -0.2420
-5 8 5 8.1844 0.0185
-5 8 6 15.2921 0.1480
-5 8 7 1.0095 -0.1946
-5 8 8 -1.8984 0.1532
-5 8 9 0.9542 0.0390
-5 8 10 2.7953 0.0433
-5 8 11 -2.6346 -0.0617
-5 8 12 3.2792 0.0881
-5 8 13 2.0535 0.0746
-5 8 14 -7.5994 -0.1363
-5 8 15 -2.1568 0.0636
-5 8 16 4.3079 -0.0947
-5 8 17 -1.1572 -0.0216
-5 8 18 -3.5734 0.0084
-5 8 19 -0.7652 0.0501
-5 8 20 -2.9325 -0.0816
-5 8 21 3.4196 -0.0753
-5 8 22 3.5607 0.0394
-5 8 23 2.8734 -0.0169
-5 8 24 2.5890 0.0325
-5 8 25 -2.2556 0.0151
-5 9 1 1.7932 0.3395
-5 9 2 -1.5355 0.4907
-5 9 3 -5.7380 0.2776
-5 9 4 -3.7294 -0.2102
-5 9 5 9.5349 -0.2092
-5 9 6 12.9731 0.1098
-5 9 7 4.5526 0.0612
-5 9 8 -4.2929 -0.1935
-5 9 9 3.0963 0.0913
-5 9 10 0.1194 0.0090
-5 9 11 -2.5916 0.0663
-5 9 12 -4.1391 0.0947
-5 9 13 2.0997 0.0471
-5 9 14 3.2911 -0.0304
-5 9 15 -4.3953 -0.1733
-5 9 16 -3.3413 0.0636
-5 9 17 1.0269 -0.0183
-5 9 18 -1.7957 0.0227
-5 9 19 -3.5574 0.0051
-5 9 20 2.7316 0.0107
-5 9 21 0.4274 -0.0779
-5 9 22 3.4998 -0.0154
-5 9 23 4.7823 0.0451
-5 9 24 3.7383 -0.0441
-5 10 1 0.8535 -1.1195
-5 10 2 -2.8579 0.1644
-5 10 3 1.2502 0.4398
-5 10 4 6.3276 0.0916
-5 10 5 7.4554 0.0291
-5 10 6 7.7851 -0.1243
-5 10 7 1.7292 0.1048
-5 10 8 1.1930 -0.0450
-5 10 9 -0.1621 -0.1496
-5 10 10 2.1471 0.1289
-5 10 11 -6.6811 -0.0035
-5 10 12 -4.9901 -0.0449
-5 10 13 2.1992 0.0992
-5 10 14 2.9708 0.0387
-5 10 15 -0.3094 -0.0393
-5 10 16 -5.2729 -0.0664
-5 10 17 -4.1745 0.0620
-5 10 18 0.5392 -0.0485
-5 10 19 -0.5563 -0.0109
-5 10 20 -5.8286 0.0066
-5 10 21 3.1171 0.0815
-5 10 22 3.7001 0.0322
-5 10 23 3.8836 0.0376
-5 10 24 2.4183 -0.0148
-5 11 1 5.8268 -0.3405
-5 11 2 5.1623 -0.9626
-5 11 3 1.6792 -0.0479
-5 11 4 4.0784 0.4737
-5 11 5 8.4206 -0.1424
-5 11 6 7.2806 0.1026
-5 11 7 2.5365 -0.0219
-5 11 8 -2.1186 0.0642
-5 11 9 0.8011 -0.0508
-5 11 10 -1.6317 -0.0254
-5 11 11 -2.2208 0.1059
-5 11 12 -2.9555 -0.1163
-5 11 13 -1.3886 -0.1082
-5 11 14 0.6696 0.1459
-5 11 15 -0.3964 0.1147
-5 11 16 -2.1176 -0.0605
-5 11 17 -3.1133 -0.0323
-5 11 18 -3.8523 0.0251
-5 11 19 -2.8542 -0.0842
-5 11 20 -0.8956 0.0168
-5 11 21 -5.1167 0.0930
-5 11 22 4.2331 0.1913
-5 11 23 3.7617 0.0717
-5 11 24 -0.0186 -0.0483
-5 11 25 -1.3308 -0.1737
-5 12 1 2.4259 0.1949
-5 12 2 3.1515 -0.4068
-5 12 3 1.0495 -0.5454
-5 12 4 -2.3660 -0.2065
-5 12 5 6.5857 0.3335
-5 12 6 10.6079 -0.3244
-5 12 7 3.7260 0.1255
-5 12 8 -3.6228 0.1319
-5 12 9 -2.6980 -0.0028
-5 12 10 1.4698 -0.0813
-5 12 11 -0.7545 0.0599
-5 12 12 -2.7306 0.1390
-5 12 13 0.8946 -0.1140
-5 12 14 -0.5102 -0.0750
-5 12 15 -3.4602 0.0692
-5 12 16 -0.0613 0.0825
-5 12 17 -2.1560 -0.0651
-5 12 18 -4.0734 0.0063
-5 12 19 -0.4892 0.0272
-5 12 20 -0.7819 -0.0906
-5 12 21 -0.7354 0.0651
-5 12 22 -6.4033 0.1607
-5 12 23 0.4401 0.1764
-5 12 24 3.0562 -0.0561
-5 13 1 10.5231 0.9105
-5 13 2 0.2752 0.3341
-5 13 3 -5.5960 -0.4616
-5 13 4 -3.2712 -0.1598
-5 13 5 -1.6315 -0.2173
-5 13 6 9.2303 0.1631
-5 13 7 6.6601 -0.3106
-5 13 8 -2.5935 0.0702
-5 13 9 -5.0294 0.1187
-5 13 10 2.8017 -0.0806
-5 13 11 3.3450 -0.0189
-5 13 12 0.7685 0.1627
-5 13 13 -1.8508 0.2180
-5 13 14 -0.9891 -0.1177
-5 13 15 -1.5892 -0.1062
-5 13 16 -3.8887 -0.0385
-5 13 17 4.2560 0.0525
-5 13 18 1.7905 -0.0664
-5 13 19 -2.7426 -0.0256
-5 13 20 2.1012 0.0213
-5 13 21 -1.6358 -0.0649
-5 14 1 0.2584 0.1369
-5 14 2 3.4403 0.4436
-5 14 3 1.9253 0.3811
-5 14 4 -9.4680 -0.3214
-5 14 5 -5.9241 0.1428
-5 14 6 -1.0869 -0.0610
-5 14 7 6.1853 -0.0402
-5 14 8 0.2004 -0.3478
-5 14 9 -3.8346 -0.0311
-5 14 10 0.1292 0.1527
-5 14 11 9.3768 -0.0431
-5 14 12 2.6370 0.0042
-5 14 13 -3.6388 0.1324
-5 14 14 -3.1560 0.2901
-5 14 15 -1.7166 -0.0669
-5 14 16 4.2412 -0.1536
-5 14 17 2.9783 -0.1490
-5 14 18 5.0728 -0.0468
-5 14 19 0.6311 -0.1261
-5 14 20 -3.1377 -0.0454
-5 15 1 -2.6944 -0.5069
-5 15 2 -3.3642 0.0205
-5 15 3 1.2463 0.2170
-5 15 4 4.2620 0.5159
-5 15 5 -9.3456 -0.1110
-5 15 6 -8.5726 0.0434
-5 15 7 -4.3365 -0.0555
-5 15 8 0.4121 -0.1129
-5 15 9 -1.2207 -0.2181
-5 15 10 1.3779 0.0340
-5 15 11 2.8537 0.1634
-5 15 12 5.8950 -0.1521
-5 15 13 -1.5867 -0.0534
-5 16 1 -3.9372 0.0281
-5 16 2 -9.4401 -0.6574
-5 16 3 -2.0697 0.1098
-5 16 4 2.5480 0.3866
-5 16 5 2.9617 0.2763
-5 16 6 -9.5978 -0.3516
-5 16 7 -11.7056 -0.1718
-4 -17 1 -4.4015 -0.4079
-4 -17 2 -3.9172 -0.1874
-4 -17 3 11.9292 -0.0511
-4 -17 4 9.8473 0.0945
-4 -17 5 -0.5302 -0.4650
-4 -16 1 0.3183 -0.1554
-4 -16 2 -0.1887 -0.5280
-4 -16 3 -1.0756 0.0962
-4 -16 4 8.4900 -0.0171
-4 -16 5 5.0613 -0.0542
-4 -16 6 -3.4101 -0.3979
-4 -16 7 -6.9230 0.0732
-4 -16 8 -0.6858 0.3233
-4 -15 1 2.8619 0.4449
-4 -15 2 0.9639 -0.0302
-4 -15 3 -1.1871 -0.4439
-4 -15 4 -3.1641 0.2793
-4 -15 5 4.5471 -0.0686
-4 -15 6 1.7954 -0.1192
-4 -15 7 -3.3293 -0.1484
-4 -15 8 -2.2020 0.2080
-4 -15 9 2.0570 0.1555
-4 -15 10 3.3626 -0.0327
-4 -14 1 -2.6837 0.3249
-4 -14 2 0.7065 0.2664
-4 -14 3 0.6312 0.0777
-4 -14 4 -1.4283 -0.2431
-4 -14 5 -6.4508 0.2774
-4 -14 6 1.4396 -0.1320
-4 -14 7 2.0552 -0.1316
-4 -14 8 -0.5384 0.0282
-4 -14 9 2.2982 0.2065
-4 -14 10 0.0880 0.0037
-4 -14 11 1.3841 -0.0606
-4 -14 12 -1.6380 -0.0233
-4 -13 1 -3.3930 -0.1534
-4 -13 2 -2.0374 0.3721
-4 -13 3 1.5759 0.1846
-4 -13 4 -1.8015 0.0174
-4 -13 5 -5.5328 -0.1139
-4 -13 6 -5.9125 0.1787
-4 -13 7 4.5575 -0.0726
-4 -13 8 2.9733 -0.0272
-4 -13 9 -3.9568 0.0755
-4 -13 10 2.3000 0.0589
-4 -13 11 1.7428 -0.1333
-4 -13 12 4.5162 -0.0559
-4 -13 13 -0.8878 0.0490
-4 -13 14 -1.6358 -0.1148
-4 -12 1 -1.2850 -0.4465
-4 -12 2 -1.4580 -0.1142
-4 -12 3 -2.6131 0.2359
-4 -12 4 0.4814 0.1488
-4 -12 5 -2.2781 -0.1376
-4 -12 6 -2.6138 0.0442
-4 -12 7 -1.4833 0.2123
-4 -12 8 0.9010 -0.0323
-4 -12 9 -2.7410 -0.0657
-4 -12 10 -5.8578 0.0023
-4 -12 11 6.7610 0.0186
-4 -12 12 5.6824 -0.0380
-4 -12 13 1.1413 0.0078
-4 -12 14 -4.7099 0.0926
-4 -12 15 -4.3866 -0.1298
-4 -12 16 2.4242 0.0034
-4 -11 1 -1.3970 -0.3283
-4 -11 2 -2.3749 -0.4364
-4 -11 3 -1.2163 0.0837
-4 -11 4 3.8949 0.0195
-4 -11 5 5.3710 0.1582
-4 -11 6 -1.3051 -0.2267
-4 -11 7 -4.5898 0.0958
-4 -11 8 -4.1502 0.2018
-4 -11 9 -2.2510 -0.0589
-4 -11 10 -2.1656 -0.0299
-4 -11 11 -4.2513 0.0821
-4 -11 12 5.7082 0.0245
-4 -11 13 4.8811 -0.0182
-4 -11 14 -2.3267 -0.0262
-4 -11 15 -4.3943 0.1283
-4 -11 16 -3.6934 -0.0415
-4 -11 17 1.9614 0.0454
-4 -11 18 -4.1576 -0.0432
-4 -10 1 -0.4129 0.3929
-4 -10 2 3.1074 -0.0730
-4 -10 3 2.2721 -0.5027
-4 -10 4 3.9433 0.2634
-4 -10 5 7.5126 -0.1700
-4 -10 6 1.9057 0.1006
-4 -10 7 -4.3985 -0.2161
-4 -10 8 -1.3991 0.0974
-4 -10 9 -1.8802 0.2088
-4 -10 10 -4.3213 -0.0761
-4 -10 11 -5.2770 -0.0174
-4 -10 12 -4.0668 0.0931
-4 -10 13 5.6180 -0.0441
-4 -10 14 5.0253 -0.0064
-4 -10 15 -5.3482 0.0116
-4 -10 16 -3.9345 0.1049
-4 -10 17 1.2417 -0.0360
-4 -10 18 4.6145 -0.0292
-4 -10 19 -2.5923 -0.0066
-4 -9 1 -1.5281 -0.4736
-4 -9 2 4.6673 0.1152
-4 -9 3 3.4539 0.2341
-4 -9 4 3.1737 -0.5706
-4 -9 5 2.5090 0.3367
-4 -9 6 5.4632 -0.1583
-4 -9 7 4.2656 0.0514
-4 -9 8 -0.9734 -0.1361
-4 -9 9 1.2966 0.0009
-4 -9 10 -5.9678 0.1019
-4 -9 11 -7.0379 -0.1088
-4 -9 12 -1.5928 0.0089
-4 -9 13 0.5052 0.0937
-4 -9 14 1.6803 -0.0847
-4 -9 15 -0.3967 -0.0064
-4 -9 16 -3.8865 0.0484
-4 -9 17 3.3792 -0.0067
-4 -9 18 7.1065 -0.0203
-4 -9 19 1.1034 0.0030
-4 -9 20 -6.6153 0.0534
-4 -8 1 1.0395 -0.1087
-4 -8 2 -6.6506 -0.3585
-4 -8 3 1.8518 -0.0112
-4 -8 4 3.9932 0.4558
-4 -8 5 6.7512 -0.5124
-4 -8 6 3.6711 0.3330
-4 -8 7 0.7395 -0.0534
-4 -8 8 5.6485 -0.0841
-4 -8 9 0.0609 -0.0871
-4 -8 10 2.7598 -0.0532
-4 -8 11 -2.4671 0.0489
-4 -8 12 -3.9369 -0.1010
-4 -8 13 -0.5191 -0.0005
-4 -8 14 -2.5883 0.0494
-4 -8 15 -2.3894 -0.0444
-4 -8 16 1.5674 0.0162
-4 -8 17 2.5419 0.0914
-4 -8 18 4.5091 -0.0840
-4 -8 19 3.7404 0.0353
-4 -8 20 -2.6478 0.0559
-4 -8 21 -5.4124 -0.0331
-4 -8 22 -0.1703 -0.1019
-4 -8 23 3.5542 -0.0276
-4 -8 24 1.8641 0.1351
-4 -7 1 -8.6756 -0.0670
-4 -7 2 -1.6111 -0.2880
-4 -7 3 -2.2398 -0.1414
-4 -7 4 7.1460 -0.0443
-4 -7 5 2.9558 0.4027
-4 -7 6 -0.1194 -0.3946
-4 -7 7 2.0000 0.2682
-4 -7 8 -0.9193 0.0558
-4 -7 9 12.5910 -0.1410
-4 -7 10 5.3872 0.0480
-4 -7 11 1.2956 -0.0503
-4 -7 12 -1.4084 -0.0391
-4 -7 13 -4.3489 -0.1122
-4 -7 14 -0.4176 0.0224
-4 -7 15 -1.3937 0.0496
-4 -7 16 -0.9555 0.0270
-4 -7 17 1.7059 -0.0148
-4 -7 18 1.8540 0.0990
-4 -7 19 2.4980 -0.0800
-4 -7 20 3.0105 0.0359
-4 -7 21 -1.8282 0.0392
-4 -7 22 -3.8867 -0.0784
-4 -7 23 -0.2914 0.0271
-4 -7 24 0.3517 0.1666
-4 -7 25 -1.6956 0.0601
-4 -6 1 10.1614 0.7702
-4 -6 2 -3.3976 -0.1160
-4 -6 3 0.9335 -0.3330
-4 -6 4 -6.4591 -0.0936
-4 -6 5 -1.1098 -0.1045
-4 -6 6 1.7377 0.2530
-4 -6 7 1.7825 -0.1961
-4 -6 8 10.0017 0.2222
-4 -6 9 -0.4429 0.1448
-4 -6 10 8.1559 -0.1369
-4 -6 11 4.4792 0.1374
-4 -6 12 -1.3808 -0.0552
-4 -6 13 2.9571 -0.0927
-4 -6 14 -1.1023 -0.0759
-4 -6 15 -1.3926 0.0305
-4 -6 16 -0.7099 -0.0134
-4 -6 17 0.0471 0.0403
-4 -6 18 0.9363 -0.0485
-4 -6 19 1.3441 0.0800
-4 -6 20 2.2194 -0.0377
-4 -6 21 1.7806 0.0189
-4 -6 22 -1.7663 0.0609
-4 -6 23 -2.6215 -0.0249
-4 -6 24 -2.3303 0.0661
-4 -6 25 -1.9487 0.0393
-4 -5 1 7.4014 0.9041
-4 -5 2 7.6317 0.6799
-4 -5 3 -18.4089 -0.3765
-4 -5 4 -9.5875 -0.2105
-4 -5 5 -0.2333 -0.0154
-4 -5 6 8.2677 -0.1522
-4 -5 7 8.1608 0.1289
-4 -5 8 -6.4771 -0.0480
-4 -5 9 2.3715 0.1269
-4 -5 10 -1.2167 0.1678
-4 -5 11 6.0705 -0.1201
-4 -5 12 9.2293 0.1495
-4 -5 13 -2.5167 -0.0310
-4 -5 14 1.5552 -0.1113
-4 -5 15 -0.1644 -0.0542
-4 -5 16 -0.1444 0.0121
-4 -5 17 3.3670 -0.0892
-4 -5 18 0.5745 0.0121
-4 -5 19 -1.1840 -0.0605
-4 -5 20 0.2647 0.0723
-4 -5 21 1.4757 0.0517
-4 -5 22 0.2055 0.0041
-4 -5 23 -0.6284 -0.0108
-4 -5 24 -0.6558 -0.0745
-4 -5 25 -3.5549 0.0010
-4 -5 26 -1.6350 -0.0778
-4 -4 1 15.9005 0.1759
-4 -4 2 -13.0369 0.6446
-4 -4 3 -2.7960 0.6053
-4 -4 4 -9.1734 -0.4284
-4 -4 5 2.2313 0.0237
-4 -4 6 5.1754 0.1061
-4 -4 7 -3.0093 -0.2600
-4 -4 8 -0.4291 0.0137
-4 -4 9 -10.2012 0.0093
-4 -4 10 3.5537 -0.0153
-4 -4 11 6.1643 0.1238
-4 -4 12 0.1897 -0.0910
-4 -4 13 5.5153 0.1225
-4 -4 14 -1.2326 0.0509
-4 -4 15 1.9224 -0.0821
-4 -4 16 2.9184 -0.0557
-4 -4 17 1.3871 -0.0122
-4 -4 18 3.3909 -0.1357
-4 -4 19 -1.2022 0.0034
-4 -4 20 -0.8797 -0.0069
-4 -4 21 -0.3245 0.0522
-4 -4 22 -1.0380 0.0364
-4 -4 23 -0.1867 -0.0661
-4 -4 24 2.0083 -0.0475
-4 -4 25 1.5518 -0.0294
-4 -4 26 -3.3655 0.0429
-4 -4 27 -1.1182 -0.0904
-4 -3 1 -12.3458 -1.1743
-4 -3 2 23.4230 0.5407
-4 -3 3 -2.9200 0.3782
-4 -3 4 1.3221 0.5614
-4 -3 5 -8.1530 -0.2367
-4 -3 6 -7.8348 0.1164
-4 -3 7 1.4734 0.1990
-4 -3 8 -2.4190 -0.3648
-4 -3 9 4.0939 -0.1093
-4 -3 10 -8.6223 0.0219
-4 -3 11 -5.1383 -0.0973
-4 -3 12 8.2026 0.0736
-4 -3 13 1.2851 -0.0183
-4 -3 14 5.9405 0.0881
-4 -3 15 1.3949 0.1015
-4 -3 16 -3.0861 -0.0475
-4 -3 17 3.0511 -0.0500
-4 -3 18 4.4316 0.0159
-4 -3 19 3.3906 -0.1043
-4 -3 20 -4.2967 -0.0069
-4 -3 21 -0.8655 -0.0083
-4 -3 22 -0.9735 -0.0236
-4 -3 23 -2.1595 0.0187
-4 -3 24 0.9152 -0.0349
-4 -3 25 2.7921 0.0313
-4 -3 26 2.5339 0.0178
-4 -3 27 -2.5034 0.0559
-4 -3 28 -3.3974 -0.0480
-4 -2 1 10.0486 -1.0848
-4 -2 2 -1.7207 -1.2415
-4 -2 3 17.7788 0.8841
-4 -2 4 -14.6781 0.1721
-4 -2 5 -7.7873 0.2845
-4 -2 6 8.1615 0.0307
-4 -2 7 0.8850 0.0634
-4 -2 8 2.0131 0.2248
-4 -2 9 -8.0808 -0.3428
-4 -2 10 -2.6355 -0.1255
-4 -2 11 -2.1906 0.0786
-4 -2 12 -1.8010 -0.1087
-4 -2 13 12.1363 -0.0467
-4 -2 14 0.6695 0.0170
-4 -2 15 -2.7461 0.0573
-4 -2 16 1.4070 0.1007
-4 -2 17 0.4673 0.0233
-4 -2 18 5.8304 -0.0008
-4 -2 19 1.6387 0.0306
-4 -2 20 -0.8700 -0.0737
-4 -2 21 -5.1482 -0.0283
-4 -2 22 1.7131 -0.0199
-4 -2 23 -0.8761 -0.0596
-4 -2 24 -4.7453 0.0370
-4 -2 25 0.9067 -0.0113
-4 -2 26 3.1609 0.0864
-4 -2 27 2.1912 0.0507
-4 -2 28 -4.6664 0.0294
-4 -2 29 -6.8525 -0.0261
-4 -1 1 -20.1991 -0.4320
-4 -1 2 13.7127 -0.5135
-4 -1 3 -22.6400 -1.1088
-4 -1 4 2.0876 0.7077
-4 -1 5 9.7956 -0.0125
-4 -1 6 12.4311 -0.0698
-4 -1 7 14.4173 0.3038
-4 -1 8 -12.9944 0.0232
-4 -1 9 -7.1010 0.2199
-4 -1 10 1.8077 -0.1815
-4 -1 11 5.0174 -0.0722
-4 -1 12 5.1402 0.0455
-4 -1 13 -6.5740 -0.1304
-4 -1 14 1.7791 -0.1428
-4 -1 15 3.1576 0.0555
-4 -1 16 -1.1027 0.0392
-4 -1 17 3.8079 0.0433
-4 -1 18 1.0101 0.0869
-4 -1 19 2.0091 0.0586
-4 -1 20 -1.3037 0.0121
-4 -1 21 1.6246 -0.0365
-4 -1 22 -5.0561 -0.0216
-4 -1 23 -3.2661 -0.0257
-4 -1 24 -0.8944 -0.0752
-4 -1 25 -2.8085 0.0517
-4 -1 26 0.9202 -0.0085
-4 -1 27 -0.4617 0.0747
-4 -1 28 -0.6822 0.0318
-4 0 1 -6.6107 1.3843
-4 0 2 -40.1800 -0.6164
-4 0 3 20.5462 -0.2366
-4 0 4 4.7165 -0.8788
-4 0 5 2.8395 0.2961
-4 0 6 16.6495 0.0181
-4 0 7 4.8017 -0.2756
-4 0 8 8.3289 0.3996
-4 0 9 -2.7878 0.0043
-4 0 10 0.3555 0.1646
-4 0 11 5.2461 -0.0514
-4 0 12 -3.6098 -0.0011
-4 0 13 1.9331 -0.0139
-4 0 14 -3.0254 -0.1031
-4 0 15 -0.9099 -0.1489
-4 0 16 4.8267 0.0477
-4 0 17 -1.0356 0.0029
-4 0 18 1.6630 0.0034
-4 0 19 2.9164 0.1229
-4 0 20 3.2025 0.0792
-4 0 21 -4.7614 -0.0104
-4 0 22 -2.4057 0.0177
-4 0 23 -8.2026 0.0172
-4 0 24 -5.1066 -0.0139
-4 0 25 4.8100 -0.0718
-4 0 26 -1.5809 0.0227
-4 0 27 -4.4883 -0.0441
-4 1 1 -7.9351 0.0823
-4 1 2 21.8740 1.1587
-4 1 3 -15.6241 -0.6143
-4 1 4 15.4001 -0.0092
-4 1 5 4.7515 -0.4259
-4 1 6 -10.3370 -0.0861
-4 1 7 25.2277 0.0335
-4 1 8 16.8097 -0.3503
-4 1 9 3.8908 0.3216
-4 1 10 -3.7960 0.0018
-4 1 11 -6.1890 0.1018
-4 1 12 3.0996 0.0069
-4 1 13 -0.0690 0.0950
-4 1 14 1.9991 -0.0494
-4 1 15 -3.6183 -0.0626
-4 1 16 -6.4851 -0.0781
-4 1 17 5.6763 0.0296
-4 1 18 6.6350 -0.0534
-4 1 19 0.8089 -0.0343
-4 1 20 -2.8270 0.1166
-4 1 21 -0.5918 0.0968
-4 1 22 -7.7651 0.0266
-4 1 23 -4.8196 0.0451
-4 1 24 -5.2853 0.0150
-4 1 25 -3.7179 -0.0181
-4 1 26 5.9516 -0.0486
-4 1 27 -2.1899 -0.0115
-4 2 1 4.8878 0.0741
-4 2 2 -3.2633 -0.2033
-4 2 3 15.1717 0.8452
-4 2 4 -18.0150 -0.2988
-4 2 5 -1.3419 0.0746
-4 2 6 24.9784 -0.1625
-4 2 7 5.9328 -0.2738
-4 2 8 13.9968 0.0837
-4 2 9 4.2131 -0.2919
-4 2 10 -8.2278 0.1593
-4 2 11 2.5492 -0.0263
-4 2 12 -0.2175 0.0753
-4 2 13 -0.9697 0.0143
-4 2 14 -1.9530 0.1602
-4 2 15 -0.8013 -0.0455
-4 2 16 -1.4500 -0.0139
-4 2 17 -1.5126 -0.0160
-4 2 18 4.4790 -0.0265
-4 2 19 3.4384 -0.0978
-4 2 20 -3.5431 -0.0074
-4 2 21 -6.3147 0.1313
-4 2 22 1.3184 0.0549
-4 2 23 -7.1122 0.0006
-4 2 24 -7.9210 0.0141
-4 2 25 0.1873 0.0311
-4 2 26 0.3801 0.0208
-4 2 27 1.8991 0.0415
-4 3 1 -3.6184 0.1494
-4 3 2 -2.3531 0.1831
-4 3 3 -16.9370 -0.2824
-4 3 4 12.1686 0.4238
-4 3 5 9.3037 -0.1285
-4 3 6 -3.6577 0.0988
-4 3 7 16.4369 0.0499
-4 3 8 1.7460 -0.1903
-4 3 9 -3.3189 0.0580
-4 3 10 4.6478 -0.2572
-4 3 11 -2.6093 0.0695
-4 3 12 -0.0133 -0.0162
-4 3 13 -2.4072 0.0578
-4 3 14 -1.4498 -0.0334
-4 3 15 4.1865 0.1556
-4 3 16 1.7485 -0.0401
-4 3 17 -6.1579 0.0000
-4 3 18 -3.0467 0.0190
-4 3 19 1.4114 -0.0202
-4 3 20 2.4829 -0.0654
-4 3 21 1.6625 -0.0146
-4 3 22 -5.7226 0.0608
-4 3 23 -1.7462 -0.0365
-4 3 24 -5.9438 0.0141
-4 3 25 -5.0414 0.0523
-4 3 26 6.4621 0.0761
-4 3 27 1.5325 0.0352
-4 4 1 -4.0041 0.1450
-4 4 2 -13.0388 0.3259
-4 4 3 11.3841 0.0336
-4 4 4 5.0343 -0.3974
-4 4 5 1.9389 0.2134
-4 4 6 0.2310 0.0191
-4 4 7 -12.7242 0.1191
-4 4 8 9.0226 0.0903
-4 4 9 10.4250 -0.0903
-4 4 10 -11.8054 0.0375
-4 4 11 -3.4575 -0.1459
-4 4 12 2.8818 0.0755
-4 4 13 1.5732 -0.0508
-4 4 14 2.9052 -0.0186
-4 4 15 2.0891 -0.0895
-4 4 16 -0.9896 0.1276
-4 4 17 -2.2451 -0.0251
-4 4 18 -5.4494 0.0237
-4 4 19 0.7942 0.0562
-4 4 20 2.8893 -0.0127
-4 4 21 -0.3294 -0.0549
-4 4 22 6.3757 -0.0438
-4 4 23 -1.4510 0.0301
-4 4 24 -5.8499 -0.0507
-4 4 25 -4.3649 0.0672
-4 4 26 -0.0469 0.0681
-4 4 27 9.9090 0.0552
-4 5 1 -1.3162 0.3434
-4 5 2 11.8435 0.0328
-4 5 3 4.8042 0.2351
-4 5 4 3.7294 -0.0154
-4 5 5 -4.6104 -0.2969
-4 5 6 -10.7362 0.2156
-4 5 7 3.1652 -0.0255
-4 5 8 -2.6756 0.0252
-4 5 9 -3.8194 0.0891
-4 5 10 1.8836 0.0401
-4 5 11 -10.0125 0.0351
-4 5 12 -0.3190 -0.0524
-4 5 13 11.9459 0.0623
-4 5 14 0.7422 -0.1066
-4 5 15 -1.5636 -0.0634
-4 5 16 3.4155 -0.0752
-4 5 17 -3.0707 0.1184
-4 5 18 -0.4547 -0.0303
-4 5 19 -0.6693 0.0187
-4 5 20 -1.3718 0.0773
-4 5 21 2.5393 0.0039
-4 5 22 1.6108 -0.0312
-4 5 23 10.2279 -0.0465
-4 5 24 0.0191 0.0217
-4 5 25 -12.5738 -0.0335
-4 5 26 -1.4642 0.1131
-4 5 27 9.6582 -0.0128
-4 5 28 10.9685 -0.0603
-4 6 1 10.0854 -0.8440
-4 6 2 -0.7966 0.2985
-4 6 3 9.0413 0.0118
-4 6 4 2.9604 0.1335
-4 6 5 -4.7593 0.0798
-4 6 6 -1.5962 -0.1832
-4 6 7 -8.5708 0.2057
-4 6 8 -3.9611 -0.1058
-4 6 9 -1.3396 -0.0519
-4 6 10 -7.1351 0.0684
-4 6 11 0.3052 0.1201
-4 6 12 -2.1926 0.0001
-4 6 13 -2.8242 -0.0083
-4 6 14 10.1736 0.0326
-4 6 15 4.9371 -0.1140
-4 6 16 -2.1899 -0.0110
-4 6 17 1.8047 -0.0222
-4 6 18 -4.9828 0.0620
-4 6 19 -1.1551 -0.0647
-4 6 20 4.6791 0.0502
-4 6 21 -1.5336 0.0929
-4 6 22 0.6682 -0.0344
-4 6 23 1.1033 -0.0478
-4 6 24 5.8207 -0.0074
-4 6 25 0.8289 0.0681
-4 6 26 -10.0958 -0.0585
-4 6 27 2.7318 0.0181
-4 6 28 12.1984 -0.1906
-4 7 1 -1.9635 -0.0671
-4 7 2 1.6231 -0.6534
-4 7 3 4.3263 0.2993
-4 7 4 12.2712 0.0955
-4 7 5 0.9183 -0.0229
-4 7 6 -15.6968 0.1394
-4 7 7 -5.3188 -0.0770
-4 7 8 -1.5149 0.1466
-4 7 9 -0.8894 -0.1530
-4 7 10 1.7950 -0.0360
-4 7 11 -8.6388 0.0506
-4 7 12 -6.1667 0.1094
-4 7 13 2.7558 -0.1161
-4 7 14 0.3921 -0.0041
-4 7 15 6.2487 0.0872
-4 7 16 5.5004 -0.0437
-4 7 17 -5.7430 0.0322
-4 7 18 -0.5488 -0.0325
-4 7 19 -0.3725 -0.0014
-4 7 20 -1.6544 -0.0540
-4 7 21 4.1835 0.0789
-4 7 22 -2.9319 0.0128
-4 7 23 -4.2312 -0.0786
-4 7 24 0.4187 0.0248
-4 7 25 3.8028 0.0205
-4 7 26 3.3122 -0.0166
-4 7 27 -4.8679 -0.2151
-4 8 1 2.6718 -0.1467
-4 8 2 3.7381 -0.0443
-4 8 3 12.8358 -0.3020
-4 8 4 4.5861 0.1971
-4 8 5 -8.6221 0.1254
-4 8 6 -10.7863 -0.1234
-4 8 7 -7.4300 0.1106
-4 8 8 6.7141 -0.0049
-4 8 9 4.6582 0.1144
-4 8 10 -6.7281 -0.1093
-4 8 11 -1.1734 0.0299
-4 8 12 -1.4869 -0.0600
-4 8 13 -4.2535 0.0049
-4 8 14 -0.4118 -0.1324
-4 8 15 -2.8843 0.0716
-4 8 16 1.8657 0.1218
-4 8 17 8.4996 -0.0659
-4 8 18 -2.1811 0.0205
-4 8 19 -3.1461 -0.0148
-4 8 20 -1.0681 0.0046
-4 8 21 -3.8145 -0.0417
-4 8 22 3.8882 0.0726
-4 8 23 0.3544 -0.0507
-4 8 24 -7.4889 -0.0689
-4 8 25 -0.8493 0.0622
-4 8 26 4.4562 -0.1012
-4 9 1 2.8046 0.0797
-4 9 2 6.8074 -0.0813
-4 9 3 3.7440 -0.1380
-4 9 4 2.6742 -0.0613
-4 9 5 -7.3109 0.0819
-4 9 6 -12.6428 0.0817
-4 9 7 -0.1034 -0.1021
-4 9 8 3.0878 0.0937
-4 9 9 3.8213 0.0514
-4 9 10 3.5850 0.0685
-4 9 11 -2.9970 -0.1088
-4 9 12 1.4197 0.0902
-4 9 13 -0.6877 -0.0804
-4 9 14 -8.1184 -0.0351
-4 9 15 -3.9272 -0.1003
-4 9 16 3.7592 0.0464
-4 9 17 3.5226 0.0475
-4 9 18 4.0084 -0.0615
-4 9 19 -2.5879 0.0908
-4 9 20 -3.1972 0.0236
-4 9 21 1.6878 0.0092
-4 9 22 -0.4030 -0.0536
-4 9 23 3.3809 0.0448
-4 9 24 0.8690 -0.0596
-4 9 25 -7.7520 -0.0378
-4 9 26 -1.5197 0.0758
-4 10 1 -2.2380 -0.1121
-4 10 2 -6.6222 -0.2699
-4 10 3 -1.9565 0.0151
-4 10 4 1.7149 -0.1935
-4 10 5 2.0820 0.0056
-4 10 6 -4.9537 0.0391
-4 10 7 -7.9600 0.0392
-4 10 8 2.3976 0.0105
-4 10 9 5.6585 0.0578
-4 10 10 3.0466 0.0075
-4 10 11 4.5762 0.0419
-4 10 12 -3.4213 -0.0201
-4 10 13 -1.9651 0.1591
-4 10 14 1.3551 -0.0929
-4 10 15 -2.3612 -0.1088
-4 10 16 -2.6512 -0.0741
-4 10 17 4.4222 0.0340
-4 10 18 0.3649 0.0025
-4 10 19 0.5026 -0.0113
-4 10 20 2.8159 0.1501
-4 10 21 0.1038 -0.0207
-4 10 22 2.2348 -0.0347
-4 10 23 2.3648 -0.0374
-4 10 24 2.7522 0.0668
-4 10 25 -0.7993 0.0229
-4 11 1 -8.2803 0.1103
-4 11 2 -10.1921 0.0697
-4 11 3 -10.0406 -0.3980
-4 11 4 2.3253 0.0862
-4 11 5 3.7472 -0.1722
-4 11 6 -1.2139 -0.0616
-4 11 7 -1.6606 0.0627
-4 11 8 -0.1663 -0.0190
-4 11 9 1.2064 0.0727
-4 11 10 1.8400 0.0636
-4 11 11 -0.1520 0.0365
-4 11 12 2.6170 0.0389
-4 11 13 -1.9407 -0.0059
-4 11 14 0.1030 0.1057
-4 11 15 2.3529 -0.0692
-4 11 16 -0.2174 -0.0623
-4 11 17 -2.7539 -0.0281
-4 11 18 4.2115 -0.0117
-4 11 19 0.4373 -0.0432
-4 11 20 -1.9503 0.0301
-4 11 21 4.6308 0.1365
-4 11 22 2.4102 -0.1145
-4 11 23 4.2671 -0.0522
-4 11 24 2.4318 0.0610
-4 11 25 -2.5374 0.0808
-4 12 1 1.5404 0.6877
-4 12 2 -11.2901 -0.0261
-4 12 3 -8.8627 0.2235
-4 12 4 -5.0364 -0.2869
-4 12 5 4.9789 0.0457
-4 12 6 0.9806 -0.1273
-4 12 7 -3.4799 -0.1824
-4 12 8 1.0466 0.1122
-4 12 9 2.5759 -0.0156
-4 12 10 -3.9138 0.1216
-4 12 11 -2.1952 0.0778
-4 12 12 0.4935 0.0211
-4 12 13 -0.3489 -0.0503
-4 12 14 -2.6033 -0.0043
-4 12 15 1.9791 0.1184
-4 12 16 1.4894 -0.0163
-4 12 17 0.2597 -0.0350
-4 12 18 -3.1241 -0.0434
-4 12 19 0.1188 -0.0398
-4 12 20 0.4788 -0.0159
-4 12 21 -1.2509 0.0526
-4 12 22 6.3837 0.0232
-4 12 23 2.3716 -0.1942
-4 12 24 -0.1608 -0.0435
-4 12 25 -2.0131 0.1087
-4 12 26 -2.8583 0.0276
-4 13 1 2.0319 0.2104
-4 13 2 3.1397 0.7237
-4 13 3 -10.3335 -0.0959
-4 13 4 -1.6686 0.2260
-4 13 5 3.1752 -0.0706
-4 13 6 1.5578 -0.0797
-4 13 7 -7.6155 -0.0800
-4 13 8 -6.0157 -0.1600
-4 13 9 4.0415 0.2234
-4 13 10 4.7074 -0.0490
-4 13 11 -5.1775 0.0112
-4 13 12 -6.4423 0.0427
-4 13 13 -0.6247 0.0434
-4 13 14 -2.1881 -0.0799
-4 13 15 -3.5180 -0.0033
-4 13 16 2.3159 0.0915
-4 13 17 -2.1400 -0.0261
-4 13 18 -2.1335 0.0238
-4 13 19 -2.0100 0.0103
-4 13 20 -1.7019 -0.0207
-4 13 21 2.3161 -0.0203
-4 13 22 -0.9202 -0.0134
-4 13 23 2.5597 -0.1523
-4 14 1 7.6115 -0.2492
-4 14 2 4.7090 0.1541
-4 14 3 7.0675 0.5331
-4 14 4 -1.4871 -0.1710
-4 14 5 2.4616 0.1029
-4 14 6 1.1331 0.1685
-4 14 7 -4.3509 -0.0840
-4 14 8 -8.8857 0.0253
-4 14 9 -2.0852 -0.0894
-4 14 10 6.4294 0.1543
-4 14 11 2.7235 -0.1836
-4 14 12 -3.4791 -0.0519
-4 14 13 -7.2348 0.1080
-4 14 14 -3.4182 0.0415
-4 14 15 -4.4864 -0.1667
-4 14 16 -5.1623 -0.0432
-4 14 17 3.8139 0.1092
-4 14 18 -0.4189 0.0444
-4 14 19 -4.0565 0.1215
-4 14 20 -3.0042 -0.0045
-4 14 21 -3.9440 -0.0902
-4 15 1 -1.7417 -0.8641
-4 15 2 14.0433 -0.1545
-4 15 3 7.4216 0.1830
-4 15 4 8.2040 0.1518
-4 15 5 3.5594 -0.2342
-4 15 6 2.3996 0.1128
-4 15 7 1.1746 0.4066
-4 15 8 -1.7398 -0.0612
-4 15 9 -5.7530 -0.0268
-4 15 10 -0.5591 -0.1390
-4 15 11 8.6038 0.0180
-4 15 12 1.0407 -0.1549
-4 15 13 -3.9434 0.0260
-4 15 14 -8.3633 0.0774
-4 15 15 -4.3692 -0.1067
-4 15 16 1.7073 -0.2100
-4 15 17 -0.3847 0.0405
-4 15 18 2.2011 0.2145
-4 15 19 -3.2323 0.0733
-4 15 20 -8.0274 0.0486
-4 16 1 2.4703 -0.0490
-4 16 2 3.8656 -0.6020
-4 16 3 9.1879 -0.0998
-4 16 4 8.3185 0.1578
-4 16 5 12.0636 -0.0869
-4 16 6 7.7373 -0.1881
-4 16 7 2.2201 0.1433
-4 16 8 1.4378 0.3844
-4 16 9 1.5347 -0.1233
-4 16 10 -1.4999 -0.1296
-4 16 11 -0.4669 -0.1656
-4 17 1 -0.9843 0.3840
-4 17 2 5.5816 -0.0416
-4 17 3 5.8465 -0.3339
-3 -18 1 -0.9373 0.0961
-3 -17 1 1.4110 -0.4343
-3 -17 2 -7.6531 0.2619
-3 -17 3 -9.9119 0.4524
-3 -17 4 0.4296 0.2294
-3 -16 1 3.3106 -0.1512
-3 -16 2 -5.3238 -0.3462
-3 -16 3 -4.9464 0.2774
-3 -16 4 -0.8893 0.3480
-3 -16 5 -0.0108 0.0023
-3 -16 6 -6.0729 0.1725
-3 -16 7 -1.9028 0.1210
-3 -16 8 7.6543 0.1509
-3 -15 1 1.0156 -0.3987
-3 -15 2 3.8619 -0.1019
-3 -15 3 -3.5947 -0.1671
-3 -15 4 -0.5259 0.0749
-3 -15 5 3.3272 0.1625
-3 -15 6 -2.1177 -0.0847
-3 -15 7 -5.2593 0.2488
-3 -15 8 1.4843 0.0880
-3 -15 9 3.4622 -0.0610
-3 -15 10 -0.9100 -0.2087
-3 -14 1 6.0659 0.3579
-3 -14 2 1.3592 -0.2706
-3 -14 3 0.9879 -0.0969
-3 -14 4 1.3275 -0.1051
-3 -14 5 4.0761 -0.1229
-3 -14 6 0.5375 0.1398
-3 -14 7 -6.2418 -0.0406
-3 -14 8 -4.7755 0.1885
-3 -14 9 5.2592 -0.0083
-3 -14 10 2.6736 -0.0581
-3 -14 11 -3.0648 -0.0302
-3 -14 12 -3.5144 0.1409
-3 -14 13 0.2868 0.0859
-3 -13 1 5.8607 -0.2298
-3 -13 2 2.5512 0.2131
-3 -13 3 1.3721 -0.0937
-3 -13 4 3.6510 -0.1314
-3 -13 5 4.9264 -0.0551
-3 -13 6 -1.5381 -0.1723
-3 -13 7 -8.5867 0.0987
-3 -13 8 -2.9795 -0.0400
-3 -13 9 1.9305 0.1453
-3 -13 10 6.5240 0.0413
-3 -13 11 0.0986 0.0180
-3 -13 12 -7.2647 -0.0514
-3 -13 13 -0.8401 0.0951
-3 -13 14 3.4712 0.0531
-3 -13 15 6.1195 0.0282
-3 -12 1 4.2785 -0.0347
-3 -12 2 2.6946 -0.1137
-3 -12 3 3.0651 0.0599
-3 -12 4 0.4388 0.0566
-3 -12 5 -0.6228 -0.1241
-3 -12 6 -1.0557 -0.0637
-3 -12 7 -4.2357 -0.1069
-3 -12 8 -5.3416 0.0740
-3 -12 9 3.5652 -0.0383
-3 -12 10 2.5797 0.0826
-3 -12 11 1.8678 0.0005
-3 -12 12 1.1259 -0.0133
-3 -12 13 -6.2105 -0.0835
-3 -12 14 2.5265 0.1110
-3 -12 15 5.0081 0.0502
-3 -12 16 3.4968 -0.0781
-3 -11 1 0.7721 -0.0419
-3 -11 2 0.9374 -0.1560
-3 -11 3 -1.7863 0.0310
-3 -11 4 -2.8460 0.0377
-3 -11 5 -1.6821 0.1028
-3 -11 6 -0.6043 -0.0527
-3 -11 7 -1.6671 -0.0783
-3 -11 8 -2.9825 -0.0151
-3 -11 9 -2.9242 -0.0241
-3 -11 10 4.2583 -0.0983
-3 -11 11 4.5526 0.0768
-3 -11 12 0.9174 0.0292
-3 -11 13 2.1994 -0.0194
-3 -11 14 -5.2745 -0.0823
-3 -11 15 3.7184 0.0603
-3 -11 16 5.8575 0.0005
-3 -11 17 -1.5959 -0.0819
-3 -11 18 -3.7097 0.0738
-3 -10 1 6.0033 -0.2002
-3 -10 2 -8.8172 0.1803
-3 -10 3 -0.3317 -0.1359
-3 -10 4 -0.1971 0.0700
-3 -10 5 -1.7325 0.0948
-3 -10 6 0.1597 0.0191
-3 -10 7 -4.5517 0.0064
-3 -10 8 -5.7680 -0.0985
-3 -10 9 0.7327 0.0804
-3 -10 10 4.4619 -0.0467
-3 -10 11 5.3525 -0.0847
-3 -10 12 3.4456 0.0884
-3 -10 13 -2.7214 0.0074
-3 -10 14 2.0023 -0.0616
-3 -10 15 -1.3416 -0.0153
-3 -10 16 2.1595 0.0657
-3 -10 17 2.0059 0.0330
-3 -10 18 -5.3508 0.0042
-3 -10 19 -1.9590 0.0766
-3 -10 20 1.8269 -0.0456
-3 -9 1 7.9692 0.5991
-3 -9 2 6.6953 -0.1491
-3 -9 3 -2.1255 0.2449
-3 -9 4 5.1041 -0.1366
-3 -9 5 0.1911 -0.0353
-3 -9 6 -8.7025 0.1875
-3 -9 7 -2.7136 -0.0659
-3 -9 8 -2.8431 0.1165
-3 -9 9 -0.8286 -0.0380
-3 -9 10 5.9837 0.1035
-3 -9 11 3.1859 -0.1305
-3 -9 12 -0.3752 -0.1079
-3 -9 13 2.6819 0.0968
-3 -9 14 -0.6666 0.0463
-3 -9 15 1.3636 -0.0296
-3 -9 16 -2.2306 0.0498
-3 -9 17 -2.0055 0.0295
-3 -9 18 1.5573 0.0105
-3 -9 19 -1.9667 0.0242
-3 -9 20 -0.2318 0.0075
-3 -9 21 2.3711 -0.0601
-3 -9 22 1.5182 0.1165
-3 -8 1 -0.0485 -0.3920
-3 -8 2 7.4568 0.5050
-3 -8 3 8.7490 -0.1396
-3 -8 4 -0.4302 0.1247
-3 -8 5 0.5036 -0.0429
-3 -8 6 1.6474 -0.0569
-3 -8 7 -7.1061 0.3022
-3 -8 8 -1.5101 -0.1361
-3 -8 9 -1.5383 0.1110
-3 -8 10 -3.0860 -0.0861
-3 -8 11 4.4223 0.0251
-3 -8 12 2.5505 -0.1216
-3 -8 13 -0.2121 -0.0237
-3 -8 14 2.6147 0.0938
-3 -8 15 -2.4210 0.0252
-3 -8 16 -3.1577 -0.0282
-3 -8 17 -1.5935 0.0339
-3 -8 18 -0.0134 -0.0206
-3 -8 19 2.6729 -0.0113
-3 -8 20 -0.9459 0.0570
-3 -8 21 -0.4118 0.0021
-3 -8 22 2.4045 -0.0079
-3 -8 23 2.6749 0.0948
-3 -8 24 -1.2472 -0.0942
-3 -8 25 1.9815 -0.2624
-3 -7 1 -0.9584 -0.2177
-3 -7 2 -3.9654 -0.5279
-3 -7 3 -3.2777 0.3625
-3 -7 4 7.7214 -0.0317
-3 -7 5 9.9684 0.0487
-3 -7 6 1.3418 0.0599
-3 -7 7 0.8020 -0.1010
-3 -7 8 -8.7591 0.2492
-3 -7 9 -7.4030 -0.2446
-3 -7 10 1.5632 0.0800
-3 -7 11 -0.0186 -0.0319
-3 -7 12 4.4766 0.0226
-3 -7 13 0.4309 -0.0836
-3 -7 14 -4.1765 -0.0178
-3 -7 15 0.4535 0.0303
-3 -7 16 -2.0560 0.0124
-3 -7 17 -3.4008 0.0021
-3 -7 18 0.5808 -0.0178
-3 -7 19 0.8696 -0.0281
-3 -7 20 1.1347 0.0138
-3 -7 21 -0.7017 0.0514
-3 -7 22 1.1068 -0.0615
-3 -7 23 2.7269 -0.0359
-3 -7 24 4.0393 0.0369
-3 -7 25 -1.1297 -0.0717
-3 -6 1 -9.9443 0.2900
-3 -6 2 -4.4155 -0.2362
-3 -6 3 3.2116 -0.3927
-3 -6 4 2.7998 0.2961
-3 -6 5 3.8385 -0.0724
-3 -6 6 6.5740 -0.0914
-3 -6 7 -5.0116 0.0645
-3 -6 8 1.2992 -0.1267
-3 -6 9 2.7965 0.2062
-3 -6 10 -6.4849 -0.1995
-3 -6 11 1.1136 0.1093
-3 -6 12 -2.6885 0.0320
-3 -6 13 -0.1517 -0.0298
-3 -6 14 0.4218 -0.0569
-3 -6 15 -3.4300 0.0134
-3 -6 16 0.1384 -0.0019
-3 -6 17 -1.5613 -0.0211
-3 -6 18 -3.2548 0.0190
-3 -6 19 1.3277 -0.0216
-3 -6 20 -0.3593 -0.0015
-3 -6 21 -0.7628 -0.0268
-3 -6 22 0.8129 -0.0221
-3 -6 23 3.6555 -0.0354
-3 -6 24 3.1625 0.0699
-3 -6 25 1.4989 0.0863
-3 -6 26 -2.6332 0.0162
-3 -5 1 7.3057 0.4760
-3 -5 2 6.7615 0.6279
-3 -5 3 1.4513 -0.1428
-3 -5 4 -4.5473 -0.4102
-3 -5 5 -6.6293 0.2039
-3 -5 6 -4.8733 -0.1769
-3 -5 7 13.7276 -0.1444
-3 -5 8 8.9249 0.1210
-3 -5 9 2.6692 -0.0621
-3 -5 10 3.8526 0.1761
-3 -5 11 -12.7836 -0.1199
-3 -5 12 -2.5124 0.0965
-3 -5 13 2.0462 0.0735
-3 -5 14 -0.8586 -0.0526
-3 -5 15 0.3404 -0.0264
-3 -5 16 -3.1877 0.0227
-3 -5 17 -0.2714 -0.0428
-3 -5 18 0.8652 -0.0257
-3 -5 19 -3.9767 0.0559
-3 -5 20 -1.7822 -0.0311
-3 -5 21 -1.2945 -0.0255
-3 -5 22 1.1064 -0.0473
-3 -5 23 3.4311 0.0307
-3 -5 24 2.5202 0.0498
-3 -5 25 0.0900 0.0575
-3 -5 26 -3.2915 0.0023
-3 -4 1 19.0376 0.2627
-3 -4 2 12.0789 0.4411
-3 -4 3 -7.7488 0.5218
-3 -4 4 -14.5381 -0.0843
-3 -4 5 -4.8188 -0.4433
-3 -4 6 11.9822 0.3101
-3 -4 7 4.0689 -0.1628
-3 -4 8 7.5419 -0.1634
-3 -4 9 6.6530 0.1728
-3 -4 10 -4.8356 -0.0169
-3 -4 11 6.3735 0.0601
-3 -4 12 -6.1884 -0.0584
-3 -4 13 -5.0441 0.0799
-3 -4 14 1.8024 0.0679
-3 -4 15 -3.0872 -0.0628
-3 -4 16 2.7513 0.0034
-3 -4 17 0.5489 0.0549
-3 -4 18 -1.9055 -0.0604
-3 -4 19 -0.1850 -0.0401
-3 -4 20 -5.1567 0.0545
-3 -4 21 -1.7834 -0.0245
-3 -4 22 1.5391 0.0173
-3 -4 23 0.4074 -0.0386
-3 -4 24 1.3650 0.0113
-3 -4 25 0.1636 -0.0004
-3 -4 26 -0.3545 -0.0160
-3 -4 27 -3.4806 -0.0331
-3 -3 1 10.6641 -2.0734
-3 -3 2 5.0775 0.1113
-3 -3 3 1.4587 0.3817
-3 -3 4 -4.4165 0.1481
-3 -3 5 2.2325 0.1392
-3 -3 6 -2.6747 -0.2983
-3 -3 7 7.4338 0.4334
-3 -3 8 -1.3626 -0.1306
-3 -3 9 -2.3279 -0.2222
-3 -3 10 13.0160 0.1475
-3 -3 11 -3.1743 -0.0481
-3 -3 12 0.1718 -0.0882
-3 -3 13 -3.7091 0.0197
-3 -3 14 -6.9478 0.0896
-3 -3 15 4.9849 0.0274
-3 -3 16 0.4272 -0.0196
-3 -3 17 0.9886 0.0365
-3 -3 18 -0.0789 0.0456
-3 -3 19 -2.6551 -0.0752
-3 -3 20 2.2255 -0.0168
-3 -3 21 -3.4697 0.0892
-3 -3 22 -2.7512 -0.0331
-3 -3 23 1.3772 0.0100
-3 -3 24 -1.5800 -0.0608
-3 -3 25 1.1430 -0.0111
-3 -3 26 1.2463 0.0000
-3 -3 27 1.4531 -0.0677
-3 -3 28 -0.0485 -0.1162
-3 -3 29 4.0059 0.0517
-3 -2 1 -13.7315 -0.0726
-3 -2 2 16.2520 -1.9749
-3 -2 3 20.3687 -0.0627
-3 -2 4 3.9399 0.5663
-3 -2 5 -21.0600 -0.2129
-3 -2 6 -8.1337 0.3017
-3 -2 7 -3.1890 -0.1054
-3 -2 8 11.9810 0.3624
-3 -2 9 7.6931 -0.1561
-3 -2 10 -14.0165 -0.2489
-3 -2 11 2.6663 0.1180
-3 -2 12 -1.8899 -0.0521
-3 -2 13 -2.0500 -0.1384
-3 -2 14 5.2447 0.0893
-3 -2 15 -5.1667 0.0799
-3 -2 16 1.3166 -0.0332
-3 -2 17 0.5563 0.0341
-3 -2 18 1.1654 0.0448
-3 -2 19 3.9507 0.0351
-3 -2 20 -3.0147 -0.0214
-3 -2 21 -0.0137 -0.0003
-3 -2 22 -1.8517 0.0587
-3 -2 23 -0.0462 -0.0635
-3 -2 24 2.3750 0.0325
-3 -2 25 -3.4702 -0.0045
-3 -2 26 0.7841 -0.0447
-3 -2 27 5.0992 -0.0307
-3 -2 28 4.3377 -0.0846
-3 -2 29 0.7715 -0.1141
-3 -1 1 -4.7396 0.2872
-3 -1 2 2.8996 -0.0525
-3 -1 3 18.1845 -1.1851
-3 -1 4 -15.7477 -0.1702
-3 -1 5 -20.8635 0.6211
-3 -1 6 -18.3470 -0.5322
-3 -1 7 12.6096 0.2605
-3 -1 8 10.0174 0.0455
-3 -1 9 -7.8859 0.1605
-3 -1 10 -4.2265 -0.1213
-3 -1 11 -15.6167 -0.0825
-3 -1 12 5.6467 0.1260
-3 -1 13 9.8836 -0.0825
-3 -1 14 -8.0661 -0.1410
-3 -1 15 0.5421 0.1026
-3 -1 16 -1.3457 0.0477
-3 -1 17 2.7557 -0.0687
-3 -1 18 4.1558 0.0782
-3 -1 19 -0.1803 0.0422
-3 -1 20 2.2438 0.0233
-3 -1 21 -4.0278 0.0177
-3 -1 22 2.3114 -0.0241
-3 -1 23 4.0750 0.0277
-3 -1 24 0.5356 -0.0377
-3 -1 25 0.2952 -0.0004
-3 -1 26 -2.5243 0.0159
-3 -1 27 2.3355 -0.0206
-3 -1 28 5.7520 0.0398
-3 0 1 19.1209 1.8696
-3 0 2 -5.4847 0.4931
-3 0 3 -26.3392 -0.0909
-3 0 4 0.6205 -0.4624
-3 0 5 -15.7849 -0.3598
-3 0 6 -5.1557 0.4711
-3 0 7 -7.3424 -0.5774
-3 0 8 -0.4372 0.1531
-3 0 9 2.2676 0.1203
-3 0 10 -13.9383 0.0134
-3 0 11 3.5630 -0.0096
-3 0 12 -1.1378 0.0953
-3 0 13 -2.7344 0.0586
-3 0 14 6.2111 -0.1222
-3 0 15 -8.3071 -0.0716
-3 0 16 1.8518 0.0772
-3 0 17 4.8436 -0.0125
-3 0 18 -1.1759 -0.0772
-3 0 19 2.6877 0.1129
-3 0 20 2.0296 0.0264
-3 0 21 5.8793 -0.0133
-3 0 22 -2.9926 0.0179
-3 0 23 0.1317 -0.0379
-3 0 24 4.5905 -0.0247
-3 0 25 2.2112 -0.0195
-3 0 26 3.3663 -0.0291
-3 0 27 -1.1663 0.1055
-3 0 28 -2.7404 0.0990
-3 1 1 -39.4082 -0.1808
-3 1 2 -21.5154 1.5242
-3 1 3 16.0965 0.4053
-3 1 4 -6.9278 -0.3583
-3 1 5 4.2344 0.0775
-3 1 6 -22.3322 -0.2688
-3 1 7 -19.1412 0.2673
-3 1 8 1.2108 -0.4743
-3 1 9 4.4508 0.0466
-3 1 10 10.7002 0.1110
-3 1 11 -14.4205 -0.0512
-3 1 12 -4.6594 0.0561
-3 1 13 8.1674 0.1570
-3 1 14 -2.7833 -0.0009
-3 1 15 3.2185 -0.1105
-3 1 16 -6.8098 -0.0081
-3 1 17 -3.8563 0.0250
-3 1 18 6.2424 -0.0221
-3 1 19 4.2764 -0.0496
-3 1 20 7.3617 0.1052
-3 1 21 1.1938 -0.0298
-3 1 22 0.9364 -0.0575
-3 1 23 -4.3816 0.0130
-3 1 24 -0.8534 -0.0005
-3 1 25 6.7557 -0.0509
-3 1 26 5.1459 0.0327
-3 1 27 4.3158 -0.0220
-3 1 28 -2.6330 0.0520
-3 2 1 -13.1588 -0.5051
-3 2 2 -8.8552 -0.2066
-3 2 3 -2.4507 0.8032
-3 2 4 27.6312 0.2886
-3 2 5 -23.0477 -0.2829
-3 2 6 -17.3607 0.4231
-3 2 7 -3.0022 -0.2029
-3 2 8 2.3706 -0.0065
-3 2 9 13.7156 -0.2829
-3 2 10 -5.5995 0.0705
-3 2 11 -2.4868 0.0466
-3 2 12 -6.8445 -0.1031
-3 2 13 1.3704 0.0463
-3 2 14 13.9577 0.1288
-3 2 15 -10.3608 -0.0104
-3 2 16 -9.9501 -0.0569
-3 2 17 0.5155 0.0633
-3 2 18 4.5973 -0.0023
-3 2 19 9.8638 -0.0205
-3 2 20 2.7735 -0.0665
-3 2 21 0.3522 0.0745
-3 2 22 -3.6616 -0.0412
-3 2 23 1.4370 -0.0399
-3 2 24 0.0185 0.0231
-3 2 25 -4.2724 0.0585
-3 2 26 4.8191 -0.0739
-3 2 27 8.8166 -0.0092
-3 2 28 4.7176 -0.0604
-3 3 1 -27.5210 -0.7561
-3 3 2 2.5765 -0.5030
-3 3 3 6.6601 -0.1458
-3 3 4 -29.9299 0.4287
-3 3 5 7.0352 0.1877
-3 3 6 3.7488 -0.2185
-3 3 7 2.5416 0.4198
-3 3 8 13.8496 -0.1509
-3 3 9 -3.6772 -0.0573
-3 3 10 3.7294 -0.0685
-3 3 11 -2.6602 0.0871
-3 3 12 -0.9570 -0.0593
-3 3 13 0.2225 -0.1452
-3 3 14 -5.0767 0.0226
-3 3 15 3.7800 0.1038
-3 3 16 -6.6221 0.0388
-3 3 17 -3.7485 -0.0279
-3 3 18 7.2404 0.0839
-3 3 19 3.2740 -0.0407
-3 3 20 0.9635 -0.0079
-3 3 21 -0.8761 -0.0500
-3 3 22 0.4698 0.0603
-3 3 23 -2.8921 -0.0497
-3 3 24 -0.3289 -0.0101
-3 3 25 0.1406 0.0102
-3 3 26 -5.6267 0.0577
-3 3 27 5.0992 -0.0932
-3 3 28 10.0135 -0.0639
-3 4 1 6.9781 0.7093
-3 4 2 -18.9020 -0.4854
-3 4 3 -23.5927 -0.2042
-3 4 4 9.5967 -0.1343
-3 4 5 -8.8743 0.1086
-3 4 6 12.6023 0.0506
-3 4 7 17.3159 -0.1407
-3 4 8 -3.2041 0.3496
-3 4 9 10.9364 -0.0806
-3 4 10 6.6642 -0.0029
-3 4 11 4.2876 0.0245
-3 4 12 -6.1159 0.0580
-3 4 13 -8.5679 -0.1055
-3 4 14 1.4152 -0.1360
-3 4 15 -1.4505 0.0316
-3 4 16 2.0791 0.0719
-3 4 17 -1.4841 0.0332
-3 4 18 -3.5135 -0.0604
-3 4 19 1.6953 0.1173
-3 4 20 2.5249 -0.0314
-3 4 21 0.8938 -0.0239
-3 4 22 -1.7301 -0.0645
-3 4 23 -1.0611 0.0361
-3 4 24 -3.1772 -0.0501
-3 4 25 -2.6828 0.0193
-3 4 26 1.7952 -0.0389
-3 4 27 -2.7259 0.0222
-3 4 28 2.6771 -0.0143
-3 4 29 6.6766 -0.0719
-3 5 1 -11.7673 0.4035
-3 5 2 -13.5996 0.9181
-3 5 3 -2.0539 -0.3814
-3 5 4 -8.1679 -0.0878
-3 5 5 13.5262 -0.1453
-3 5 6 -0.3963 0.0154
-3 5 7 0.9204 0.0253
-3 5 8 21.9427 -0.1709
-3 5 9 5.5306 0.2312
-3 5 10 5.8822 0.0345
-3 5 11 5.5117 0.0440
-3 5 12 -1.4623 -0.0307
-3 5 13 -4.5296 0.0254
-3 5 14 -0.9949 -0.0450
-3 5 15 2.2077 -0.0845
-3 5 16 -5.6695 0.0277
-3 5 17 -1.2489 0.0043
-3 5 18 1.7186 0.0149
-3 5 19 -0.2188 -0.0570
-3 5 20 -0.4239 0.1179
-3 5 21 1.6628 -0.0634
-3 5 22 1.1980 -0.0452
-3 5 23 -2.6955 -0.0236
-3 5 24 -0.5212 0.0497
-3 5 25 -1.2041 -0.1015
-3 5 26 -5.2841 -0.0130
-3 5 27 2.6065 -0.0319
-3 5 28 3.1417 0.0537
-3 5 29 0.1172 0.0790
-3 6 1 0.2998 -0.6991
-3 6 2 2.8725 0.2185
-3 6 3 -13.9834 0.8844
-3 6 4 1.4140 -0.3858
-3 6 5 -6.0333 0.0327
-3 6 6 6.9772 -0.0224
-3 6 7 15.1169 -0.0500
-3 6 8 3.9430 -0.0320
-3 6 9 8.3693 -0.1671
-3 6 10 0.7755 0.1717
-3 6 11 3.4036 0.0524
-3 6 12 10.4943 -0.0415
-3 6 13 3.0703 -0.0649
-3 6 14 -4.9102 0.1281
-3 6 15 -0.6859 0.0305
-3 6 16 0.1827 -0.0957
-3 6 17 -5.0981 0.0221
-3 6 18 1.6789 -0.0135
-3 6 19 2.0915 -0.0009
-3 6 20 -0.0279 -0.0493
-3 6 21 0.6016 0.0955
-3 6 22 0.8914 -0.0411
-3 6 23 0.8413 0.0008
-3 6 24 -1.2095 -0.0298
-3 6 25 0.2006 0.0062
-3 6 26 0.1526 -0.1297
-3 6 27 -5.4270 0.0220
-3 6 28 4.4069 0.0617
-3 6 29 8.1395 0.0285
-3 7 1 -5.2105 -0.7142
-3 7 2 -4.1640 -0.5185
-3 7 3 -4.4004 0.0467
-3 7 4 -18.7860 0.8066
-3 7 5 7.4451 -0.3188
-3 7 6 10.4740 0.0240
-3 7 7 1.0337 0.1040
-3 7 8 6.1764 -0.0242
-3 7 9 -2.7646 -0.0725
-3 7 10 0.6940 -0.1563
-3 7 11 9.7121 0.0607
-3 7 12 7.5316 -0.0024
-3 7 13 1.5995 -0.0156
-3 7 14 1.7390 0.0117
-3 7 15 1.4379 0.1564
-3 7 16 2.6225 -0.0250
-3 7 17 -0.6050 -0.0749
-3 7 18 -7.2276 0.0923
-3 7 19 1.6670 0.0074
-3 7 20 5.4139 -0.0314
-3 7 21 1.6177 -0.0168
-3 7 22 -0.7893 0.0822
-3 7 23 -4.3861 -0.0621
-3 7 24 -0.5737 0.0216
-3 7 25 4.6633 -0.0311
-3 7 26 2.3924 0.0280
-3 7 27 0.2957 -0.0795
-3 7 28 -2.9465 -0.0017
-3 8 1 -6.7282 -0.1959
-3 8 2 -5.0724 -0.8637
-3 8 3 -9.1837 -0.1760
-3 8 4 3.1294 -0.0110
-3 8 5 -3.7690 0.5129
-3 8 6 2.2004 -0.2180
-3 8 7 0.1516 0.0638
-3 8 8 -9.2338 0.1985
-3 8 9 2.8830 -0.0162
-3 8 10 2.7552 -0.1383
-3 8 11 -0.9325 -0.0716
-3 8 12 6.7723 0.0431
-3 8 13 7.4705 -0.0874
-3 8 14 -0.3661 0.0135
-3 8 15 4.8080 0.0347
-3 8 16 2.7422 0.0965
-3 8 17 -3.1840 -0.0535
-3 8 18 0.0723 0.0458
-3 8 19 -1.2514 0.1264
-3 8 20 2.6023 -0.0278
-3 8 21 3.0999 -0.0749
-3 8 22 -4.9022 -0.0112
-3 8 23 -6.0247 0.0599
-3 8 24 -2.6694 -0.0961
-3 8 25 3.0984 0.0799
-3 8 26 9.1706 0.0187
-3 8 27 3.1533 -0.0038
-3 8 28 0.0805 -0.1077
-3 9 1 -8.8571 0.8792
-3 9 2 -2.3956 -0.0982
-3 9 3 10.6922 -0.7731
-3 9 4 -3.4988 -0.0453
-3 9 5 -1.8976 -0.0597
-3 9 6 -6.2121 0.2182
-3 9 7 -7.2599 -0.0560
-3 9 8 -2.0234 0.1071
-3 9 9 -7.6427 0.1531
-3 9 10 -3.0517 0.0323
-3 9 11 1.6917 -0.0759
-3 9 12 3.5647 -0.0176
-3 9 13 7.3019 -0.0303
-3 9 14 5.5235 -0.1967
-3 9 15 -3.7554 0.0702
-3 9 16 0.0244 0.0463
-3 9 17 3.2910 0.0259
-3 9 18 -0.9538 -0.0587
-3 9 19 2.0289 0.1277
-3 9 20 -0.9969 0.0432
-3 9 21 -2.8754 -0.0981
-3 9 22 -1.4796 -0.0307
-3 9 23 -7.6329 -0.0040
-3 9 24 -5.9831 0.0206
-3 9 25 3.9330 -0.1163
-3 9 26 7.0050 0.1461
-3 9 27 8.3544 0.0708
-3 10 1 7.3243 0.9902
-3 10 2 -0.0090 0.6581
-3 10 3 2.5195 -0.1640
-3 10 4 9.4995 -0.5465
-3 10 5 -6.2182 -0.0151
-3 10 6 -4.5057 -0.0529
-3 10 7 -3.2371 -0.0101
-3 10 8 -9.1132 0.0315
-3 10 9 -4.8311 0.1636
-3 10 10 -5.6993 0.0790
-3 10 11 -1.3638 0.0252
-3 10 12 4.6478 -0.0316
-3 10 13 3.9656 -0.0136
-3 10 14 0.0339 -0.0340
-3 10 15 2.3921 -0.2110
-3 10 16 1.6426 0.0749
-3 10 17 -1.1315 -0.0018
-3 10 18 0.3994 -0.0003
-3 10 19 -2.7580 -0.0506
-3 10 20 0.1113 0.1093
-3 10 21 0.8576 -0.0362
-3 10 22 -2.9978 -0.0870
-3 10 23 -5.0506 0.0796
-3 10 24 -6.9176 -0.0428
-3 10 25 -0.0510 -0.0095
-3 10 26 9.9008 0.0082
-3 11 1 7.9932 -0.1241
-3 11 2 6.5137 0.8789
-3 11 3 2.6948 0.4245
-3 11 4 0.5625 -0.1897
-3 11 5 6.2900 -0.1799
-3 11 6 -3.9224 -0.0690
-3 11 7 -4.1346 -0.0828
-3 11 8 1.4339 -0.0892
-3 11 9 -2.2936 0.0398
-3 11 10 -1.9306 0.1042
-3 11 11 -4.4689 -0.0374
-3 11 12 -2.1824 0.0123
-3 11 13 3.3656 0.0750
-3 11 14 2.6694 0.0264
-3 11 15 1.8568 -0.0432
-3 11 16 4.6242 -0.2055
-3 11 17 2.5847 0.0817
-3 11 18 -6.9000 0.0058
-3 11 19 -1.8608 0.0095
-3 11 20 0.8419 -0.0758
-3 11 21 1.2924 0.0328
-3 11 22 1.6978 0.0012
-3 11 23 -3.7068 0.0115
-3 11 24 -4.0758 0.1826
-3 11 25 -0.6273 -0.0245
-3 11 26 3.6744 0.0348
-3 12 1 11.4882 -0.4098
-3 12 2 7.7475 -0.1199
-3 12 3 6.7359 0.6117
-3 12 4 2.8612 0.3450
-3 12 5 -6.0050 -0.2270
-3 12 6 3.1623 0.0620
-3 12 7 4.5710 -0.0600
-3 12 8 5.9336 -0.0619
-3 12 9 7.8058 -0.1429
-3 12 10 -0.4413 -0.1012
-3 12 11 -5.7001 0.0189
-3 12 12 -4.5482 -0.0083
-3 12 13 2.4170 0.0453
-3 12 14 6.0150 0.0931
-3 12 15 2.0902 0.0475
-3 12 16 4.3983 0.0042
-3 12 17 3.1522 -0.1033
-3 12 18 -0.2619 0.1079
-3 12 19 -6.9613 -0.0091
-3 12 20 1.9391 -0.0442
-3 12 21 4.9646 -0.0668
-3 12 22 -0.2509 0.0534
-3 12 23 0.7733 0.1484
-3 12 24 -2.7619 0.1237
-3 12 25 -0.6116 0.1791
-3 12 26 1.4916 0.0046
-3 13 1 2.6182 -0.5513
-3 13 2 3.9955 -0.2565
-3 13 3 4.6287 -0.0180
-3 13 4 0.4925 0.2145
-3 13 5 1.1983 0.2526
-3 13 6 -2.3598 -0.1936
-3 13 7 8.4784 0.2154
-3 13 8 8.6526 0.0073
-3 13 9 5.6631 -0.1018
-3 13 10 4.8887 -0.2026
-3 13 11 0.1025 -0.1446
-3 13 12 -3.9040 0.0420
-3 13 13 -1.4558 0.0118
-3 13 14 4.9866 0.0096
-3 13 15 7.2993 0.0843
-3 13 16 1.9787 0.1527
-3 13 17 4.6386 0.0790
-3 13 18 -2.0218 -0.0566
-3 13 19 -2.4116 0.0574
-3 13 20 0.5289 -0.0096
-3 13 21 7.9542 -0.0329
-3 13 22 5.7844 0.0569
-3 13 23 -6.7425 0.1347
-3 13 24 -2.6407 0.1584
-3 14 1 11.4230 0.2110
-3 14 2 -8.4318 -0.2789
-3 14 3 -7.5863 -0.2514
-3 14 4 5.2072 -0.0220
-3 14 5 2.9049 -0.0389
-3 14 6 3.7476 0.2645
-3 14 7 -3.4319 -0.0991
-3 14 8 2.8836 0.1640
-3 14 9 2.9885 0.0303
-3 14 10 3.8236 -0.0781
-3 14 11 4.5270 -0.1204
-3 14 12 1.0107 -0.0882
-3 14 13 -0.8559 0.0153
-3 14 14 0.6375 -0.0552
-3 14 15 3.5647 0.0311
-3 14 16 4.4685 0.1384
-3 14 17 -1.4481 0.1858
-3 14 18 3.3783 0.0046
-3 14 19 -0.7256 -0.0514
-3 14 20 2.1303 0.0918
-3 14 21 7.2645 0.1032
-3 14 22 4.8599 0.0345
-3 15 1 -0.2199 -0.2756
-3 15 2 -1.4264 0.0857
-3 15 3 -9.8388 -0.1265
-3 15 4 -8.1848 -0.2508
-3 15 5 6.4274 0.0489
-3 15 6 0.0039 -0.0335
-3 15 7 -2.3638 0.2459
-3 15 8 -8.6241 -0.0603
-3 15 9 -0.7102 0.0305
-3 15 10 -0.8128 0.0745
-3 15 11 1.2316 0.0368
-3 15 12 6.3847 -0.0094
-3 15 13 2.6799 -0.0782
-3 15 14 -1.6192 -0.0503
-3 15 15 -4.4998 -0.0737
-3 15 16 -3.4271 0.0989
-3 15 17 4.3448 0.0796
-3 15 18 3.3092 0.0367
-3 15 19 6.4412 -0.0635
-3 15 20 1.2270 0.1264
-3 15 21 -0.0758 0.2343
-3 16 1 5.9581 -0.2185
-3 16 2 -1.9902 -0.5152
-3 16 3 -6.0148 -0.0493
-3 16 4 -11.3451 0.0596
-3 16 5 -10.1944 -0.1340
-3 16 6 6.5462 0.1056
-3 16 7 -1.3345 0.0490
-3 16 8 -6.6991 0.2044
-3 16 9 -11.0766 -0.0023
-3 16 10 -0.9574 -0.0612
-3 16 11 -0.5552 0.0684
-3 16 12 -0.5866 0.1134
-3 16 13 5.5689 0.0348
-3 16 15 -6.7981 -0.0829
-3 16 16 -3.8044 -0.1080
-3 16 17 -0.3486 0.0306
-3 16 18 7.6317 -0.0684
-3 16 19 4.3562 -0.0084
-3 17 1 -2.1297 0.4532
-3 17 2 -0.3202 -0.3999
-3 17 3 -5.2590 -0.6451
-3 17 4 -8.6562 -0.0438
-3 17 5 -8.4585 0.1997
-3 17 6 -3.1117 -0.0533
-3 17 7 9.6668 0.0875
-2 -18 1 0.4769 -0.0712
-2 -17 1 -3.0739 -0.1512
-2 -17 2 3.8781 0.1180
-2 -17 3 9.9695 0.3002
-2 -17 4 0.0445 -0.1819
-2 -16 1 -0.9436 -0.5042
-2 -16 2 -4.7306 -0.0185
-2 -16 3 0.7312 0.0568
-2 -16 4 5.9688 0.2560
-2 -16 5 -0.4057 -0.0506
-2 -16 6 4.4742 -0.0535
-2 -16 7 2.9135 -0.1374
-2 -16 8 -1.9265 -0.2387
-2 -15 1 -3.0825 -0.3605
-2 -15 2 -7.8910 -0.6144
-2 -15 3 -0.5143 0.0925
-2 -15 4 -1.6403 0.0291
-2 -15 5 -0.9642 0.2399
-2 -15 6 1.6353 0.0693
-2 -15 7 5.0826 -0.0219
-2 -15 8 4.5289 -0.0549
-2 -15 9 0.7142 -0.1597
-2 -15 10 5.9133 0.0101
-2 -14 1 -2.9925 0.2865
-2 -14 2 -5.1695 -0.2995
-2 -14 3 -2.9991 -0.4913
-2 -14 4 -0.2021 0.1847
-2 -14 5 -6.9509 -0.0819
-2 -14 6 -2.3259 0.0851
-2 -14 7 9.6916 0.1380
-2 -14 8 6.4795 0.0251
-2 -14 9 2.5341 -0.0058
-2 -14 10 1.1501 -0.1454
-2 -14 11 1.8612 -0.0433
-2 -14 12 -1.3660 -0.0047
-2 -14 13 -4.5190 -0.0474
-2 -13 1 1.0046 0.9242
-2 -13 2 -9.8039 0.2737
-2 -13 3 -6.8283 -0.1296
-2 -13 4 2.3785 -0.3517
-2 -13 5 0.4651 0.0948
-2 -13 6 -2.6248 -0.1706
-2 -13 7 2.2847 -0.0191
-2 -13 8 8.9032 0.1648
-2 -13 9 3.1804 0.0390
-2 -13 10 -0.1605 0.0309
-2 -13 11 2.2780 -0.0619
-2 -13 12 -0.2850 0.0358
-2 -13 13 -0.1512 0.0562
-2 -13 14 -0.4636 -0.1066
-2 -13 15 -0.3018 -0.1702
-2 -12 1 7.3953 0.0526
-2 -12 2 -3.3277 0.9582
-2 -12 3 -13.1414 0.1891
-2 -12 4 0.3419 -0.1248
-2 -12 5 9.0196 -0.2149
-2 -12 6 -0.9235 0.0263
-2 -12 7 -1.2073 -0.1523
-2 -12 8 3.8635 -0.0704
-2 -12 9 3.8281 0.1441
-2 -12 10 1.3904 0.0576
-2 -12 11 -2.3212 0.0470
-2 -12 12 1.8404 -0.0337
-2 -12 13 1.2388 0.0864
-2 -12 14 -0.0519 0.0861
-2 -12 15 0.8123 -0.0548
-2 -12 16 -2.2671 -0.0098
-2 -12 17 -1.7151 0.2244
-2 -11 1 7.2335 -0.4928
-2 -11 2 10.1712 0.0704
-2 -11 3 -3.7923 0.6317
-2 -11 4 -10.7772 0.0705
-2 -11 5 -0.5173 -0.0854
-2 -11 6 4.6494 -0.0152
-2 -11 7 0.2704 0.0279
-2 -11 8 2.9955 -0.1013
-2 -11 9 3.1324 -0.1268
-2 -11 10 -5.5658 0.0165
-2 -11 11 -2.5773 -0.0143
-2 -11 12 -0.1970 0.0348
-2 -11 13 3.6114 0.0327
-2 -11 14 3.5154 0.1688
-2 -11 15 -2.7151 0.0857
-2 -11 16 1.1256 -0.0262
-2 -11 17 0.8325 -0.0083
-2 -11 18 -0.4277 0.1530
-2 -10 1 5.0080 -0.2790
-2 -10 2 11.7287 -0.4293
-2 -10 3 0.0006 0.0632
-2 -10 4 -10.6274 0.3051
-2 -10 5 -9.5431 0.1029
-2 -10 6 2.0360 0.0093
-2 -10 7 5.3383 0.0796
-2 -10 8 0.3642 -0.0286
-2 -10 9 -3.4734 -0.1327
-2 -10 10 -3.6460 -0.1660
-2 -10 11 -6.4750 -0.0267
-2 -10 12 0.9255 0.0127
-2 -10 13 4.4868 0.0423
-2 -10 14 1.5501 0.0183
-2 -10 15 3.3520 0.1043
-2 -10 16 -1.9305 0.0028
-2 -10 17 1.3267 -0.0035
-2 -10 18 1.4119 -0.0149
-2 -10 19 -2.4718 0.0974
-2 -10 20 -2.5220 -0.1283
-2 -9 1 -9.9053 0.0949
-2 -9 2 2.1786 -0.1030
-2 -9 3 4.5402 -0.2872
-2 -9 4 -6.8857 0.1017
-2 -9 5 -3.6643 0.0502
-2 -9 6 -2.7949 0.1062
-2 -9 7 -2.0353 0.0127
-2 -9 8 -2.9930 0.0405
-2 -9 9 -3.1829 -0.0123
-2 -9 10 -3.6333 -0.0239
-2 -9 11 -0.9627 -0.0500
-2 -9 12 -1.6948 -0.0425
-2 -9 13 0.6351 -0.0364
-2 -9 14 5.1446 -0.0467
-2 -9 15 1.1999 -0.0327
-2 -9 16 4.1753 0.0679
-2 -9 17 -1.3393 0.0163
-2 -9 18 -2.4469 0.0636
-2 -9 19 0.3221 0.0044
-2 -9 20 -0.9195 0.0142
-2 -9 21 -3.4809 -0.0800
-2 -9 22 -4.0517 -0.1399
-2 -9 23 -1.6152 -0.0685
-2 -9 24 1.9707 -0.0229
-2 -8 1 1.6474 0.0297
-2 -8 2 -6.4422 0.1061
-2 -8 3 3.8466 0.0890
-2 -8 4 5.3674 -0.2762
-2 -8 5 -9.7287 0.0203
-2 -8 6 -3.8879 -0.0975
-2 -8 7 -3.2089 0.1278
-2 -8 8 -4.7062 0.0691
-2 -8 9 -1.2351 0.0784
-2 -8 10 -1.6503 0.0903
-2 -8 11 -4.2764 0.0081
-2 -8 12 -0.9004 -0.0332
-2 -8 13 2.9174 -0.0746
-2 -8 14 2.8476 -0.0073
-2 -8 15 5.0069 -0.0653
-2 -8 16 0.1240 -0.0589
-2 -8 17 1.8202 0.0656
-2 -8 18 -2.2037 0.0597
-2 -8 19 -4.1447 0.0517
-2 -8 20 0.9489 -0.0249
-2 -8 21 2.0021 -0.0399
-2 -8 22 -4.4098 0.0276
-2 -8 23 -6.0246 0.0644
-2 -8 24 -1.9563 0.0346
-2 -8 25 1.3587 -0.0827
-2 -7 1 -7.5206 -0.3876
-2 -7 2 7.2240 0.0011
-2 -7 3 -1.8019 0.0046
-2 -7 4 -7.6792 0.0969
-2 -7 5 -0.3860 -0.2487
-2 -7 6 -4.2837 0.0350
-2 -7 7 2.1695 -0.0571
-2 -7 8 -0.8461 0.1592
-2 -7 9 -8.8458 0.0667
-2 -7 10 -4.0528 0.0070
-2 -7 11 -1.5799 0.0893
-2 -7 12 -0.9117 -0.0158
-2 -7 13 4.2495 0.0505
-2 -7 14 6.0585 -0.0198
-2 -7 15 -0.4022 0.0048
-2 -7 16 0.3728 -0.0948
-2 -7 17 -0.1069 -0.0412
-2 -7 18 0.5136 0.0841
-2 -7 19 -2.1571 0.0292
-2 -7 20 -1.5601 -0.0331
-2 -7 21 3.7982 0.0179
-2 -7 22 2.3743 0.0373
-2 -7 23 -7.3230 0.0723
-2 -7 24 -10.1146 0.1095
-2 -7 25 0.0995 -0.0606
-2 -6 1 18.3048 -0.0619
-2 -6 2 -20.1008 -0.3316
-2 -6 3 -5.0723 -0.1001
-2 -6 4 5.3741 0.0491
-2 -6 5 -4.2938 0.1553
-2 -6 6 2.6426 -0.1967
-2 -6 7 -0.8207 0.0478
-2 -6 8 -6.4726 -0.0510
-2 -6 9 -6.1911 0.0427
-2 -6 10 -5.5565 -0.0151
-2 -6 11 1.7562 -0.0312
-2 -6 12 2.9475 0.1394
-2 -6 13 -2.2360 -0.0376
-2 -6 14 2.4568 0.0686
-2 -6 15 3.7008 0.0131
-2 -6 16 -3.6493 0.0249
-2 -6 17 -1.2598 -0.0460
-2 -6 18 1.2962 -0.0079
-2 -6 19 1.1161 0.0059
-2 -6 20 1.5711 -0.0296
-2 -6 21 2.1109 -0.0141
-2 -6 22 1.9880 0.0829
-2 -6 23 -2.9932 0.0149
-2 -6 24 -7.7689 -0.0118
-2 -6 25 -7.0193 0.0988
-2 -6 26 4.3014 -0.0665
-2 -5 1 -17.1304 0.3582
-2 -5 2 -0.4527 -0.1284
-2 -5 3 -8.0928 -0.0630
-2 -5 4 7.9857 -0.0871
-2 -5 5 11.0147 0.0947
-2 -5 6 -15.3597 0.1103
-2 -5 7 -11.4473 -0.2446
-2 -5 8 2.7553 0.0518
-2 -5 9 -0.9704 -0.0523
-2 -5 10 -0.8602 -0.0689
-2 -5 11 -0.2705 -0.0022
-2 -5 12 -2.1320 -0.0006
-2 -5 13 0.1166 0.1155
-2 -5 14 -3.2812 -0.0786
-2 -5 15 1.1500 0.0964
-2 -5 16 0.8344 0.0763
-2 -5 17 -5.1844 0.0044
-2 -5 18 0.5925 -0.0461
-2 -5 19 6.1076 0.0301
-2 -5 20 1.8880 -0.0424
-2 -5 21 1.2825 -0.0331
-2 -5 22 0.2952 0.0139
-2 -5 23 0.1856 0.0575
-2 -5 24 -3.0178 -0.0106
-2 -5 25 -4.5474 -0.0085
-2 -5 26 -3.3596 0.0624
-2 -5 27 1.9798 -0.0634
-2 -4 1 26.8804 0.0074
-2 -4 2 -11.0399 0.5663
-2 -4 3 -3.9924 -0.2774
-2 -4 4 1.3172 0.0639
-2 -4 5 -5.9355 -0.0929
-2 -4 6 -0.8885 0.0458
-2 -4 7 -4.8447 0.0720
-2 -4 8 -1.2597 -0.2432
-2 -4 9 7.7406 0.1224
-2 -4 10 -3.4419 -0.0019
-2 -4 11 -6.3007 -0.1111
-2 -4 12 4.8989 0.0447
-2 -4 13 -0.9330 0.0317
-2 -4 14 -0.8847 0.0525
-2 -4 15 -5.8700 -0.0696
-2 -4 16 -4.6995 0.0795
-2 -4 17 1.8786 0.0376
-2 -4 18 0.6533 -0.0147
-2 -4 19 1.8657 -0.0033
-2 -4 20 4.9505 0.0847
-2 -4 21 -1.2155 -0.1000
-2 -4 22 0.9558 -0.0265
-2 -4 23 1.9061 0.0801
-2 -4 24 -0.4257 0.0274
-2 -4 25 -3.2309 -0.0725
-2 -4 26 -4.9329 -0.0541
-2 -4 27 -2.0405 0.0348
-2 -4 28 -2.5943 0.0764
-2 -3 1 1.9651 0.0227
-2 -3 2 34.7286 -0.2128
-2 -3 3 -30.7074 0.5723
-2 -3 4 -28.8208 -0.5632
-2 -3 5 16.9923 0.0629
-2 -3 6 13.7734 0.0636
-2 -3 7 1.7415 -0.0366
-2 -3 8 1.0717 0.0671
-2 -3 9 -5.7445 -0.1184
-2 -3 10 -0.3218 0.2155
-2 -3 11 4.4923 0.0082
-2 -3 12 -0.8311 -0.1263
-2 -3 13 8.0014 0.0726
-2 -3 14 -4.7887 0.0430
-2 -3 15 -6.5154 -0.0464
-2 -3 16 -4.5658 -0.0630
-2 -3 17 -4.2227 0.0673
-2 -3 18 3.0422 -0.0023
-2 -3 19 1.7783 -0.0019
-2 -3 20 -1.4408 -0.0191
-2 -3 21 5.2427 0.0839
-2 -3 22 0.0568 -0.0666
-2 -3 23 -1.8815 0.0079
-2 -3 24 0.2908 0.0419
-2 -3 25 -2.6437 -0.0886
-2 -3 26 -1.7436 -0.0780
-2 -3 27 -6.1817 0.0358
-2 -3 28 -3.7834 0.0984
-2 -3 29 -4.6928 0.0809
-2 -2 1 -4.0336 0.1080
-2 -2 2 -2.1744 0.1821
-2 -2 3 7.1675 -0.5337
-2 -2 4 -9.0203 0.5139
-2 -2 5 -2.3637 -0.5546
-2 -2 6 24.6389 0.0466
-2 -2 7 5.1197 0.2217
-2 -2 8 -14.6845 -0.1407
-2 -2 9 10.3504 0.1024
-2 -2 10 10.6403 0.0119
-2 -2 11 -3.5223 0.1533
-2 -2 12 3.4003 -0.0645
-2 -2 13 -3.5022 -0.0597
-2 -2 14 6.9716 0.0880
-2 -2 15 0.0363 0.0098
-2 -2 16 -9.3657 -0.1089
-2 -2 17 -5.8688 -0.0112
-2 -2 18 -5.4272 0.0789
-2 -2 19 2.6131 -0.0838
-2 -2 20 5.7569 -0.0072
-2 -2 21 -2.9061 -0.0059
-2 -2 22 0.9870 0.0704
-2 -2 23 -1.4183 -0.0648
-2 -2 24 -4.6320 -0.0586
-2 -2 25 1.0397 0.0196
-2 -2 26 -3.4613 0.0127
-2 -2 27 -2.1053 0.0258
-2 -2 28 -6.0390 -0.0321
-2 -2 29 -2.8236 -0.0496
-2 -1 2 26.5241 -0.5786
-2 -1 3 32.1502 0.3328
-2 -1 4 3.7340 -0.3280
-2 -1 5 -8.9552 0.4824
-2 -1 6 -9.3814 -0.4108
-2 -1 7 7.0179 -0.0450
-2 -1 8 17.8100 0.2611
-2 -1 9 3.0270 -0.2323
-2 -1 10 6.8951 0.0694
-2 -1 11 5.6549 0.0298
-2 -1 12 -13.6459 0.0667
-2 -1 13 6.5918 -0.0596
-2 -1 14 6.0331 0.0439
-2 -1 15 2.6381 0.0400
-2 -1 16 -3.6223 -0.0263
-2 -1 17 -13.2256 -0.0778
-2 -1 18 -1.1431 0.0405
-2 -1 19 1.4215 0.0662
-2 -1 20 -0.9858 -0.1337
-2 -1 21 0.9241 0.0057
-2 -1 22 -6.3043 -0.0041
-2 -1 23 -0.3516 -0.0257
-2 -1 24 3.6781 -0.0427
-2 -1 25 -5.6751 0.0249
-2 -1 26 -2.8174 0.0732
-2 -1 27 -2.9089 0.0326
-2 -1 28 2.0204 -0.0611
-2 -1 29 -1.2515 -0.1250
-2 0 1 44.8225 0.0917
-2 0 2 20.9240 0.5731
-2 0 3 31.9303 -0.7377
-2 0 4 1.2181 0.6031
-2 0 5 -31.2116 -0.0132
-2 0 6 -6.0081 0.2001
-2 0 7 22.9366 -0.2747
-2 0 8 8.3346 -0.0726
-2 0 9 8.7320 0.1836
-2 0 10 -4.1224 -0.2765
-2 0 11 -8.3510 0.0689
-2 0 12 14.2506 0.0423
-2 0 13 -3.4207 0.0137
-2 0 14 -0.3283 -0.0678
-2 0 15 2.2744 0.0937
-2 0 16 -2.4768 0.0155
-2 0 17 2.5692 -0.0033
-2 0 18 -5.7899 -0.0315
-2 0 19 -3.6184 0.0394
-2 0 20 -1.8419 0.0386
-2 0 21 -5.6183 -0.1263
-2 0 22 2.9949 0.0083
-2 0 23 -0.9004 0.0092
-2 0 24 -1.9541 -0.0539
-2 0 25 2.7737 -0.0112
-2 0 26 -6.5349 0.0434
-2 0 27 -2.2810 -0.0243
-2 0 28 3.3604 0.0484
-2 1 1 82.4333 -0.7571
-2 1 2 40.6416 0.2593
-2 1 3 -6.8473 0.7110
-2 1 4 -2.2522 -0.7157
-2 1 5 5.5865 0.4927
-2 1 6 -3.6252 0.0851
-2 1 7 -7.2951 -0.0130
-2 1 8 8.6457 -0.0727
-2 1 9 -5.0771 -0.0221
-2 1 10 1.5877 0.0890
-2 1 11 10.3378 -0.2330
-2 1 12 -11.0614 0.0786
-2 1 13 4.9587 -0.0112
-2 1 14 -1.7268 -0.0273
-2 1 15 -3.6803 -0.0537
-2 1 16 10.2365 0.1400
-2 1 17 0.3384 -0.0104
-2 1 18 -2.7204 -0.0111
-2 1 19 -9.2108 -0.0130
-2 1 20 -5.6114 0.0334
-2 1 21 6.8680 0.0167
-2 1 22 0.6788 -0.0802
-2 1 23 0.4931 0.0154
-2 1 24 -2.8747 -0.0107
-2 1 25 -4.1767 -0.0942
-2 1 26 3.8706 -0.0666
-2 1 27 -2.1712 0.0729
-2 1 28 -0.5141 0.0054
-2 2 1 -0.1104 -0.5974
-2 2 2 24.6151 -0.0350
-2 2 3 22.8006 0.2292
-2 2 4 13.5581 0.3943
-2 2 5 15.2558 -0.6055
-2 2 6 -9.9890 0.3634
-2 2 7 -22.9089 0.0962
-2 2 8 -25.3738 -0.0737
-2 2 9 15.2825 0.0728
-2 2 10 16.9800 0.0148
-2 2 11 -10.6075 0.0235
-2 2 12 -0.4291 -0.1954
-2 2 13 -12.7935 0.0755
-2 2 14 4.1603 -0.0350
-2 2 15 12.9066 -0.0182
-2 2 16 -4.0471 -0.0698
-2 2 17 0.0981 0.1342
-2 2 18 -4.4013 -0.0328
-2 2 19 -3.2264 -0.0080
-2 2 20 1.1674 0.0027
-2 2 21 -0.0455 0.0026
-2 2 22 7.1161 -0.0186
-2 2 23 -1.4412 -0.0343
-2 2 24 -2.9451 0.0112
-2 2 25 1.0918 -0.0649
-2 2 26 -3.4719 -0.0527
-2 2 27 0.3621 -0.0478
-2 2 28 1.4844 0.0953
-2 3 1 3.0844 -0.1821
-2 3 2 -13.9750 -0.5482
-2 3 3 33.9908 0.0888
-2 3 4 35.4349 0.0586
-2 3 5 -8.8731 0.2589
-2 3 6 -15.0622 -0.3806
-2 3 7 -21.8828 0.1765
-2 3 8 -8.4941 0.0067
-2 3 9 -7.9510 -0.0291
-2 3 10 5.6968 0.1266
-2 3 11 10.3782 -0.0397
-2 3 12 -18.4096 0.0053
-2 3 13 3.3600 -0.1182
-2 3 14 3.2241 0.1056
-2 3 15 -3.1139 -0.0564
-2 3 16 6.4543 -0.0150
-2 3 17 -6.7390 -0.0720
-2 3 18 -2.4051 0.1375
-2 3 19 3.4197 -0.0460
-2 3 20 0.8340 -0.0372
-2 3 21 2.3181 0.0120
-2 3 22 -3.7016 0.0025
-2 3 23 2.9815 -0.0239
-2 3 24 2.5711 -0.0178
-2 3 25 0.2815 0.0212
-2 3 26 1.3953 -0.0670
-2 3 27 -8.2541 0.0356
-2 3 28 -2.7039 -0.0503
-2 4 1 8.6144 1.0521
-2 4 2 18.1624 -0.3695
-2 4 3 -1.9698 -0.4749
-2 4 4 1.8244 0.2355
-2 4 5 11.7546 -0.0616
-2 4 6 -15.6904 0.1038
-2 4 7 -6.2396 -0.2936
-2 4 8 -15.3802 0.1220
-2 4 9 -14.0685 0.0286
-2 4 10 -3.6391 -0.0645
-2 4 11 0.6218 0.0430
-2 4 12 14.4977 -0.0538
-2 4 13 -12.3996 0.1073
-2 4 14 -4.3774 -0.0507
-2 4 15 5.6284 0.0830
-2 4 16 -5.0539 -0.0695
-2 4 17 3.7618 0.0295
-2 4 18 -1.4323 -0.0564
-2 4 19 -4.1357 0.0832
-2 4 20 2.4507 -0.0319
-2 4 21 0.6645 -0.0042
-2 4 22 1.7160 0.0417
-2 4 23 -4.1139 -0.0184
-2 4 24 0.1211 -0.0582
-2 4 25 6.4067 -0.0203
-2 4 26 1.5135 0.0915
-2 4 27 -2.9992 -0.0257
-2 4 28 -11.4838 0.0698
-2 4 29 -0.8383 -0.0457
-2 4 30 13.6351 -0.0036
-2 5 1 22.5221 0.0503
-2 5 2 -10.2626 0.9429
-2 5 3 -1.1936 -0.1794
-2 5 4 4.8092 -0.3916
-2 5 5 0.5085 0.1817
-2 5 6 11.2686 -0.2292
-2 5 7 -17.6309 0.0839
-2 5 8 -18.9035 -0.1183
-2 5 9 -10.5337 0.1016
-2 5 10 -1.9646 -0.0229
-2 5 11 7.7038 -0.1270
-2 5 12 -7.4387 0.0850
-2 5 13 2.7423 0.0140
-2 5 14 -4.9051 0.1038
-2 5 15 -2.0037 -0.0887
-2 5 16 8.8430 0.0718
-2 5 17 -6.2897 -0.0243
-2 5 18 -3.9169 0.0477
-2 5 19 1.3312 -0.0442
-2 5 20 -3.6644 0.0524
-2 5 21 -1.2498 0.0112
-2 5 22 0.8680 -0.0204
-2 5 23 3.4420 -0.0170
-2 5 24 -2.9071 -0.0259
-2 5 25 -2.8494 -0.0123
-2 5 26 6.2709 0.0087
-2 5 27 -0.5033 0.1423
-2 5 28 -6.6955 -0.0293
-2 5 29 -8.5786 0.0478
-2 5 30 2.1229 -0.0092
-2 6 1 -15.0980 -0.0188
-2 6 2 -2.9733 0.1402
-2 6 3 -3.6640 0.8094
-2 6 4 7.1720 -0.1189
-2 6 5 16.1867 -0.4421
-2 6 6 -9.3706 0.2708
-2 6 7 -4.4902 -0.1474
-2 6 8 -8.5373 0.0309
-2 6 9 -7.3928 -0.0939
-2 6 10 0.4919 0.0724
-2 6 11 -6.0340 0.0335
-2 6 12 -0.2790 -0.0748
-2 6 13 -4.6130 0.0749
-2 6 14 6.9929 -0.0531
-2 6 15 2.0716 0.0270
-2 6 16 -7.2155 -0.0546
-2 6 17 0.8819 0.1083
-2 6 18 -3.3687 0.0044
-2 6 19 -1.4590 -0.0021
-2 6 20 1.5084 -0.0466
-2 6 21 -7.1259 0.0147
-2 6 22 -4.5996 -0.0195
-2 6 23 6.3253 -0.0382
-2 6 24 8.1165 0.0048
-2 6 25 -3.7385 0.0318
-2 6 26 -8.3171 0.0260
-2 6 27 2.8545 -0.0246
-2 6 28 -1.6992 0.1327
-2 6 29 -5.7520 -0.0308
-2 6 30 -3.4803 0.0827
-2 7 1 3.4898 -1.3744
-2 7 2 -6.4060 -0.0543
-2 7 3 -4.4808 0.1229
-2 7 4 -0.4947 0.4374
-2 7 5 -1.7546 0.0050
-2 7 6 14.3833 -0.2562
-2 7 7 3.2268 0.3478
-2 7 8 0.2592 -0.1359
-2 7 9 -2.5172 -0.0659
-2 7 10 -7.3487 -0.0538
-2 7 11 -1.1925 0.0847
-2 7 12 -3.1179 0.0229
-2 7 13 4.0228 -0.0745
-2 7 14 0.4806 0.0252
-2 7 15 0.8224 -0.0588
-2 7 16 -0.7554 0.0300
-2 7 17 -5.5702 0.0023
-2 7 18 0.1264 0.0688
-2 7 19 -0.8894 -0.0423
-2 7 20 -1.9213 -0.0558
-2 7 21 -0.2009 -0.0217
-2 7 22 -4.3174 0.0335
-2 7 23 -0.4330 -0.0420
-2 7 24 8.1386 -0.0062
-2 7 25 5.5720 0.0597
-2 7 26 -5.7452 0.0290
-2 7 27 -10.4321 0.0316
-2 7 28 0.0935 -0.0220
-2 7 29 -0.5556 0.1841
-2 7 30 -0.0047 0.0540
-2 8 1 -5.4135 0.5253
-2 8 2 7.4466 -1.5289
-2 8 3 -5.6403 -0.1756
-2 8 4 -17.1023 0.2201
-2 8 5 3.2207 0.1331
-2 8 6 11.6116 0.0534
-2 8 7 19.7277 -0.0881
-2 8 8 4.6333 0.3057
-2 8 9 -5.7107 -0.1141
-2 8 10 0.8674 -0.0829
-2 8 11 2.0306 -0.1088
-2 8 12 0.5726 0.0429
-2 8 13 -4.5492 0.0192
-2 8 14 2.7492 -0.0119
-2 8 15 2.6718 0.0251
-2 8 16 0.5154 -0.0197
-2 8 17 -1.2937 0.0168
-2 8 18 -6.4827 -0.0022
-2 8 19 -1.7095 0.0304
-2 8 20 3.5574 -0.0372
-2 8 21 2.8841 0.0020
-2 8 22 0.6366 0.0051
-2 8 23 -3.5202 0.0340
-2 8 24 -1.3521 -0.0363
-2 8 25 4.5187 0.0479
-2 8 26 2.4921 0.0679
-2 8 27 -4.3411 -0.0390
-2 8 28 -8.2820 0.1030
-2 8 29 1.7611 0.1213
-2 9 1 -0.7903 0.9853
-2 9 2 -10.1489 0.3858
-2 9 3 3.8688 -1.1728
-2 9 4 4.3756 -0.1450
-2 9 5 -12.2254 0.1409
-2 9 6 4.8018 -0.1704
-2 9 7 13.8919 0.0657
-2 9 8 13.5988 0.0602
-2 9 9 3.9367 0.1795
-2 9 10 -2.2187 -0.1548
-2 9 11 1.8690 -0.0053
-2 9 12 1.0257 -0.0996
-2 9 13 1.1547 0.0411
-2 9 14 1.0353 0.0015
-2 9 15 3.6104 0.0185
-2 9 16 -0.7525 0.0471
-2 9 17 -3.8447 0.0241
-2 9 18 -1.9347 -0.0033
-2 9 19 -0.3682 0.0004
-2 9 20 3.9035 0.0917
-2 9 21 5.0094 -0.0218
-2 9 22 -1.1452 0.0309
-2 9 23 -2.5459 -0.0068
-2 9 24 -2.6175 0.0555
-2 9 25 -2.8460 0.0102
-2 9 26 0.7205 -0.0275
-2 9 27 2.0776 -0.0475
-2 9 28 1.0199 -0.0150
-2 10 1 -9.9961 0.6403
-2 10 2 -3.4049 1.0438
-2 10 3 -2.0968 0.3132
-2 10 4 4.8840 -0.7598
-2 10 5 2.8736 -0.1917
-2 10 6 -13.4429 0.0143
-2 10 7 5.3763 -0.2015
-2 10 8 13.8580 0.0522
-2 10 9 3.2331 -0.0035
-2 10 10 -3.3143 0.0719
-2 10 11 -1.7853 -0.0676
-2 10 12 5.4071 0.1563
-2 10 13 5.1594 -0.0974
-2 10 14 4.1524 -0.0321
-2 10 15 -1.6921 -0.0260
-2 10 16 -4.9713 0.0719
-2 10 17 -1.6024 0.0786
-2 10 18 1.9733 -0.0079
-2 10 19 2.4530 -0.0114
-2 10 20 1.9396 0.0145
-2 10 21 1.0975 0.1463
-2 10 22 -0.9673 -0.0592
-2 10 23 -3.7490 0.0221
-2 10 24 -1.5362 -0.0042
-2 10 25 -1.7279 0.0102
-2 10 26 -4.3205 -0.0544
-2 10 27 0.6480 -0.1780
-2 10 28 4.2458 -0.0899
-2 11 1 -6.6729 -0.8093
-2 11 2 -11.3678 0.6548
-2 11 3 -5.8960 0.8326
-2 11 4 -0.9030 0.0726
-2 11 5 0.5508 -0.3342
-2 11 6 0.7546 0.0161
-2 11 7 -9.7442 -0.0360
-2 11 8 -1.4052 -0.2382
-2 11 9 -0.6088 -0.0309
-2 11 10 -6.6645 -0.0329
-2 11 11 2.6770 0.1067
-2 11 12 6.4629 0.0008
-2 11 13 4.5195 0.1621
-2 11 14 0.8227 -0.0878
-2 11 15 -0.6085 -0.0501
-2 11 16 -3.6258 -0.0282
-2 11 17 -4.0943 0.0591
-2 11 18 2.5144 0.0400
-2 11 19 3.8353 -0.0936
-2 11 20 0.0870 0.0273
-2 11 21 -0.7334 0.0181
-2 11 22 -1.8347 0.1050
-2 11 23 -2.9775 -0.1180
-2 11 24 -1.5449 -0.0246
-2 11 25 0.4008 -0.0008
-2 11 26 -1.9448 -0.0596
-2 11 27 -3.3214 -0.1461
-2 12 1 -17.8607 -1.1650
-2 12 2 -8.1192 -0.5816
-2 12 3 -11.2326 0.2884
-2 12 4 -3.0637 0.5438
-2 12 5 2.0954 0.1077
-2 12 6 -7.5451 0.0647
-2 12 7 -7.9446 0.1529
-2 12 8 -9.6860 -0.1547
-2 12 9 -4.9275 -0.2161
-2 12 10 -2.9924 0.0232
-2 12 11 -5.2201 -0.0021
-2 12 12 7.1634 0.0369
-2 12 13 5.5917 -0.0273
-2 12 14 -1.3082 0.1407
-2 12 15 -0.6341 -0.0149
-2 12 16 -2.3874 -0.0643
-2 12 17 -2.7660 -0.0666
-2 12 18 -1.5554 -0.0080
-2 12 19 2.4634 0.0081
-2 12 20 0.7616 -0.1353
-2 12 21 -1.3065 0.0422
-2 12 22 -1.9591 -0.0386
-2 12 23 -1.2976 -0.0136
-2 12 24 0.8689 -0.0793
-2 12 25 1.5518 0.0138
-2 12 26 0.4552 0.0242
-2 12 27 -3.2472 -0.1366
-2 13 1 -6.7457 0.2100
-2 13 2 -12.9092 -1.1119
-2 13 3 -4.2477 -0.3370
-2 13 4 -7.0120 0.1386
-2 13 5 -5.1055 0.3393
-2 13 6 -3.6325 0.1054
-2 13 7 -11.0483 0.1562
-2 13 8 -4.1934 0.2045
-2 13 9 -0.8776 -0.1301
-2 13 10 -4.4480 -0.0919
-2 13 11 -3.8648 0.0288
-2 13 12 -3.2927 -0.0395
-2 13 13 7.6855 -0.0612
-2 13 14 4.8476 -0.0051
-2 13 15 -5.5481 0.1300
-2 13 16 -0.6060 0.0046
-2 13 17 -0.3684 -0.0891
-2 13 18 -1.0247 -0.0525
-2 13 19 -3.8191 -0.0336
-2 13 20 -2.1531 -0.0223
-2 13 21 -0.6780 -0.1537
-2 13 22 3.3523 -0.0234
-2 13 23 1.8447 -0.0547
-2 13 24 0.0625 -0.0125
-2 13 25 3.9502 0.0840
-2 14 1 -4.0831 0.5831
-2 14 2 3.6491 0.2738
-2 14 3 -13.4496 -0.8140
-2 14 4 -8.9311 -0.0642
-2 14 5 -3.5126 0.0639
-2 14 6 -0.6980 0.0543
-2 14 7 2.1470 0.0372
-2 14 8 -4.7877 0.1523
-2 14 9 -1.9451 0.2379
-2 14 10 1.6210 -0.0707
-2 14 11 -2.3202 -0.0189
-2 14 12 -0.7775 -0.0515
-2 14 13 0.0227 -0.0347
-2 14 14 5.1687 -0.0328
-2 14 15 4.2584 0.0242
-2 14 16 -5.6557 0.0494
-2 14 17 0.8543 0.0094
-2 14 18 -0.1839 -0.0034
-2 14 19 -5.3783 0.0179
-2 14 20 -9.5241 -0.0651
-2 14 21 0.5340 -0.1134
-2 14 22 6.8139 -0.1233
-2 15 1 10.5957 0.0417
-2 15 2 -4.8003 0.2911
-2 15 3 -0.9737 0.3509
-2 15 4 -10.6101 -0.4949
-2 15 5 -2.0523 0.0361
-2 15 6 4.9178 0.0340
-2 15 7 2.4975 -0.1055
-2 15 8 4.4048 -0.0116
-2 15 9 -2.8946 0.0626
-2 15 10 -2.6483 0.1810
-2 15 11 2.9324 -0.0410
-2 15 12 2.0575 0.0159
-2 15 13 2.5248 -0.0865
-2 15 14 3.9806 0.0645
-2 15 15 2.4726 0.0673
-2 15 16 0.3029 0.0063
-2 15 17 -7.5002 -0.0040
-2 15 18 0.0206 0.1085
-2 15 19 -1.1500 0.1240
-2 15 20 -6.2191 -0.0223
-2 15 21 -7.1633 -0.1040
-2 16 1 1.2132 -0.1557
-2 16 2 9.2243 -0.1300
-2 16 3 -4.8205 0.0405
-2 16 4 1.8481 0.3879
-2 16 5 -2.2842 -0.1900
-2 16 6 -2.8910 0.0316
-2 16 7 1.9732 0.0410
-2 16 8 2.7142 -0.1060
-2 16 9 5.6608 -0.0836
-2 16 10 -4.8112 -0.1124
-2 16 11 -3.1753 0.0807
-2 16 12 6.4025 0.0155
-2 16 13 6.4024 0.0838
-2 16 14 2.0883 0.0052
-2 16 15 1.0222 0.2247
-2 16 16 -3.6818 0.1586
-2 16 17 -2.9836 -0.0205
-2 16 18 -3.8453 -0.0033
-2 16 19 2.7611 0.1729
-2 16 20 -1.7714 0.1845
-2 17 1 9.7891 0.0636
-2 17 2 2.8410 -0.5657
-2 17 3 8.3055 -0.3234
-2 17 4 -6.4191 0.1150
-2 17 5 -0.9506 0.5382
-2 17 6 -2.2779 -0.0153
-2 17 7 -7.7946 -0.1111
-2 17 8 0.0562 0.0237
-2 17 9 3.1175 -0.0277
-2 17 10 4.7548 -0.1788
-2 17 16 1.6699 0.3145
-2 17 17 -1.8961 0.1008
-2 17 18 -1.0597 -0.0857
-2 18 1 4.3022 0.5373
-1 -18 1 -3.5603 -0.1553
-1 -18 2 -9.6958 0.0527
-1 -17 1 7.7327 -0.0642
-1 -17 2 -2.8166 -0.0195
-1 -17 3 -8.9650 0.2337
-1 -16 1 4.5907 -0.7951
-1 -16 2 12.6375 0.0625
-1 -16 3 -3.3589 0.1366
-1 -16 4 -9.5134 0.1082
-1 -16 5 -5.5449 0.1360
-1 -16 6 -9.2260 -0.0853
-1 -16 7 3.8056 -0.0010
-1 -15 1 2.8016 0.1806
-1 -15 2 7.8983 -0.7280
-1 -15 3 4.5290 0.0155
-1 -15 4 -4.4309 0.0623
-1 -15 5 -4.3513 -0.1098
-1 -15 6 -0.0778 0.1123
-1 -15 7 -9.8196 0.0390
-1 -15 8 -0.8609 0.1227
-1 -15 9 3.5716 0.0141
-1 -15 10 -0.4645 0.0150
-1 -14 1 -9.1305 1.1036
-1 -14 2 3.8193 0.1332
-1 -14 3 6.9056 -0.6756
-1 -14 4 -0.2390 -0.0313
-1 -14 5 -1.8007 0.0598
-1 -14 6 -2.1566 -0.2064
-1 -14 7 -2.0323 0.1193
-1 -14 8 -9.8318 0.1256
-1 -14 9 -4.6411 0.0932
-1 -14 10 4.5342 -0.0593
-1 -14 11 1.5373 -0.0532
-1 -14 12 6.1557 -0.0134
-1 -14 13 0.5163 -0.1130
-1 -13 1 -5.9483 0.7829
-1 -13 2 -3.1474 0.8253
-1 -13 3 4.3846 0.0405
-1 -13 4 1.2827 -0.3782
-1 -13 5 -4.1060 0.0286
-1 -13 6 -1.1233 0.0058
-1 -13 7 -0.4555 -0.2959
-1 -13 8 -2.8659 0.0786
-1 -13 9 -6.8225 0.0655
-1 -13 10 -4.8597 -0.0218
-1 -13 11 5.3238 -0.0523
-1 -13 12 1.7638 0.0389
-1 -13 13 2.2783 0.0024
-1 -13 14 1.4233 -0.1560
-1 -13 15 -3.0533 -0.0928
-1 -12 1 1.0906 -0.5705
-1 -12 2 -3.6306 0.7005
-1 -12 3 -4.1858 0.5942
-1 -12 4 -0.9338 0.0221
-1 -12 5 1.6458 -0.0967
-1 -12 6 2.0857 0.0210
-1 -12 7 -1.1099 -0.0792
-1 -12 8 -1.5194 -0.3069
-1 -12 9 -2.0260 0.0522
-1 -12 10 -1.9112 -0.0063
-1 -12 11 -1.5819 -0.0135
-1 -12 12 2.3229 0.0763
-1 -12 13 -0.5799 0.0667
-1 -12 14 1.1457 -0.1127
-1 -12 15 3.8300 -0.1856
-1 -12 16 -2.8213 -0.1405
-1 -12 17 -7.4787 0.0871
-1 -11 1 -6.7118 -1.2053
-1 -11 2 -3.3462 -0.2354
-1 -11 3 -0.0282 0.5857
-1 -11 4 1.9329 0.2566
-1 -11 5 5.1008 -0.0523
-1 -11 6 2.5793 0.1025
-1 -11 7 -0.2997 0.0365
-1 -11 8 -2.3337 -0.0419
-1 -11 9 3.6437 -0.1698
-1 -11 10 4.7806 0.0615
-1 -11 11 -0.9937 -0.0704
-1 -11 12 -3.2292 -0.0269
-1 -11 13 -2.1557 0.0918
-1 -11 14 -0.8930 0.0135
-1 -11 15 2.4439 -0.1047
-1 -11 16 2.2080 0.0014
-1 -11 17 -3.0343 -0.0013
-1 -11 18 -4.4188 0.0666
-1 -11 19 1.2402 0.0570
-1 -10 1 -2.4782 -0.2861
-1 -10 2 -6.1577 -0.9776
-1 -10 3 3.3797 -0.0549
-1 -10 4 9.0677 0.3571
-1 -10 5 2.6449 -0.0377
-1 -10 6 2.0823 -0.0233
-1 -10 7 1.2328 0.2948
-1 -10 8 3.9287 0.0826
-1 -10 9 5.8125 0.0225
-1 -10 10 4.2759 -0.0885
-1 -10 11 1.1142 -0.0544
-1 -10 12 -4.7091 -0.1181
-1 -10 13 -3.3483 -0.0034
-1 -10 14 -1.8825 0.0854
-1 -10 15 -1.3785 0.0290
-1 -10 16 2.2845 0.0261
-1 -10 17 1.6844 0.1144
-1 -10 18 0.5496 0.0096
-1 -10 19 1.3828 -0.0955
-1 -10 20 1.8401 0.0091
-1 -10 21 1.4006 -0.1068
-1 -9 1 8.2544 0.4892
-1 -9 2 -5.1079 -0.3672
-1 -9 3 -4.5550 -0.7177
-1 -9 4 2.2556 0.0804
-1 -9 5 9.1569 0.2074
-1 -9 6 5.3146 -0.1637
-1 -9 7 4.4648 0.0392
-1 -9 8 4.4167 0.3168
-1 -9 9 2.8693 -0.0147
-1 -9 10 4.1204 -0.0243
-1 -9 11 -1.2514 0.0009
-1 -9 12 -0.8873 -0.0653
-1 -9 13 -2.5452 -0.0607
-1 -9 14 -3.6351 -0.0152
-1 -9 15 -1.6143 -0.0069
-1 -9 16 -1.5605 0.0448
-1 -9 17 1.9738 0.1034
-1 -9 18 3.5082 0.0371
-1 -9 19 4.3504 -0.0169
-1 -9 20 4.0047 -0.0835
-1 -9 21 -1.1076 0.0597
-1 -9 22 -4.0006 -0.0091
-1 -9 23 -4.6354 0.0323
-1 -9 24 2.7662 0.0447
-1 -8 1 -1.9225 0.5335
-1 -8 2 2.9713 0.3781
-1 -8 3 -9.3922 -0.2819
-1 -8 4 2.7875 -0.3710
-1 -8 5 6.9079 0.0997
-1 -8 6 7.6524 0.0415
-1 -8 7 3.9533 -0.1949
-1 -8 8 0.0963 0.0202
-1 -8 9 4.7456 0.1714
-1 -8 10 2.6606 -0.0365
-1 -8 11 1.4139 0.0261
-1 -8 12 -4.9923 0.1139
-1 -8 13 -2.1541 -0.0855
-1 -8 14 0.3798 -0.0780
-1 -8 15 -2.3772 -0.0379
-1 -8 16 -0.2226 -0.0400
-1 -8 17 -0.9153 0.0430
-1 -8 18 1.5432 0.0770
-1 -8 19 5.4937 -0.0432
-1 -8 20 4.8884 0.0322
-1 -8 21 0.0852 -0.0008
-1 -8 22 -4.1816 0.0054
-1 -8 23 -3.9735 -0.0088
-1 -8 24 0.6082 0.0041
-1 -8 25 5.2067 -0.0076
-1 -7 1 -4.1633 -0.3003
-1 -7 2 -3.2306 0.5373
-1 -7 3 14.3036 0.3533
-1 -7 4 -3.1059 -0.2283
-1 -7 5 0.6007 -0.1896
-1 -7 6 0.1094 0.0668
-1 -7 7 1.3882 -0.0290
-1 -7 8 9.2176 -0.1323
-1 -7 9 2.9806 0.0278
-1 -7 10 3.0505 0.0642
-1 -7 11 -2.5277 0.0310
-1 -7 12 -4.9601 -0.0024
-1 -7 13 -2.6273 0.0919
-1 -7 14 2.5103 -0.0288
-1 -7 15 4.0318 -0.0364
-1 -7 16 -1.4423 -0.0422
-1 -7 17 -0.4099 -0.0587
-1 -7 18 -0.0193 0.0096
-1 -7 19 0.1539 0.0379
-1 -7 20 1.6951 -0.0470
-1 -7 21 2.3563 0.0453
-1 -7 22 -0.4704 0.0367
-1 -7 23 -0.2329 -0.0099
-1 -7 24 -0.4377 -0.0050
-1 -7 25 0.3975 0.0238
-1 -7 26 1.5164 -0.0563
-1 -6 1 -1.7385 -0.3535
-1 -6 2 22.4516 -0.4121
-1 -6 3 -3.0445 0.3391
-1 -6 4 4.6985 0.2919
-1 -6 5 -7.2992 -0.1130
-1 -6 6 1.5979 -0.0474
-1 -6 7 8.6568 0.1031
-1 -6 8 2.2626 -0.0029
-1 -6 9 5.6343 -0.0865
-1 -6 10 -3.6673 0.0274
-1 -6 11 -2.6988 -0.0373
-1 -6 12 0.5725 0.0649
-1 -6 13 0.1119 -0.0245
-1 -6 14 1.4740 0.0626
-1 -6 15 2.8816 0.0417
-1 -6 16 3.2968 -0.0485
-1 -6 17 -0.8872 -0.0474
-1 -6 18 -1.3554 0.0162
-1 -6 19 -2.2127 0.0033
-1 -6 20 -1.8535 -0.0509
-1 -6 21 0.1791 -0.0328
-1 -6 22 3.9143 0.0717
-1 -6 23 1.0675 0.0314
-1 -6 24 -0.2636 -0.0541
-1 -6 25 -0.0517 -0.0473
-1 -6 26 -0.7383 0.0908
-1 -5 1 0.1989 0.5956
-1 -5 2 -16.8372 -0.6634
-1 -5 3 21.5224 -0.5652
-1 -5 4 -3.9711 0.3689
-1 -5 5 10.5304 0.3052
-1 -5 6 4.4747 -0.0797
-1 -5 7 -4.5424 -0.0348
-1 -5 8 -1.2057 0.1522
-1 -5 9 -4.2349 0.0297
-1 -5 10 5.1670 -0.1427
-1 -5 11 2.4392 0.0330
-1 -5 12 -2.0606 -0.0316
-1 -5 13 1.4874 0.0530
-1 -5 14 2.1928 -0.0853
-1 -5 15 1.0529 -0.0064
-1 -5 16 2.3422 0.1000
-1 -5 17 0.7388 0.0028
-1 -5 18 -3.0245 -0.0271
-1 -5 19 -1.3932 0.0334
-1 -5 20 -0.0199 -0.0316
-1 -5 21 -0.2767 -0.0926
-1 -5 22 -1.3949 0.0191
-1 -5 23 0.3487 0.0408
-1 -5 24 2.0977 -0.0637
-1 -5 25 2.1110 -0.0293
-1 -5 26 2.3255 0.0819
-1 -5 27 -0.2992 0.1253
-1 -4 1 -15.7536 0.6354
-1 -4 2 0.6946 0.6034
-1 -4 3 -7.8593 -0.6049
-1 -4 4 36.4414 -0.4890
-1 -4 5 1.6350 0.4007
-1 -4 6 -9.2884 0.0508
-1 -4 7 -8.6765 -0.1782
-1 -4 8 -11.0340 0.0231
-1 -4 9 4.6187 0.1901
-1 -4 10 6.0812 -0.0065
-1 -4 11 1.5385 -0.1827
-1 -4 12 -2.7645 0.1022
-1 -4 13 -3.3747 -0.0098
-1 -4 14 3.7918 -0.0546
-1 -4 15 6.6074 -0.0852
-1 -4 16 -2.4839 0.0572
-1 -4 17 -3.6303 0.0977
-1 -4 18 0.5875 -0.0578
-1 -4 19 1.7603 -0.0478
-1 -4 20 1.2230 0.0714
-1 -4 21 -1.1865 0.0097
-1 -4 22 -3.8293 -0.1232
-1 -4 23 -0.5567 0.0080
-1 -4 24 2.2738 0.0547
-1 -4 25 6.1588 0.0074
-1 -4 26 4.0302 0.0375
-1 -4 27 1.7048 0.0581
-1 -3 1 6.0101 0.3508
-1 -3 2 -25.0766 0.9366
-1 -3 3 36.7807 0.6298
-1 -3 4 -6.6612 -0.4976
-1 -3 5 -3.1816 -0.5360
-1 -3 6 -11.2650 0.3331
-1 -3 7 -5.9806 -0.1701
-1 -3 8 3.7266 -0.2068
-1 -3 9 -8.6365 0.0812
-1 -3 10 -4.4856 0.1662
-1 -3 11 1.7566 -0.0125
-1 -3 12 -1.0505 -0.1180
-1 -3 13 -0.3475 0.1390
-1 -3 14 3.7984 -0.0221
-1 -3 15 0.6286 -0.0822
-1 -3 16 3.2764 -0.0116
-1 -3 17 -3.3108 0.0643
-1 -3 18 -2.3162 -0.0397
-1 -3 19 4.1933 -0.0935
-1 -3 20 2.0357 0.0478
-1 -3 21 -3.4974 0.0628
-1 -3 22 0.2105 -0.0254
-1 -3 23 0.9112 -0.0725
-1 -3 24 3.5111 0.1315
-1 -3 25 2.4897 0.0721
-1 -3 26 5.2341 -0.0598
-1 -3 27 7.7712 -0.0557
-1 -3 28 2.3203 0.0679
-1 -2 1 -14.0243 -0.9251
-1 -2 2 -3.3941 0.7365
-1 -2 3 -38.6414 0.9685
-1 -2 4 29.1301 0.1911
-1 -2 5 -2.5149 -0.3528
-1 -2 6 -10.4739 -0.3715
-1 -2 7 5.0919 0.3193
-1 -2 8 -3.3280 -0.3021
-1 -2 9 -15.0702 -0.1801
-1 -2 10 -14.2115 0.1520
-1 -2 11 -0.0672 0.1467
-1 -2 12 8.6213 -0.0319
-1 -2 13 0.0854 -0.0684
-1 -2 14 -6.0275 0.1478
-1 -2 15 8.2719 -0.0207
-1 -2 16 3.5954 -0.0620
-1 -2 17 1.8584 0.0148
-1 -2 18 -4.1899 0.0297
-1 -2 19 -4.6817 -0.1034
-1 -2 20 3.3399 -0.0811
-1 -2 21 6.2278 0.0853
-1 -2 22 -1.4200 0.0046
-1 -2 23 2.5640 0.0138
-1 -2 24 1.0240 0.0278
-1 -2 25 1.1350 0.0758
-1 -2 26 5.3200 -0.1057
-1 -2 27 6.6826 -0.0214
-1 -2 28 9.2148 0.1557
-1 -1 3 -15.0014 0.4840
-1 -1 4 22.4440 0.7120
-1 -1 5 53.1219 -0.0931
-1 -1 6 -1.5981 0.0103
-1 -1 7 -37.7604 -0.1452
-1 -1 8 -5.2728 0.2548
-1 -1 9 5.1961 -0.2901
-1 -1 10 -7.7964 -0.0893
-1 -1 11 -6.2326 0.0996
-1 -1 12 -2.1089 0.0141
-1 -1 13 -1.2203 -0.0515
-1 -1 14 5.1620 0.0321
-1 -1 15 2.3156 0.1620
-1 -1 16 13.7822 -0.0645
-1 -1 17 -1.7693 -0.0505
-1 -1 18 -11.2140 0.0486
-1 -1 19 -1.4921 0.0035
-1 -1 20 5.7291 -0.1087
-1 -1 21 5.1561 -0.0451
-1 -1 22 3.9803 0.0890
-1 -1 23 -4.9284 -0.0656
-1 -1 24 -0.0650 -0.0375
-1 -1 25 3.7424 -0.0077
-1 -1 26 0.8260 0.0457
-1 -1 27 6.3667 -0.0242
-1 -1 28 4.1915 0.1508
-1 -1 29 6.8212 0.1480
-1 0 4 38.1960 0.3255
-1 0 5 55.4109 0.5458
-1 0 6 -2.5938 -0.2006
-1 0 7 -29.1873 0.2514
-1 0 8 -8.2268 0.0013
-1 0 9 18.2488 0.2032
-1 0 10 9.9280 -0.2859
-1 0 11 -19.4348 -0.1047
-1 0 12 -15.3642 0.0124
-1 0 13 7.3744 -0.0276
-1 0 14 6.7502 -0.0026
-1 0 15 11.1878 0.0817
-1 0 16 -2.9531 0.0959
-1 0 17 0.5618 -0.1034
-1 0 18 -1.6610 0.0077
-1 0 19 -3.1932 0.0904
-1 0 20 7.5919 -0.0156
-1 0 21 4.6181 -0.0745
-1 0 22 -7.9452 -0.0064
-1 0 23 -0.4965 0.0038
-1 0 24 2.2370 -0.1380
-1 0 25 0.0356 -0.0073
-1 0 26 2.0957 0.0555
-1 0 27 -2.9727 0.0728
-1 0 28 4.7297 -0.0284
-1 0 29 4.5343 0.0673
-1 1 3 -14.5864 -0.6065
-1 1 4 -74.5433 -0.2730
-1 1 5 11.7318 0.1324
-1 1 6 51.1463 0.2089
-1 1 7 -2.6347 -0.2175
-1 1 8 -8.3876 0.3960
-1 1 9 14.7336 -0.0060
-1 1 10 1.0468 0.0808
-1 1 11 -4.8115 -0.2506
-1 1 12 -5.0120 -0.0058
-1 1 13 -4.0158 0.0304
-1 1 14 10.2956 -0.0812
-1 1 15 -2.6981 -0.0310
-1 1 16 2.2033 0.1012
-1 1 17 1.5942 0.0663
-1 1 18 2.2209 -0.0954
-1 1 19 5.0416 0.0598
-1 1 20 -1.0476 0.0892
-1 1 21 -0.9528 -0.0148
-1 1 22 -0.8121 -0.0456
-1 1 23 -6.6854 0.0250
-1 1 24 2.6442 -0.0272
-1 1 25 4.4492 -0.0940
-1 1 26 -5.6246 0.0496
-1 1 27 0.0948 0.0095
-1 1 28 -1.2261 0.0137
-1 1 29 1.3353 -0.0091
-1 2 1 -2.6608 -0.3829
-1 2 2 49.7471 0.7101
-1 2 3 -41.8300 -0.2587
-1 2 4 -51.3161 -0.2915
-1 2 5 -21.4044 -0.1620
-1 2 6 40.8777 -0.0988
-1 2 7 43.1912 0.1180
-1 2 8 -13.1957 -0.1552
-1 2 9 -20.0209 0.3346
-1 2 10 23.2052 -0.1113
-1 2 11 13.0190 0.0930
-1 2 12 -6.7158 -0.0678
-1 2 13 -0.8825 0.0712
-1 2 14 -10.5784 -0.0436
-1 2 15 3.8873 -0.1319
-1 2 16 2.8769 -0.0077
-1 2 17 4.8900 0.1140
-1 2 18 4.7623 0.0258
-1 2 19 -3.7147 -0.0902
-1 2 20 2.2267 0.1207
-1 2 21 3.4206 0.0587
-1 2 22 -2.1265 -0.0289
-1 2 23 -0.0687 -0.0426
-1 2 24 -2.4799 0.0604
-1 2 25 -1.7065 -0.0094
-1 2 26 1.5265 -0.0588
-1 2 27 -3.2457 0.0758
-1 2 28 1.2685 0.0041
-1 2 29 -2.5584 0.0214
-1 3 1 -47.2467 -0.2464
-1 3 2 1.4580 -0.2939
-1 3 3 22.5575 0.6354
-1 3 4 -35.1015 -0.1311
-1 3 5 -14.9934 -0.2346
-1 3 6 25.7388 -0.0253
-1 3 7 17.1439 0.0002
-1 3 8 -0.6957 0.1055
-1 3 9 3.5407 -0.2849
-1 3 10 1.3658 0.2653
-1 3 11 18.2751 -0.0403
-1 3 12 5.3051 0.1312
-1 3 13 -18.4605 -0.0120
-1 3 14 4.6396 0.0393
-1 3 15 -0.1297 -0.0872
-1 3 16 -0.2832 -0.0953
-1 3 17 3.0730 0.0144
-1 3 18 0.5359 0.0594
-1 3 19 3.2201 0.0324
-1 3 20 -0.6851 -0.0705
-1 3 21 4.2562 0.1085
-1 3 22 7.5264 -0.0452
-1 3 23 -3.7216 -0.0505
-1 3 24 -1.2461 -0.0013
-1 3 25 0.8427 0.1030
-1 3 26 -4.4483 0.0091
-1 3 27 0.1163 -0.0279
-1 3 28 2.0157 0.1014
-1 3 29 -0.4041 -0.0071
-1 4 1 -49.4409 0.2545
-1 4 2 -10.0769 0.0019
-1 4 3 25.3719 -0.4905
-1 4 4 16.9056 0.3853
-1 4 5 -28.8921 -0.0270
-1 4 6 -11.4728 -0.0763
-1 4 7 26.3171 0.1158
-1 4 8 19.6441 -0.0418
-1 4 9 -4.5935 0.0460
-1 4 10 7.3840 -0.2772
-1 4 11 -1.7721 0.2856
-1 4 12 -2.6569 -0.0365
-1 4 13 10.7779 0.0153
-1 4 14 -9.9201 -0.0032
-1 4 15 0.3731 0.0630
-1 4 16 -0.1903 -0.0645
-1 4 17 -4.0302 -0.0603
-1 4 18 6.2354 0.0348
-1 4 19 2.0527 -0.0165
-1 4 20 1.4244 0.0170
-1 4 21 3.3494 -0.0986
-1 4 22 4.1825 0.0808
-1 4 23 5.6718 -0.0529
-1 4 24 -3.6027 -0.0043
-1 4 25 -1.2982 0.0341
-1 4 26 3.0621 0.0736
-1 4 27 -3.3639 -0.0409
-1 4 28 -0.3857 -0.0017
-1 4 29 3.3389 0.1267
-1 4 30 -2.6269 -0.0069
-1 4 31 -6.5317 -0.1246
-1 5 1 1.1669 0.5870
-1 5 2 -6.4699 0.3139
-1 5 3 7.0016 -0.0225
-1 5 4 5.1178 -0.4704
-1 5 5 -8.5694 0.3824
-1 5 6 -10.4586 -0.0380
-1 5 7 12.2646 -0.1812
-1 5 8 18.1262 0.1575
-1 5 9 6.5652 -0.0626
-1 5 10 -14.2722 0.0618
-1 5 11 7.0621 -0.2112
-1 5 12 10.2113 0.1709
-1 5 13 -13.7411 -0.0784
-1 5 14 0.0581 -0.0016
-1 5 15 -6.8738 0.0648
-1 5 16 -0.9053 0.0732
-1 5 17 8.2671 -0.0474
-1 5 18 -1.1031 -0.0628
-1 5 19 -0.0093 0.0454
-1 5 20 0.9709 -0.0726
-1 5 21 3.3325 0.0203
-1 5 22 6.9513 -0.0382
-1 5 23 -0.5257 0.1085
-1 5 24 -1.1301 -0.0489
-1 5 25 -1.3462 -0.0059
-1 5 26 1.7642 0.0037
-1 5 27 5.0177 0.0328
-1 5 28 -0.4140 -0.0564
-1 5 29 -1.3550 0.0842
-1 5 30 1.1336 0.1349
-1 5 31 -1.9070 -0.0865
-1 6 1 20.5306 -0.7928
-1 6 2 1.7826 0.7450
-1 6 3 -10.4521 0.2244
-1 6 4 -1.6714 0.0510
-1 6 5 4.7479 -0.3169
-1 6 6 1.7208 0.2174
-1 6 7 -4.8836 -0.1442
-1 6 8 0.3589 -0.2073
-1 6 9 -1.2972 0.2010
-1 6 10 6.4642 -0.1238
-1 6 11 1.1872 0.0324
-1 6 12 1.2050 -0.0915
-1 6 13 0.7764 0.0900
-1 6 14 -22.1121 -0.0568
-1 6 15 0.0146 0.0334
-1 6 16 7.9653 0.0686
-1 6 17 -1.9607 0.0185
-1 6 18 2.4976 -0.0128
-1 6 19 -0.9487 -0.0200
-1 6 20 -0.2511 0.0858
-1 6 21 4.5673 -0.0731
-1 6 22 2.1480 0.0062
-1 6 23 -0.8070 0.0124
-1 6 24 -5.6018 0.0964
-1 6 25 -0.3740 -0.0899
-1 6 26 3.6613 0.0048
-1 6 27 3.6429 -0.0035
-1 6 28 5.7159 0.0509
-1 6 29 2.3351 -0.0558
-1 6 30 -3.5088 0.0498
-1 6 31 -4.3253 0.0221
-1 7 1 11.0195 -1.0825
-1 7 2 9.5872 -0.6382
-1 7 3 3.1671 0.7695
-1 7 4 -1.4867 -0.0836
-1 7 5 -2.0069 -0.0015
-1 7 6 -5.9359 -0.0909
-1 7 7 -6.1835 0.1462
-1 7 8 -6.0134 -0.1503
-1 7 9 1.9618 -0.1829
-1 7 10 -4.5656 0.1459
-1 7 11 -1.6354 -0.1100
-1 7 12 2.7001 0.0715
-1 7 13 -3.6568 -0.0005
-1 7 14 -0.1374 -0.0041
-1 7 15 -12.0700 -0.0568
-1 7 16 -0.7861 0.0526
-1 7 17 7.0686 0.0538
-1 7 18 -3.9933 0.0060
-1 7 19 0.6322 0.0435
-1 7 20 3.4321 0.0118
-1 7 21 -1.5933 0.0319
-1 7 22 0.4150 -0.0869
-1 7 23 -1.0086 -0.0001
-1 7 24 -3.2902 0.0218
-1 7 25 -2.7586 0.0419
-1 7 26 2.5531 -0.1373
-1 7 27 3.8715 0.0735
-1 7 28 3.8655 -0.0023
-1 7 29 5.9760 -0.0028
-1 7 30 -0.1204 -0.1420
-1 7 31 -6.6713 -0.0773
-1 8 1 0.9229 0.5824
-1 8 2 11.9741 -0.5792
-1 8 3 11.7760 -0.6553
-1 8 4 -1.5290 0.4576
-1 8 5 -10.7592 -0.2308
-1 8 6 -6.9642 0.1335
-1 8 7 -4.3044 0.1069
-1 8 8 -1.7618 0.0589
-1 8 9 -5.9333 -0.1313
-1 8 10 -6.4229 -0.0556
-1 8 11 -8.2554 0.1215
-1 8 12 -0.8928 -0.0989
-1 8 13 8.9065 0.0365
-1 8 14 -5.2687 -0.0048
-1 8 15 -5.6059 -0.0348
-1 8 16 -3.0284 -0.0486
-1 8 17 1.9079 0.0633
-1 8 18 5.2822 0.0318
-1 8 19 -5.0442 -0.0145
-1 8 20 -4.4412 -0.0046
-1 8 21 3.0358 -0.0006
-1 8 22 1.2418 -0.0009
-1 8 23 1.2526 -0.0579
-1 8 24 -0.6852 -0.0256
-1 8 25 -3.2341 -0.0638
-1 8 26 -0.9721 0.0387
-1 8 27 3.5841 -0.0917
-1 8 28 2.4249 0.1006
-1 8 29 2.6350 -0.1123
-1 8 30 4.7928 -0.1187
-1 9 1 -2.7979 0.8068
-1 9 2 5.2664 0.2622
-1 9 3 5.5967 -0.3850
-1 9 4 0.8544 -0.4970
-1 9 5 -0.4132 0.3890
-1 9 6 -1.1666 -0.2071
-1 9 7 -4.0551 0.1313
-1 9 8 -8.8534 0.0975
-1 9 9 -3.4208 0.0664
-1 9 10 -1.1565 -0.0361
-1 9 11 -2.9084 0.0185
-1 9 12 -4.6796 0.0525
-1 9 13 -3.6372 -0.1244
-1 9 14 2.7786 0.0293
-1 9 15 -3.0210 -0.0066
-1 9 16 -0.8269 -0.0257
-1 9 17 4.0638 -0.0842
-1 9 18 -0.9155 0.0456
-1 9 19 -2.7676 -0.0174
-1 9 20 -4.0029 -0.0349
-1 9 21 -1.4723 -0.0425
-1 9 22 6.9099 0.0185
-1 9 23 4.0156 0.0022
-1 9 24 -1.1952 -0.0658
-1 9 25 -1.8365 -0.0253
-1 9 26 -0.8164 -0.0660
-1 9 27 0.8660 0.1232
-1 9 28 3.1661 -0.0934
-1 9 29 2.1165 0.0089
-1 9 30 2.2070 -0.1271
-1 10 1 -6.3205 0.4964
-1 10 2 -6.6678 0.5814
-1 10 3 9.0221 0.0274
-1 10 4 12.0959 -0.0160
-1 10 5 5.9075 -0.1650
-1 10 6 2.8455 0.2059
-1 10 7 -3.0865 -0.3352
-1 10 8 -4.1975 0.1426
-1 10 9 -0.7459 0.1295
-1 10 10 5.5801 0.0431
-1 10 11 0.2645 -0.0297
-1 10 12 -9.1055 0.0286
-1 10 13 -4.2645 0.0583
-1 10 14 0.0628 -0.1272
-1 10 15 2.5159 0.0389
-1 10 16 0.9145 -0.0281
-1 10 17 -2.7585 -0.0148
-1 10 18 -0.1605 -0.1199
-1 10 19 -1.3172 0.0504
-1 10 20 -0.7175 -0.0304
-1 10 21 2.5922 -0.0400
-1 10 22 1.3862 -0.0490
-1 10 23 4.1392 0.0360
-1 10 24 0.5666 0.0617
-1 10 25 -3.3575 -0.0460
-1 10 26 0.7482 0.0197
-1 10 27 3.7037 -0.0294
-1 10 28 1.1726 0.1851
-1 10 29 1.3752 -0.0796
-1 11 1 0.5140 -1.0955
-1 11 2 -2.8173 0.3485
-1 11 3 4.0769 0.5223
-1 11 4 17.3346 -0.0289
-1 11 5 13.3330 0.1367
-1 11 6 5.0441 -0.0557
-1 11 7 5.6999 0.0108
-1 11 8 1.7114 -0.3247
-1 11 9 2.0385 0.2142
-1 11 10 0.5952 0.0868
-1 11 11 -0.9030 -0.0860
-1 11 12 -1.2060 0.0182
-1 11 13 -4.0388 0.0711
-1 11 14 1.2034 0.0567
-1 11 15 0.5379 -0.1420
-1 11 16 -2.9775 0.0721
-1 11 17 1.2916 -0.0340
-1 11 18 -2.4217 0.0092
-1 11 19 -2.7336 -0.1091
-1 11 20 1.1450 0.0434
-1 11 21 2.1694 -0.0336
-1 11 22 5.1312 -0.0502
-1 11 23 0.6306 0.0031
-1 11 24 -1.9874 0.0700
-1 11 25 -2.8838 0.0850
-1 11 26 -1.9031 -0.0764
-1 11 27 4.2031 0.0735
-1 11 28 4.4245 0.0541
-1 12 1 1.1384 -0.3907
-1 12 2 -1.8161 -0.8307
-1 12 3 3.4284 0.3818
-1 12 4 9.6920 0.2687
-1 12 5 18.6079 -0.1439
-1 12 6 16.5468 0.2297
-1 12 7 5.5121 0.0348
-1 12 8 3.6442 -0.1064
-1 12 9 -2.8299 -0.2471
-1 12 10 -2.2205 0.1941
-1 12 11 1.1854 0.0194
-1 12 12 -2.4216 -0.1262
-1 12 13 2.5106 0.1074
-1 12 14 -0.3434 0.0552
-1 12 15 -1.8909 0.0028
-1 12 16 0.6911 -0.1032
-1 12 17 -2.8667 0.1311
-1 12 18 0.9139 -0.0342
-1 12 19 -2.9502 -0.0065
-1 12 20 -4.7399 -0.0979
-1 12 21 2.9331 -0.0053
-1 12 22 3.7246 -0.0043
-1 12 23 2.8559 -0.0368
-1 12 24 -2.1421 0.0269
-1 12 25 -5.8075 0.0323
-1 12 26 -3.3959 0.0045
-1 12 27 0.0455 -0.1301
-1 13 1 -6.8624 0.5259
-1 13 2 -5.6676 -0.4279
-1 13 3 3.1579 -0.5713
-1 13 4 14.5417 0.3563
-1 13 5 13.3174 0.0083
-1 13 6 11.2094 -0.1156
-1 13 7 7.6140 0.2893
-1 13 8 -3.4810 0.0454
-1 13 9 -0.1001 -0.1748
-1 13 10 -1.7676 -0.1373
-1 13 11 -5.2854 0.1164
-1 13 12 2.4701 -0.0100
-1 13 13 -2.7944 -0.0445
-1 13 14 2.2055 0.1215
-1 13 15 2.8743 -0.0168
-1 13 16 -3.4240 -0.0049
-1 13 17 0.8833 -0.0057
-1 13 18 -2.8333 0.1065
-1 13 19 -0.9734 -0.0879
-1 13 20 -0.4776 -0.0810
-1 13 21 -3.5539 -0.0716
-1 13 22 -0.2778 -0.0065
-1 13 23 0.5202 0.0314
-1 13 24 -0.5350 -0.0654
-1 13 25 -1.4320 -0.0810
-1 13 26 -3.9108 -0.1076
-1 14 1 -11.9945 0.4732
-1 14 2 -10.9127 0.1810
-1 14 3 5.6555 -0.2745
-1 14 4 10.0189 -0.2916
-1 14 5 8.7561 0.2701
-1 14 6 3.4044 -0.1922
-1 14 7 -0.2096 -0.0431
-1 14 8 2.3141 0.2677
-1 14 9 -2.2175 0.0630
-1 14 10 -0.5763 -0.1597
-1 14 11 -0.6324 -0.0815
-1 14 12 -8.4305 0.0582
-1 14 13 4.6660 0.0172
-1 14 14 0.5700 0.0461
-1 14 15 -0.9969 0.0392
-1 14 16 5.5301 -0.0380
-1 14 17 -2.1683 0.0264
-1 14 18 -0.2546 -0.0055
-1 14 19 -1.7767 -0.0494
-1 14 20 -0.8859 -0.1144
-1 14 21 -0.9078 -0.0935
-1 14 22 -4.9033 -0.0260
-1 14 23 -4.7642 0.0083
-1 15 1 -6.6808 -0.0285
-1 15 2 -6.6550 0.3476
-1 15 3 -8.2991 0.0812
-1 15 4 2.4548 -0.0492
-1 15 5 2.6829 -0.2167
-1 15 6 5.4881 0.1102
-1 15 7 5.2736 -0.2450
-1 15 8 -3.4306 0.0275
-1 15 9 -0.1359 0.1642
-1 15 10 3.3818 0.0977
-1 15 11 -1.9904 -0.0421
-1 15 12 -0.7027 -0.0499
-1 15 13 -4.9185 0.0429
-1 15 14 7.8035 -0.0141
-1 15 15 5.0818 0.0137
-1 15 16 -3.9006 -0.0463
-1 15 17 6.0784 0.0098
-1 15 18 -0.4192 -0.0306
-1 15 19 -3.3426 -0.1099
-1 15 20 -2.6564 -0.1384
-1 15 21 -1.7400 -0.0743
-1 16 1 1.1230 -0.9354
-1 16 2 -8.8691 0.0287
-1 16 3 -6.3592 0.4554
-1 16 4 -11.2558 0.0467
-1 16 5 -0.5015 -0.0536
-1 16 6 8.0719 -0.2576
-1 16 7 12.1398 0.0639
-1 16 8 5.2179 -0.2078
-1 16 9 -5.9773 0.0125
-1 16 10 0.4642 0.0908
-1 16 11 7.1696 0.1664
-1 16 12 -4.9389 0.0783
-1 16 13 3.2155 -0.0853
-1 16 14 8.7075 -0.0350
-1 16 15 8.4405 -0.1437
-1 16 16 1.1457 -0.0678
-1 16 17 -8.7721 -0.0358
-1 16 18 4.0412 0.0635
-1 16 19 0.8893 -0.1823
-1 16 20 -5.6053 -0.2279
-1 17 1 4.0362 0.1373
-1 17 2 -1.6806 -0.6215
-1 17 3 -7.7449 0.1286
-1 17 4 -2.1962 0.4673
-1 17 5 -11.7053 -0.1045
-1 17 6 0.6469 -0.1651
-1 17 7 17.9424 -0.1633
-1 17 8 15.6176 0.1767
-1 17 9 -2.4329 -0.1694
-1 17 10 -9.4663 -0.1107
-1 17 11 1.6933 -0.0011
-1 17 12 10.6039 0.1599
-1 17 13 2.1064 0.1281
-1 17 14 8.9595 -0.1244
-1 17 15 10.6260 -0.1760
-1 17 16 -2.9787 -0.2531
-1 17 17 -4.9975 -0.0198
-1 17 18 -5.2449 0.0382
-1 18 1 2.1586 0.0711
-1 18 2 0.8160 0.1883
-1 18 3 0.0456 -0.3770
-1 18 4 -5.8875 0.0062
0 -18 1 11.9367 0.5232
0 -18 2 3.6285 0.1513
0 -17 1 4.1274 -0.1148
0 -17 2 7.3646 0.3925
0 -17 3 -0.6271 -0.1259
0 -16 1 -0.5526 -0.2209
0 -16 2 -0.1186 -0.2822
0 -16 3 9.1979 0.2912
0 -16 4 2.3348 -0.1299
0 -16 5 -1.0199 0.0737
0 -16 6 -3.4545 -0.0249
0 -16 7 -6.8283 -0.0282
0 -15 1 0.3691 0.0785
0 -15 2 2.4091 -0.0960
0 -15 3 0.9642 -0.2440
0 -15 4 8.6576 0.2385
0 -15 5 0.7972 -0.1588
0 -15 6 -4.4435 -0.0157
0 -15 7 -3.6101 -0.0265
0 -15 8 -7.4950 -0.0682
0 -15 9 4.5351 0.0176
0 -15 10 4.9408 -0.0588
0 -14 1 2.4939 0.2360
0 -14 2 0.4241 0.0564
0 -14 3 2.3128 0.0113
0 -14 4 1.7805 -0.1825
0 -14 5 5.7488 0.1127
0 -14 6 0.3466 -0.1916
0 -14 7 -4.7830 0.0002
0 -14 8 0.6178 0.0192
0 -14 9 -4.5662 -0.0105
0 -14 10 3.3346 0.1135
0 -14 11 1.2279 0.0025
0 -14 12 -3.0798 -0.0107
0 -14 13 -0.8050 -0.0046
0 -13 1 -4.0583 0.3869
0 -13 2 -2.2004 0.3273
0 -13 3 3.1367 -0.0923
0 -13 4 7.7201 0.0699
0 -13 5 0.1731 -0.0430
0 -13 6 -2.9332 0.0599
0 -13 7 -0.3429 -0.1726
0 -13 8 -0.8826 0.0848
0 -13 9 4.7783 0.0420
0 -13 10 -3.6927 -0.0414
0 -13 11 -3.5642 0.0941
0 -13 12 0.1164 -0.0435
0 -13 13 -2.3297 -0.0626
0 -13 14 2.4729 0.0728
0 -13 15 2.0322 0.1333
0 -12 1 -5.7325 -0.7857
0 -12 2 0.2319 0.4577
0 -12 3 -0.8617 0.2688
0 -12 4 1.4654 -0.1572
0 -12 5 0.1005 0.2155
0 -12 6 -6.5805 0.0453
0 -12 7 -2.7631 -0.0109
0 -12 8 4.9198 -0.1493
0 -12 9 1.6642 0.0902
0 -12 10 1.5838 -0.0237
0 -12 11 -5.4797 -0.1490
0 -12 12 -6.9945 0.0622
0 -12 13 1.8416 -0.0212
0 -12 14 -0.8776 -0.0412
0 -12 15 3.4598 0.1126
0 -12 16 4.8805 0.1141
0 -12 17 5.1179 0.0164
0 -11 1 3.0802 -0.5745
0 -11 2 -0.4216 -0.5847
0 -11 3 -2.9535 0.5825
0 -11 4 -9.8719 0.1510
0 -11 5 -4.8978 -0.2294
0 -11 6 0.2141 0.2997
0 -11 7 -2.8893 0.0182
0 -11 8 -1.2043 -0.0887
0 -11 9 1.4501 -0.0855
0 -11 10 -0.3337 0.0346
0 -11 11 0.9308 -0.0440
0 -11 12 -2.5648 -0.1592
0 -11 13 -5.5899 0.0556
0 -11 14 2.0251 -0.0151
0 -11 15 -0.9725 -0.0736
0 -11 16 2.6398 0.0066
0 -11 17 4.5398 0.0554
0 -11 18 1.7671 -0.0977
0 -11 19 -1.8576 0.0669
0 -10 1 -3.4703 0.0371
0 -10 2 4.1623 -0.4775
0 -10 3 -2.7919 -0.3023
0 -10 4 -5.7061 0.4485
0 -10 5 -7.5621 -0.0551
0 -10 6 -5.3918 -0.2375
0 -10 7 -0.3227 0.3507
0 -10 8 -4.1696 -0.0074
0 -10 9 -1.9441 -0.1046
0 -10 10 2.3752 0.0703
0 -10 11 2.4211 -0.0182
0 -10 12 2.6479 -0.0601
0 -10 13 -0.4262 -0.1213
0 -10 14 -5.0770 0.0294
0 -10 15 -0.4979 -0.0454
0 -10 16 -2.0644 -0.0665
0 -10 17 2.3668 -0.0166
0 -10 18 4.4372 0.1018
0 -10 19 0.7167 -0.0811
0 -10 20 -1.8704 0.0249
0 -10 21 -2.2437 0.0713
0 -10 22 0.3802 -0.0554
0 -10 23 1.8200 -0.0382
0 -9 1 10.1801 0.9431
0 -9 2 1.5838 -0.3144
0 -9 3 5.0702 -0.3618
0 -9 4 -4.7203 -0.1243
0 -9 5 -8.2299 0.2131
0 -9 6 -4.1805 -0.0931
0 -9 7 -4.9614 -0.1376
0 -9 8 0.6192 0.2984
0 -9 9 -1.5493 0.0322
0 -9 10 -1.5785 -0.0920
0 -9 11 3.6595 0.1321
0 -9 12 2.9461 -0.0869
0 -9 13 3.0617 -0.0448
0 -9 14 1.2822 -0.0073
0 -9 15 -5.9454 0.0162
0 -9 16 -2.3436 -0.0675
0 -9 17 -0.7517 0.0125
0 -9 18 1.4584 0.0064
0 -9 19 2.9769 0.0414
0 -9 20 1.5561 -0.0781
0 -9 21 1.0464 -0.0053
0 -9 22 -1.8675 0.0675
0 -9 23 0.3879 -0.1360
0 -9 24 -1.1973 -0.0680
0 -8 1 14.9269 0.5121
0 -8 2 15.9284 0.6979
0 -8 3 -5.2340 -0.4333
0 -8 4 -7.4933 -0.1094
0 -8 5 -1.0156 0.0492
0 -8 6 -0.7087 -0.0160
0 -8 7 2.8159 -0.0930
0 -8 8 -6.1048 -0.0288
0 -8 9 -3.9194 0.1254
0 -8 10 0.9152 0.0459
0 -8 11 -0.1837 -0.0848
0 -8 12 4.0483 0.1294
0 -8 13 1.2811 -0.0507
0 -8 14 1.7270 -0.0261
0 -8 15 2.4607 0.0258
0 -8 16 -5.9694 -0.0118
0 -8 17 -3.3716 -0.0456
0 -8 18 0.3433 0.0582
0 -8 19 0.3356 -0.0273
0 -8 20 4.7487 -0.0267
0 -8 21 3.9175 0.0225
0 -8 22 -0.9671 0.0063
0 -8 23 -6.5750 -0.0309
0 -8 24 -0.1444 -0.1384
0 -8 25 2.1726 -0.0050
0 -7 1 6.6102 -0.8563
0 -7 2 5.4687 0.2277
0 -7 3 5.8845 0.7239
0 -7 4 -2.8512 -0.2503
0 -7 5 -4.1116 -0.0787
0 -7 6 8.3579 0.0260
0 -7 7 -3.4309 -0.1091
0 -7 8 -4.5075 -0.0806
0 -7 9 -3.9539 0.0301
0 -7 10 -0.2072 -0.0475
0 -7 11 5.3853 0.0768
0 -7 12 -4.0258 -0.0169
0 -7 13 -3.2575 0.0273
0 -7 14 1.4485 -0.0489
0 -7 15 3.6821 -0.0166
0 -7 16 2.3273 0.0417
0 -7 17 -5.3783 -0.0184
0 -7 18 -2.4680 -0.0377
0 -7 19 4.2793 0.0292
0 -7 20 0.9329 -0.0328
0 -7 21 1.5418 -0.0056
0 -7 22 0.0267 0.0570
0 -7 23 -2.9403 -0.0433
0 -7 24 -3.3023 -0.0317
0 -7 25 4.1663 0.0250
0 -7 26 5.3952 0.0272
0 -6 1 -30.3459 -0.4340
0 -6 2 10.5433 -0.6438
0 -6 3 13.7796 0.1524
0 -6 4 2.7079 0.5408
0 -6 5 -3.7676 -0.2735
0 -6 6 -12.3087 -0.1206
0 -6 7 10.7289 0.1157
0 -6 8 3.7049 -0.0039
0 -6 9 -3.6965 -0.1273
0 -6 10 -0.6967 0.0529
0 -6 11 -4.9826 -0.0661
0 -6 12 -0.0659 0.0353
0 -6 13 -4.6482 -0.0203
0 -6 14 -1.7968 -0.0542
0 -6 15 5.4163 0.0329
0 -6 16 2.4537 0.0098
0 -6 17 0.2277 -0.0410
0 -6 18 0.2746 -0.0579
0 -6 19 0.4973 0.0182
0 -6 20 1.9312 0.0289
0 -6 21 -1.9523 -0.0345
0 -6 22 -1.5153 0.0273
0 -6 23 1.9747 0.0795
0 -6 24 0.8556 -0.0253
0 -6 25 -0.2511 0.0313
0 -6 26 3.4832 0.0369
0 -5 1 -3.8355 0.7109
0 -5 2 -2.4116 -0.2989
0 -5 3 6.9083 -0.5904
0 -5 4 0.4883 -0.0610
0 -5 5 -15.3814 0.2862
0 -5 6 9.2878 -0.1563
0 -5 7 5.0827 0.0077
0 -5 8 15.7744 0.1591
0 -5 9 0.6517 0.0618
0 -5 10 -17.4436 -0.1519
0 -5 11 -2.8389 0.0525
0 -5 12 1.1161 -0.0172
0 -5 13 2.6770 -0.0287
0 -5 14 -1.2837 0.0180
0 -5 15 -1.0165 -0.0407
0 -5 16 4.7161 0.0231
0 -5 17 3.0949 -0.0561
0 -5 18 -0.0889 -0.0506
0 -5 19 0.9761 0.0192
0 -5 20 -0.3998 0.0380
0 -5 21 1.0169 -0.0453
0 -5 22 2.2161 0.0034
0 -5 23 -2.3753 0.1180
0 -5 24 -1.6038 0.0515
0 -5 25 1.8179 -0.1234
0 -5 26 3.6060 0.0476
0 -5 27 3.0363 0.1189
0 -4 1 -22.7277 1.1546
0 -4 2 10.8644 0.6323
0 -4 3 -7.5796 -0.3151
0 -4 4 -11.6061 -0.4050
0 -4 5 17.7949 -0.0021
0 -4 6 1.0362 0.1329
0 -4 7 17.2260 -0.1316
0 -4 8 -0.7142 0.0607
0 -4 9 -1.5047 0.1313
0 -4 10 2.2887 0.0713
0 -4 11 -9.1838 -0.1458
0 -4 12 1.6705 0.0298
0 -4 13 3.6511 0.0771
0 -4 14 -0.8644 -0.0521
0 -4 15 1.0085 -0.0094
0 -4 16 2.8709 -0.0310
0 -4 17 1.6527 0.0437
0 -4 18 -0.5228 -0.0450
0 -4 19 -1.2514 -0.0247
0 -4 20 3.5380 0.0040
0 -4 21 4.9439 -0.0178
0 -4 22 0.0529 -0.0358
0 -4 23 -3.6726 0.0732
0 -4 24 -7.5011 0.0269
0 -4 25 -2.0125 -0.0704
0 -4 26 9.0773 -0.0301
0 -4 27 5.5693 0.2435
0 -3 1 -10.0013 -0.5993
0 -3 2 15.0261 1.1203
0 -3 3 26.0003 0.5331
0 -3 4 11.4529 -0.0563
0 -3 5 -16.5401 -0.1496
0 -3 6 18.0023 -0.0663
0 -3 7 -6.1451 -0.0638
0 -3 8 8.8405 -0.1182
0 -3 9 10.6396 0.0714
0 -3 10 -0.1649 0.0208
0 -3 11 2.7437 -0.0017
0 -3 12 -7.2501 -0.0803
0 -3 13 -2.9276 0.0577
0 -3 14 6.0799 0.1005
0 -3 15 2.2178 -0.0787
0 -3 16 -2.5735 0.0103
0 -3 17 -1.1204 0.0450
0 -3 18 -0.1365 0.0424
0 -3 19 4.1149 -0.1058
0 -3 20 4.7421 -0.0173
0 -3 21 1.0700 0.0364
0 -3 22 -1.7297 -0.0408
0 -3 23 -5.7751 -0.0926
0 -3 24 -6.7018 0.0359
0 -3 25 -1.9079 0.0153
0 -3 26 2.0671 0.0472
0 -3 27 7.9883 0.1340
0 -3 28 0.3770 0.1096
0 -2 2 33.1769 -0.1340
0 -2 3 79.6451 1.2006
0 -2 4 -3.2055 0.2775
0 -2 5 -23.2882 -0.0698
0 -2 6 -26.3870 -0.0491
0 -2 7 34.8017 -0.0323
0 -2 8 14.2858 -0.1102
0 -2 9 2.9910 -0.1683
0 -2 10 2.7706 -0.0276
0 -2 11 -9.1568 -0.0342
0 -2 12 0.5711 0.0424
0 -2 13 4.0020 -0.0030
0 -2 14 -3.3180 0.0367
0 -2 15 -2.2564 0.0622
0 -2 16 -1.2006 -0.0411
0 -2 17 -3.9350 0.0598
0 -2 18 5.2742 0.0282
0 -2 19 5.8875 -0.0052
0 -2 20 1.7052 -0.0650
0 -2 21 -2.2373 0.0412
0 -2 22 -3.7711 -0.0028
0 -2 23 -2.8632 -0.0959
0 -2 24 -1.7537 -0.0544
0 -2 25 -6.2658 0.1145
0 -2 26 0.7562 0.0463
0 -2 27 4.0595 -0.0204
0 -2 28 2.7331 0.0657
0 -1 4 50.9422 0.6218
0 -1 5 -33.2723 -0.1335
0 -1 6 1.4459 0.0674
0 -1 7 14.7896 0.1768
0 -1 8 21.9506 -0.0076
0 -1 9 -7.8929 -0.1964
0 -1 10 -13.6534 -0.1501
0 -1 11 8.9356 0.0589
0 -1 12 5.4627 -0.0131
0 -1 13 -5.3185 0.0323
0 -1 14 -5.6599 -0.0221
0 -1 15 -7.0587 0.0231
0 -1 16 -1.2433 0.0498
0 -1 17 9.7673 -0.0247
0 -1 18 -0.2277 0.0573
0 -1 19 -2.1171 0.0149
0 -1 20 -1.2349 -0.0053
0 -1 21 0.3239 -0.0013
0 -1 22 1.1277 0.0440
0 -1 23 1.0602 -0.0361
0 -1 24 -4.9503 -0.0290
0 -1 25 -2.2643 0.0063
0 -1 26 -3.0632 0.0010
0 -1 27 3.9179 -0.0299
0 -1 28 4.9369 0.0334
0 -1 29 -5.7707 0.1891
0 0 4 7.9741 -0.2906
0 0 5 73.7768 0.2577
0 0 6 -15.7981 -0.0269
0 0 7 -9.2854 0.2563
0 0 8 -4.3893 0.1515
0 0 9 -0.6606 -0.0369
0 0 10 2.9453 -0.0625
0 0 11 1.1974 -0.0173
0 0 12 3.0076 0.0686
0 0 13 -5.0628 -0.1195
0 0 14 -13.4907 0.0324
0 0 15 -1.8068 0.0199
0 0 16 9.7085 0.0052
0 0 17 0.0652 -0.0077
0 0 18 1.7607 -0.0158
0 0 19 -7.3393 0.0549
0 0 20 -5.6759 0.0174
0 0 21 3.3215 -0.0237
0 0 22 6.7093 0.0259
0 0 23 -1.1971 0.0467
0 0 24 -2.5451 -0.0754
0 0 25 -3.5685 -0.0167
0 0 26 3.1854 0.0347
0 0 27 3.5127 -0.0438
0 0 28 -0.1005 0.0346
0 0 29 0.0316 0.1295
0 1 4 13.8380 -0.1790
0 1 5 21.3161 -0.2079
0 1 6 11.3975 0.3502
0 1 7 -33.6778 -0.0356
0 1 8 -6.9270 0.1880
0 1 9 12.7207 0.1267
0 1 10 2.3551 0.0121
0 1 11 -7.4799 0.0490
0 1 12 -6.5075 -0.0575
0 1 13 -1.2704 0.0179
0 1 14 3.0974 -0.1211
0 1 15 -1.4960 0.0770
0 1 16 -3.7711 0.0060
0 1 17 6.4109 -0.0272
0 1 18 -4.9605 -0.0248
0 1 19 -2.1407 0.0364
0 1 20 -1.9015 0.0072
0 1 21 -2.6868 -0.0314
0 1 22 -0.5210 -0.0389
0 1 23 2.4963 0.0226
0 1 24 -4.2694 0.0438
0 1 25 -0.6050 -0.0651
0 1 26 5.7674 0.0364
0 1 27 6.6848 0.0914
0 1 28 3.1152 -0.1006
0 1 29 -5.7888 -0.0313
0 2 2 128.8465 -0.7163
0 2 3 31.4132 -0.0165
0 2 4 -75.3117 -0.3029
0 2 5 5.6530 -0.0122
0 2 6 -8.6753 -0.1482
0 2 7 -7.1285 0.2381
0 2 8 -1.0919 -0.1550
0 2 9 -0.6720 0.1764
0 2 10 -6.9838 0.1455
0 2 11 -7.0149 -0.0847
0 2 12 -0.7753 0.0647
0 2 13 4.2043 -0.0555
0 2 14 1.6714 0.0264
0 2 15 -1.3762 -0.1122
0 2 16 1.5693 0.0796
0 2 17 -4.9248 -0.0038
0 2 18 4.4763 0.0200
0 2 19 -1.5695 -0.0477
0 2 20 -4.6128 0.0407
0 2 21 -3.1465 -0.0261
0 2 22 -3.5379 -0.0468
0 2 23 -4.3842 0.0100
0 2 24 -0.9172 0.0289
0 2 25 -2.3468 0.0286
0 2 26 2.0926 -0.0511
0 2 27 13.2212 0.0191
0 2 28 8.6418 0.0809
0 2 29 -0.9203 -0.0862
0 3 0 -75.8613 1.7615
0 3 1 39.6030 0.9333
0 3 2 48.5155 -0.4732
0 3 3 29.3164 -0.5496
0 3 4 17.6828 0.2493
0 3 5 -41.3003 -0.2308
0 3 6 8.1379 -0.0820
0 3 7 5.6638 -0.2281
0 3 8 -16.3133 0.1627
0 3 9 -14.6012 -0.1437
0 3 10 -0.4329 0.1216
0 3 11 1.2967 0.1292
0 3 12 5.2146 -0.1469
0 3 13 -0.6419 0.1102
0 3 14 -6.0943 -0.0228
0 3 15 3.0240 0.0167
0 3 16 5.3600 -0.1258
0 3 17 7.4331 0.1001
0 3 18 -6.0591 -0.0257
0 3 19 -3.1003 0.0542
0 3 20 0.3672 -0.0364
0 3 21 -4.0957 0.0862
0 3 22 -5.4512 0.0203
0 3 23 -2.5123 -0.0667
0 3 24 -4.1502 0.0118
0 3 25 -4.0079 -0.0053
0 3 26 0.7029 -0.0353
0 3 27 5.7829 -0.0264
0 3 28 15.5157 0.0594
0 3 29 7.5782 0.1155
0 4 0 1.8830 0.5001
0 4 1 -34.7027 1.3122
0 4 2 2.1465 0.4075
0 4 3 8.4725 -0.3808
0 4 4 -7.1328 -0.1316
0 4 5 37.7381 0.1875
0 4 6 -7.7148 -0.3747
0 4 7 -16.6121 0.0251
0 4 8 -0.9639 -0.1751
0 4 9 -4.4957 0.0349
0 4 10 -5.3235 -0.1020
0 4 11 8.3626 0.0960
0 4 12 0.0717 0.1682
0 4 13 -3.8921 -0.1439
0 4 14 2.5886 0.1021
0 4 15 -0.1453 -0.0213
0 4 16 6.8545 0.0120
0 4 17 2.7916 -0.1598
0 4 18 1.8571 0.1235
0 4 19 -1.6665 -0.0261
0 4 20 -1.8612 0.0785
0 4 21 1.1172 0.0030
0 4 22 -4.3568 0.0660
0 4 23 -6.0124 0.0127
0 4 24 0.7100 -0.0950
0 4 25 -0.2023 -0.0018
0 4 26 -5.6858 0.0036
0 4 27 1.3765 -0.0481
0 4 28 7.6504 -0.0151
0 4 29 10.5015 0.0562
0 4 30 2.6845 0.0574
0 4 31 -10.9538 -0.0024
0 5 0 -50.1533 -0.9740
0 5 1 -9.3531 0.5199
0 5 2 -3.9492 0.8271
0 5 3 -2.8489 0.1078
0 5 4 6.1208 -0.1576
0 5 5 -16.3637 0.1076
0 5 6 12.8243 0.1431
0 5 7 2.5987 -0.3404
0 5 8 -2.4999 0.1679
0 5 9 10.9962 -0.1296
0 5 10 3.8290 -0.1048
0 5 11 -14.5328 -0.0031
0 5 12 5.6284 0.0953
0 5 13 12.5816 0.1268
0 5 14 -2.4828 -0.1518
0 5 15 -0.1815 0.0875
0 5 16 -4.3038 -0.0285
0 5 17 2.0231 0.0369
0 5 18 5.9383 -0.1556
0 5 19 4.4323 0.1092
0 5 20 1.0066 -0.0672
0 5 21 -3.0383 0.0090
0 5 22 1.1279 0.0153
0 5 23 2.2427 0.0351
0 5 24 -1.8959 0.0088
0 5 25 -1.2423 -0.0588
0 5 26 -0.6379 0.0027
0 5 27 -4.8576 0.0071
0 5 28 0.5712 -0.0743
0 5 29 5.8568 -0.1072
0 5 30 2.3944 0.0424
0 5 31 -0.1998 0.0594
0 6 0 -24.3245 -0.3416
0 6 1 -25.2524 -0.7251
0 6 2 11.6798 0.2794
0 6 3 14.5515 0.3031
0 6 4 -22.3758 0.0473
0 6 5 -8.1976 0.1691
0 6 6 -4.2472 0.1877
0 6 7 15.6870 0.0563
0 6 8 17.0450 -0.2420
0 6 9 1.7821 0.2502
0 6 10 -1.8760 -0.0644
0 6 11 5.7025 -0.2108
0 6 12 0.3760 0.0133
0 6 13 8.8416 0.0674
0 6 14 9.2880 0.0507
0 6 15 -14.3518 -0.1230
0 6 16 -5.0135 0.1166
0 6 17 4.5456 -0.0411
0 6 18 2.0101 0.0310
0 6 19 1.5696 -0.1511
0 6 20 0.8233 0.0272
0 6 21 3.8733 -0.0816
0 6 22 5.2868 -0.0175
0 6 23 6.0552 0.0214
0 6 24 1.8580 0.0243
0 6 25 -6.1912 0.0113
0 6 26 -5.5063 -0.0029
0 6 27 0.3832 0.0089
0 6 28 -0.8302 -0.0303
0 6 29 -1.8348 -0.0479
0 6 30 3.1087 -0.1487
0 6 31 -0.2003 0.0779
0 7 0 -19.8158 0.4079
0 7 1 -7.0597 -0.2774
0 7 2 -4.2583 -0.6382
0 7 3 -2.9974 0.2189
0 7 4 6.2430 0.1684
0 7 5 -9.5723 0.0152
0 7 6 5.7425 0.1966
0 7 7 4.8398 0.0932
0 7 8 4.9306 0.0080
0 7 9 11.9738 -0.0924
0 7 10 10.7913 0.2419
0 7 11 0.3357 -0.0661
0 7 12 2.5184 -0.2246
0 7 13 2.5755 0.0096
0 7 14 1.2221 0.0410
0 7 15 4.2931 -0.0037
0 7 16 -10.6287 -0.0779
0 7 17 -4.0357 0.1142
0 7 18 3.9670 -0.0759
0 7 19 -5.0754 0.0171
0 7 20 -2.0879 -0.0652
0 7 21 7.5822 -0.0003
0 7 22 10.0589 -0.0799
0 7 23 5.5184 -0.0242
0 7 24 0.8928 0.0153
0 7 25 -3.4037 0.0692
0 7 26 -6.4663 0.0155
0 7 27 -3.9178 -0.0117
0 7 28 -0.4324 0.0537
0 7 29 0.7505 -0.0093
0 7 30 -1.4243 0.0581
0 8 0 5.2784 0.7113
0 8 1 -17.9797 0.1696
0 8 2 -4.6121 -0.1453
0 8 3 10.7095 -0.2610
0 8 4 -4.7105 0.2617
0 8 5 0.0866 -0.0727
0 8 6 -5.4750 -0.1633
0 8 7 3.4285 0.1866
0 8 8 8.8450 0.0680
0 8 9 9.0957 -0.0327
0 8 10 10.5509 -0.0321
0 8 11 5.3340 0.2228
0 8 12 -5.9330 -0.0642
0 8 13 -3.4171 -0.1415
0 8 14 7.8420 -0.0080
0 8 15 1.6252 -0.0055
0 8 16 -2.7419 -0.0244
0 8 17 -8.2376 -0.0340
0 8 18 -3.6943 0.0857
0 8 19 2.3186 -0.0504
0 8 20 -5.7377 0.0337
0 8 21 -1.8171 -0.0062
0 8 22 9.9728 -0.0084
0 8 23 7.6727 -0.0695
0 8 24 -0.7016 0.0394
0 8 25 -2.2695 0.0106
0 8 26 -2.2839 0.0441
0 8 27 -4.7373 -0.0117
0 8 28 -3.6359 -0.0055
0 8 29 -3.5303 0.1766
0 8 30 1.4495 -0.0311
0 9 0 5.3365 -0.7501
0 9 1 -0.7963 0.7973
0 9 3 7.4256 -0.1007
0 9 4 6.2055 -0.0960
0 9 6 -14.0073 -0.2126
0 9 7 9.0444 -0.1220
0 9 8 13.2413 0.2386
0 9 9 3.5927 -0.0478
0 9 10 -2.6724 -0.0617
0 9 11 4.0730 0.0171
0 9 12 6.8921 0.2132
0 9 13 -0.8413 -0.0903
0 9 14 -7.1556 -0.0406
0 9 15 2.1171 -0.0001
0 9 16 1.1526 -0.0403
0 9 17 -2.6404 -0.0156
0 9 18 -2.6615 0.0119
0 9 19 -3.0939 0.0443
0 9 20 -2.4047 -0.0540
0 9 21 -4.8702 0.0283
0 9 22 0.2268 0.0301
0 9 23 8.9666 0.0636
0 9 24 3.4212 -0.0795
0 9 25 -5.5089 0.0382
0 9 26 -3.0293 -0.0307
0 9 27 0.2867 -0.0068
0 9 28 -3.9323 0.0290
0 9 29 -3.4257 -0.0227
0 9 30 -3.1074 0.1677
0 10 0 6.8765 -0.9172
0 10 1 8.6600 -0.5052
0 10 2 -2.5245 0.8220
0 10 3 -1.7957 -0.1069
0 10 4 -1.0860 -0.1944
0 10 5 -7.0027 0.0525
0 10 6 -27.8674 0.1350
0 10 7 -10.4770 -0.1850
0 10 8 12.1690 -0.0345
0 10 9 3.9487 0.2365
0 10 10 -4.8948 -0.1978
0 10 11 0.6275 -0.0036
0 10 12 10.7704 0.0518
0 10 13 3.6916 0.1492
0 10 14 -6.0453 -0.1011
0 10 15 -6.8667 0.0539
0 10 16 3.6049 0.0266
0 10 17 4.6011 -0.0617
0 10 18 -5.4431 -0.0137
0 10 19 -4.5439 0.0053
0 10 20 -1.0068 0.0034
0 10 21 0.1943 -0.0608
0 10 22 -0.0853 0.0782
0 10 23 0.3251 0.0486
0 10 24 3.5537 0.0796
0 10 25 -1.0988 -0.1364
0 10 26 -6.2144 0.0255
0 10 27 -1.2035 -0.0294
0 10 28 4.1403 -0.0844
0 10 29 -1.4392 0.0771
0 10 30 -2.0433 -0.0415
0 11 0 0.3517 -0.3566
0 11 1 5.8605 -0.7786
0 11 2 1.2042 -0.2323
0 11 3 -11.4844 0.6541
0 11 4 -0.9018 -0.2868
0 11 5 1.0176 -0.1417
0 11 6 -13.8697 0.1265
0 11 7 -26.5426 0.0177
0 11 8 -7.7243 -0.0825
0 11 9 12.2205 0.0220
0 11 10 4.9169 0.1840
0 11 11 -3.5157 -0.2685
0 11 12 -0.3697 0.0970
0 11 13 7.2956 0.0578
0 11 14 1.8735 0.0410
0 11 15 -1.4862 -0.0760
0 11 16 -0.5805 0.1128
0 11 17 -0.4796 0.0367
0 11 18 -0.3404 -0.1039
0 11 19 -5.2466 -0.0182
0 11 20 0.0478 0.0090
0 11 21 4.4584 0.0393
0 11 22 0.9685 -0.0489
0 11 23 0.0933 0.1183
0 11 24 -1.2143 0.0314
0 11 25 0.2717 0.0526
0 11 26 -0.6513 -0.1453
0 11 27 -2.2404 0.0162
0 11 28 1.8572 0.0099
0 11 29 5.2132 -0.0872
0 12 0 0.1610 0.3967
0 12 1 8.9375 -0.5650
0 12 2 6.6590 -0.4601
0 12 3 -6.9780 0.0331
0 12 4 -14.7294 0.3833
0 12 5 0.2230 -0.3999
0 12 6 3.1038 -0.0477
0 12 7 -10.2554 0.1644
0 12 8 -13.6022 -0.1130
0 12 9 1.7505 -0.0107
0 12 10 7.9328 0.0116
0 12 11 -1.0137 0.1391
0 12 12 -4.0652 -0.1965
0 12 13 -0.4801 0.1270
0 12 14 7.7971 0.0018
0 12 15 3.7118 -0.0430
0 12 16 -1.5396 -0.0239
0 12 17 0.5030 0.0918
0 12 18 -1.7721 0.0076
0 12 19 0.2335 -0.1115
0 12 20 -2.3971 0.0500
0 12 21 0.0507 0.0500
0 12 22 4.8220 0.0556
0 12 23 1.9154 -0.0492
0 12 24 2.4177 0.1428
0 12 25 -0.6669 0.0383
0 12 26 -1.1873 0.0582
0 12 27 1.1261 -0.0519
0 12 28 0.7216 0.0332
0 13 0 -2.6210 0.8529
0 13 1 10.3306 0.3225
0 13 2 11.2591 -0.4436
0 13 3 -6.1900 -0.2020
0 13 4 -16.0712 -0.0022
0 13 5 -4.2040 0.0957
0 13 6 11.4726 -0.2834
0 13 7 9.4218 0.1191
0 13 8 -2.0741 0.1228
0 13 9 -9.4529 -0.2692
0 13 10 0.5546 0.0194
0 13 11 1.7382 0.0789
0 13 12 -5.5113 0.0939
0 13 13 -1.6186 -0.1690
0 13 14 -0.6047 0.0388
0 13 15 4.9835 -0.0354
0 13 16 3.8330 -0.0538
0 13 17 -1.0017 -0.0033
0 13 18 2.7778 0.0252
0 13 19 -1.7734 0.0116
0 13 20 -1.9584 -0.0441
0 13 21 -1.0472 0.0979
0 13 22 2.1190 0.0386
0 13 23 7.5174 0.0236
0 13 24 2.3840 0.0261
0 13 25 -0.3575 0.2492
0 13 26 -2.0431 0.1095
0 13 27 -1.0999 0.0579
0 14 0 -1.0397 -0.2104
0 14 1 -2.5907 0.9159
0 14 2 4.5828 0.2479
0 14 3 0.0320 -0.3930
0 14 4 -6.0086 -0.0906
0 14 5 -1.9901 -0.0115
0 14 6 7.6992 -0.0150
0 14 7 10.4058 -0.1459
0 14 8 3.5281 0.1899
0 14 9 0.0150 0.0646
0 14 10 -9.9043 -0.2573
0 14 11 -3.6077 0.0321
0 14 12 0.5182 0.0773
0 14 13 -10.1679 -0.0599
0 14 14 -2.4458 -0.1850
0 14 15 0.0232 0.0151
0 14 16 2.3357 -0.0159
0 14 17 4.3807 -0.0400
0 14 18 -1.3965 -0.0006
0 14 19 1.2145 -0.0145
0 14 20 -0.8620 -0.0055
0 14 21 1.7289 0.0229
0 14 22 4.9629 0.1134
0 14 23 2.4957 0.0886
0 14 24 1.7473 0.1154
0 14 25 -2.9283 0.1700
0 15 0 -3.2922 -0.0395
0 15 1 -7.7595 -0.1574
0 15 2 -3.4333 0.7218
0 15 3 5.8751 0.1128
0 15 4 0.3912 -0.3008
0 15 5 0.5830 0.0452
0 15 6 2.5937 0.0112
0 15 7 1.1788 -0.0844
0 15 8 4.9542 -0.0502
0 15 9 -1.7488 0.2682
0 15 10 -3.3222 -0.0143
0 15 11 -8.7490 -0.2137
0 15 12 -5.0783 0.0012
0 15 13 0.4955 0.0308
0 15 14 -15.3266 -0.1458
0 15 15 -4.7886 -0.1296
0 15 16 4.5172 0.0661
0 15 17 1.0723 -0.0138
0 15 18 2.2203 -0.0195
0 15 19 -1.1777 -0.0052
0 15 20 3.2392 -0.0355
0 15 21 5.2273 -0.0156
0 15 22 4.7980 0.2030
0 15 23 1.6038 0.2483
0 16 0 -4.9056 -0.1722
0 16 1 -6.4970 -0.0099
0 16 2 -1.6319 -0.1821
0 16 3 1.7898 0.4636
0 16 4 4.3951 -0.0227
0 16 5 -0.5680 -0.1924
0 16 6 1.3564 0.1926
0 16 7 -0.3570 0.0778
0 16 8 -7.3421 -0.0939
0 16 9 2.6138 -0.0816
0 16 10 -2.0787 0.2287
0 16 11 -5.6754 -0.0642
0 16 12 -3.3666 -0.0538
0 16 13 -8.3968 0.0496
0 16 14 -3.3792 -0.0443
0 16 15 -10.8325 -0.1256
0 16 16 -0.3525 0.0025
0 16 17 7.4220 0.0986
0 16 18 -3.2201 -0.0724
0 16 19 0.5606 0.0403
0 16 20 4.2140 0.0386
0 17 0 2.4880 0.2821
0 17 1 -5.9139 -0.2129
0 17 2 -5.1965 -0.0206
0 17 3 4.4180 -0.2011
0 17 4 4.6872 0.2371
0 17 5 5.3737 -0.0765
0 17 6 -0.1762 -0.0410
0 17 7 -5.5056 0.2391
0 17 8 -4.5599 0.0057
0 17 9 -2.8280 -0.0751
0 17 10 7.5338 -0.0464
0 17 11 -1.2648 0.2357
0 17 12 -10.9520 -0.0205
0 17 13 -0.7223 0.0449
0 17 14 -4.7609 0.0637
0 17 15 1.1375 -0.0455
0 17 16 -0.2492 0.0211
0 17 17 -1.4690 0.0833
0 17 18 1.7440 0.0162
0 18 0 6.0043 0.0845
0 18 1 -1.8654 0.4630
0 18 2 -5.8001 -0.2183
0 18 3 4.1944 -0.1008
0 18 4 13.1225 -0.1201
0 18 5 4.4266 0.2054
0 18 6 -0.0818 -0.1272
0 18 16 0.8059 0.0263
1 -18 0 4.1407 -0.2661
1 -18 1 -2.8898 -0.1197
1 -18 2 1.7953 -0.3823
1 -17 0 3.7338 -0.0450
1 -17 1 7.1004 -0.1585
1 -17 2 0.0519 -0.0685
1 -17 3 1.4858 -0.2267
1 -17 4 -1.9867 -0.3098
1 -16 0 9.4439 -0.1241
1 -16 1 2.6809 -0.1598
1 -16 2 2.1479 -0.0126
1 -16 3 -3.1346 0.0103
1 -16 4 0.7360 -0.1319
1 -16 5 -2.2182 -0.2971
1 -16 6 1.1360 0.1245
1 -15 0 -1.0885 1.0126
1 -15 1 6.6386 -0.2059
1 -15 2 -1.0308 -0.2936
1 -15 3 -0.6156 0.1797
1 -15 4 -1.5717 0.1099
1 -15 5 4.2428 -0.1304
1 -15 6 -0.1792 -0.2556
1 -15 7 2.3870 0.1208
1 -15 8 5.2674 0.0013
1 -15 9 1.6731 0.0048
1 -15 10 -1.9997 -0.1290
1 -14 0 -4.2701 -0.0726
1 -14 1 3.5615 0.9274
1 -14 2 8.8044 -0.1483
1 -14 3 -3.3119 -0.2596
1 -14 4 -4.2844 0.2580
1 -14 5 -0.2437 0.0711
1 -14 6 9.0061 -0.2135
1 -14 7 3.5196 -0.1876
1 -14 8 -0.8628 0.1469
1 -14 9 -0.9142 -0.0625
1 -14 10 -2.9653 -0.0492
1 -14 11 5.0045 -0.0736
1 -14 12 2.2026 -0.0807
1 -13 0 1.1710 -0.6986
1 -13 1 7.1892 0.0099
1 -13 2 3.3772 0.8797
1 -13 3 -0.2132 -0.1203
1 -13 4 -5.2127 -0.2661
1 -13 5 1.8416 0.1662
1 -13 6 6.4777 0.0428
1 -13 7 9.6651 -0.1644
1 -13 8 1.9334 -0.1035
1 -13 9 -7.5867 0.1676
1 -13 10 -3.4496 -0.1092
1 -13 11 -0.7113 -0.0297
1 -13 12 8.8870 0.0527
1 -13 13 0.8213 -0.0492
1 -13 14 -5.5952 0.0358
1 -13 15 -3.8193 0.0798
1 -12 0 7.9720 -0.7186
1 -12 1 5.9905 -0.7023
1 -12 2 1.7188 0.0840
1 -12 3 0.1068 0.6175
1 -12 4 1.8884 -0.2205
1 -12 5 4.1340 -0.1174
1 -12 6 4.6392 0.1952
1 -12 7 0.6528 0.0293
1 -12 8 3.4329 -0.0792
1 -12 9 3.1198 -0.0812
1 -12 10 -6.6510 0.1624
1 -12 11 -0.2026 -0.0966
1 -12 12 1.8804 0.0092
1 -12 13 4.2980 0.1059
1 -12 14 -1.7960 -0.0464
1 -12 15 -6.2197 -0.0128
1 -12 16 3.0629 0.1617
1 -12 17 4.1969 0.0154
1 -11 0 3.6713 0.2365
1 -11 1 7.3826 -0.8059
1 -11 2 5.3120 -0.6239
1 -11 3 2.4173 0.0630
1 -11 4 3.4658 0.4260
1 -11 5 1.9794 -0.2146
1 -11 6 2.4600 0.0625
1 -11 7 -0.2391 0.1905
1 -11 8 -2.1356 -0.0932
1 -11 9 3.6171 0.0229
1 -11 10 5.1242 -0.0547
1 -11 11 -5.2527 0.0933
1 -11 12 0.2801 -0.0780
1 -11 13 0.6308 0.0127
1 -11 14 -1.1860 0.0837
1 -11 15 0.8886 0.0078
1 -11 16 -1.8800 0.0028
1 -11 17 5.3221 0.1184
1 -11 18 2.1620 -0.0524
1 -11 19 -4.5526 -0.0743
1 -10 0 6.4095 1.0479
1 -10 1 2.9208 0.0453
1 -10 2 -0.0127 -0.6072
1 -10 3 4.3971 -0.2149
1 -10 4 2.1797 0.0061
1 -10 5 3.5491 0.1478
1 -10 6 0.2512 -0.2526
1 -10 7 -1.2969 0.1257
1 -10 8 -1.5628 0.1979
1 -10 9 -2.0284 -0.1896
1 -10 10 1.0311 0.1131
1 -10 11 3.2851 -0.0251
1 -10 12 -2.3482 -0.0343
1 -10 13 1.4420 -0.0488
1 -10 14 0.4860 0.0127
1 -10 15 -3.4269 0.0130
1 -10 16 2.6973 0.0049
1 -10 17 -0.9886 -0.0415
1 -10 18 2.8609 -0.0053
1 -10 19 -1.1753 0.0201
1 -10 20 -8.4680 0.0158
1 -10 22 -0.9684 0.0253
1 -10 23 -1.2670 -0.0151
1 -9 0 -4.1790 -0.7539
1 -9 1 1.5756 1.1454
1 -9 2 -5.8427 0.2844
1 -9 3 -2.5357 -0.3616
1 -9 4 11.4836 -0.0113
1 -9 5 2.7194 -0.2400
1 -9 6 -2.3746 -0.0890
1 -9 7 -4.4322 -0.0904
1 -9 8 -2.5920 0.1398
1 -9 9 2.5780 0.1534
1 -9 10 -1.5799 -0.1826
1 -9 11 -4.2267 0.1600
1 -9 12 3.8263 -0.0207
1 -9 13 4.1010 -0.1627
1 -9 14 0.6604 0.0053
1 -9 15 -2.0798 0.0229
1 -9 16 -5.1818 -0.0723
1 -9 17 4.7923 -0.0158
1 -9 18 2.1804 0.0053
1 -9 19 0.0153 -0.0245
1 -9 20 -7.2404 0.0859
1 -9 21 -9.7054 -0.0190
1 -9 22 -0.4017 0.0870
1 -9 23 4.6530 0.0457
1 -9 24 0.4913 -0.0521
1 -8 0 -4.2631 -0.6355
1 -8 1 -4.4649 -0.5221
1 -8 2 2.5746 1.1076
1 -8 3 1.7651 0.2239
1 -8 4 -1.6198 -0.4348
1 -8 5 5.1852 0.1528
1 -8 6 -3.5005 -0.1755
1 -8 7 -4.1688 -0.1407
1 -8 8 1.9736 0.0653
1 -8 9 0.9577 0.0592
1 -8 10 1.6332 0.0591
1 -8 11 -4.0331 -0.0784
1 -8 12 -4.7440 0.1031
1 -8 13 9.7183 -0.0208
1 -8 14 6.2430 -0.1329
1 -8 15 -6.4050 0.0899
1 -8 16 -2.3274 -0.0015
1 -8 17 -0.5359 -0.1178
1 -8 18 6.4782 0.0150
1 -8 19 1.0411 0.0733
1 -8 20 -5.4103 -0.0621
1 -8 21 -7.2085 0.0694
1 -8 22 -2.3445 0.0009
1 -8 23 5.5050 0.0166
1 -8 24 0.4136 0.0305
1 -8 25 -3.0181 -0.0882
1 -7 0 7.6053 -0.4942
1 -7 1 11.4715 -0.4206
1 -7 2 1.2801 -0.5071
1 -7 3 -8.4968 0.5870
1 -7 4 -1.0259 0.1583
1 -7 5 -0.6977 -0.2336
1 -7 6 5.8380 0.3141
1 -7 7 0.8217 -0.1025
1 -7 8 -6.9036 -0.1793
1 -7 9 0.3815 0.1203
1 -7 10 2.4802 -0.0245
1 -7 11 3.7809 -0.0773
1 -7 12 0.3226 0.0602
1 -7 13 -3.4025 0.0842
1 -7 14 6.9342 0.0194
1 -7 15 3.0580 -0.0759
1 -7 16 -8.3969 0.0644
1 -7 17 0.8773 -0.0237
1 -7 18 1.5225 -0.0554
1 -7 19 2.4964 0.0413
1 -7 20 1.8079 0.0603
1 -7 21 -3.6149 -0.0670
1 -7 22 -4.3534 0.0752
1 -7 23 -3.1724 -0.0062
1 -7 24 1.9353 -0.1070
1 -7 25 -3.1956 0.0081
1 -6 0 29.5472 1.3982
1 -6 1 9.3014 -0.6144
1 -6 2 -3.0406 -0.4454
1 -6 3 -3.8711 -0.3372
1 -6 4 -7.5687 0.2691
1 -6 5 11.1661 0.1368
1 -6 6 3.1120 -0.1273
1 -6 7 -9.8207 0.2202
1 -6 8 -5.6536 -0.0553
1 -6 9 -3.9819 -0.0952
1 -6 10 8.8897 0.0498
1 -6 11 9.3833 -0.0772
1 -6 12 -2.2206 -0.1038
1 -6 13 -4.0724 0.1711
1 -6 14 -3.1825 0.0131
1 -6 15 4.9184 -0.0155
1 -6 16 3.2946 -0.0096
1 -6 17 -8.8268 0.0568
1 -6 18 -0.2583 -0.0257
1 -6 19 4.7854 -0.0270
1 -6 20 1.4668 0.0110
1 -6 21 -0.1024 0.0399
1 -6 22 -6.5551 -0.0459
1 -6 23 -5.2986 0.0202
1 -6 24 -2.3182 -0.0454
1 -6 25 2.0566 -0.0597
1 -6 26 -4.4826 0.1255
1 -5 0 10.3910 0.6465
1 -5 1 15.2161 1.3412
1 -5 2 6.6673 -0.4610
1 -5 3 0.1751 -0.2620
1 -5 4 10.4861 -0.1638
1 -5 5 -11.9069 -0.0869
1 -5 6 -9.8688 0.0086
1 -5 7 -3.4306 -0.0223
1 -5 8 -8.6290 0.1480
1 -5 9 8.3169 -0.0670
1 -5 10 4.7758 0.0042
1 -5 11 -0.9057 -0.0037
1 -5 12 -0.9596 -0.0466
1 -5 13 -6.9840 -0.0918
1 -5 14 1.0240 0.1359
1 -5 15 2.2240 -0.0305
1 -5 16 0.6275 0.0121
1 -5 17 1.1820 0.0192
1 -5 18 -4.0629 -0.0298
1 -5 19 0.0790 -0.0344
1 -5 20 2.8151 0.0375
1 -5 21 -6.1603 -0.0118
1 -5 22 -4.8445 -0.0217
1 -5 23 -0.7125 -0.0298
1 -5 24 1.0737 0.0378
1 -5 25 -2.3755 0.0142
1 -5 26 -4.3754 0.0033
1 -5 27 -6.0771 0.0801
1 -4 0 -16.0674 -0.2266
1 -4 1 22.3518 0.6362
1 -4 2 15.9562 1.1563
1 -4 3 8.4178 -0.3844
1 -4 4 -16.5515 -0.2530
1 -4 5 1.0547 -0.0366
1 -4 6 -9.2870 -0.1376
1 -4 7 -13.8249 0.0237
1 -4 8 8.3319 -0.0022
1 -4 9 -4.7391 0.0490
1 -4 10 1.6626 -0.0729
1 -4 11 0.3211 0.1353
1 -4 12 -8.6608 0.0104
1 -4 13 -0.5513 -0.0418
1 -4 14 -1.3816 -0.0623
1 -4 15 2.5660 0.0974
1 -4 16 4.1564 -0.0674
1 -4 17 1.5986 -0.0235
1 -4 18 1.1695 0.0233
1 -4 19 -3.9135 -0.0120
1 -4 20 -7.5087 0.0139
1 -4 21 -1.5605 0.0145
1 -4 22 -0.7538 -0.0902
1 -4 23 1.0039 -0.0049
1 -4 24 2.9805 0.0845
1 -4 25 -2.2235 0.0037
1 -4 26 -7.2477 -0.0549
1 -4 27 -4.3108 0.0412
1 -3 0 -52.3015 0.2918
1 -3 1 -9.0080 0.0586
1 -3 2 15.6431 0.1767
1 -3 3 -16.7244 0.5784
1 -3 4 7.6133 -0.2312
1 -3 5 5.1088 0.0746
1 -3 6 8.8917 0.1944
1 -3 7 -7.1357 -0.2068
1 -3 8 -32.6479 -0.0349
1 -3 9 4.4777 0.0376
1 -3 10 7.8698 0.0496
1 -3 11 2.2128 -0.0584
1 -3 12 -1.1638 0.1441
1 -3 13 -12.8145 0.0408
1 -3 14 -0.1708 -0.0208
1 -3 15 7.4413 -0.0614
1 -3 16 7.0456 0.0331
1 -3 17 3.4867 -0.0673
1 -3 18 -3.5166 0.0141
1 -3 19 -6.4657 0.0744
1 -3 20 -3.3596 -0.0396
1 -3 21 -0.9039 -0.0488
1 -3 22 2.9165 -0.0058
1 -3 23 3.7755 -0.0342
1 -3 24 -2.2247 0.0089
1 -3 25 -2.6528 0.0270
1 -3 26 -2.7443 -0.0811
1 -3 27 -4.1624 0.0724
1 -3 28 0.8402 0.2524
1 -2 0 -99.1949 0.3095
1 -2 2 -22.9691 -0.2279
1 -2 3 41.3575 -0.1414
1 -2 4 11.8108 0.5315
1 -2 5 17.3636 0.1430
1 -2 6 -2.4109 0.1644
1 -2 7 -27.3896 0.0617
1 -2 8 -3.3904 -0.2520
1 -2 9 -11.9232 0.0753
1 -2 10 15.5628 0.1087
1 -2 11 11.6439 -0.1065
1 -2 12 -13.1726 -0.0886
1 -2 13 -6.3894 0.1568
1 -2 14 1.1088 0.0601
1 -2 15 9.8918 -0.0292
1 -2 16 7.4545 -0.0542
1 -2 17 -2.9832 0.0628
1 -2 18 -6.0840 -0.0090
1 -2 19 -1.2557 -0.0307
1 -2 20 0.7743 0.0200
1 -2 21 2.2110 -0.0524
1 -2 22 1.4853 -0.0466
1 -2 23 -1.9630 -0.0063
1 -2 24 1.8270 -0.0172
1 -2 25 -0.8106 -0.0280
1 -2 26 -5.4138 0.0403
1 -2 27 -1.9389 0.0166
1 -2 28 -0.0059 0.1448
1 -2 29 5.7902 0.0991
1 -1 3 34.6701 0.1506
1 -1 4 42.2027 0.0503
1 -1 5 -20.4447 0.3511
1 -1 6 -21.5147 0.0654
1 -1 7 11.1320 0.0485
1 -1 8 -4.7047 -0.0084
1 -1 9 14.7193 -0.1406
1 -1 10 -7.7881 0.0459
1 -1 11 -5.3237 0.0427
1 -1 12 7.9010 -0.2145
1 -1 13 -2.1184 -0.0158
1 -1 14 1.9649 0.1603
1 -1 15 5.4048 -0.0196
1 -1 16 0.2804 0.0066
1 -1 17 -2.6734 0.0462
1 -1 18 -1.7501 0.0491
1 -1 19 0.9590 -0.0499
1 -1 20 4.0746 -0.0805
1 -1 21 -0.2061 0.0205
1 -1 22 -3.0495 -0.0130
1 -1 23 1.6048 -0.0525
1 -1 24 0.4242 -0.0028
1 -1 25 0.9748 0.0722
1 -1 26 0.2502 -0.0206
1 -1 27 -8.6129 -0.0410
1 -1 28 -0.8703 -0.0263
1 -1 29 6.1089 0.1125
1 0 4 -14.9683 0.3940
1 0 5 -5.3335 -0.2000
1 0 6 12.0013 0.0017
1 0 7 7.0503 0.1212
1 0 8 25.8932 0.0908
1 0 9 -18.5374 -0.1479
1 0 10 -7.0892 -0.0632
1 0 11 5.3022 0.0020
1 0 12 3.0265 0.0444
1 0 13 9.2080 -0.2077
1 0 14 -1.3212 -0.0118
1 0 15 -7.5683 0.1373
1 0 16 0.7530 -0.0488
1 0 17 4.1936 0.0503
1 0 18 0.7668 0.0920
1 0 19 1.1515 -0.0230
1 0 20 -0.2822 -0.0612
1 0 21 0.4837 -0.0086
1 0 22 -0.0330 0.0433
1 0 23 -0.7978 0.0051
1 0 24 2.6200 -0.0349
1 0 25 1.1327 -0.0188
1 0 26 -2.5196 0.0435
1 0 27 1.0944 -0.0835
1 0 28 -7.2878 -0.0462
1 0 29 -1.8963 0.0977
1 0 30 8.0026 0.2021
1 1 3 -48.8200 -0.0614
1 1 4 -25.6024 0.0393
1 1 5 7.1809 0.1318
1 1 6 25.8672 -0.2920
1 1 7 28.7347 0.0735
1 1 8 -19.1442 0.2148
1 1 9 3.4753 0.0842
1 1 10 -4.8794 -0.2404
1 1 11 2.5808 0.1121
1 1 12 10.5709 -0.0170
1 1 13 -5.3528 -0.0365
1 1 14 -3.2267 -0.1464
1 1 15 4.1001 0.0114
1 1 16 -3.1049 0.1024
1 1 17 -1.6660 -0.0865
1 1 18 4.4336 0.0231
1 1 19 -1.1283 0.1247
1 1 20 0.8722 0.0047
1 1 21 2.9606 -0.0375
1 1 22 3.0263 0.0621
1 1 23 -0.8391 0.0106
1 1 24 -2.0351 -0.0762
1 1 25 0.2782 -0.0690
1 1 26 3.0250 -0.0319
1 1 27 -2.7222 0.0736
1 1 28 -1.9326 0.0071
1 1 29 -6.6870 0.0433
1 2 0 -9.5298 0.2260
1 2 1 26.3490 0.4302
1 2 2 -60.0300 -0.3407
1 2 3 6.3551 -0.4926
1 2 4 0.0963 -0.2526
1 2 5 -16.6961 -0.0990
1 2 6 15.0961 0.0673
1 2 7 7.0791 -0.1564
1 2 8 14.3919 0.2100
1 2 9 -11.2385 0.1511
1 2 10 4.7048 0.1284
1 2 11 0.4231 -0.2083
1 2 12 -9.6072 0.1737
1 2 13 3.4780 -0.0533
1 2 14 3.2226 -0.0807
1 2 15 -1.1303 -0.0501
1 2 16 1.2779 -0.0102
1 2 17 -5.0048 -0.0096
1 2 18 -6.1167 -0.0791
1 2 19 4.8733 0.0580
1 2 20 1.7548 0.1156
1 2 21 3.1173 0.0159
1 2 22 4.9813 -0.0792
1 2 23 1.2403 0.0503
1 2 24 -5.7450 -0.0281
1 2 25 -3.0222 -0.1177
1 2 26 1.6192 -0.0046
1 2 27 2.6837 0.0464
1 2 28 -4.5453 0.0413
1 2 29 -5.5535 -0.0440
1 2 30 -2.1094 0.0442
1 3 0 24.3206 1.0921
1 3 1 -28.2810 0.3673
1 3 2 36.4860 0.3052
1 3 3 -15.5228 -0.0278
1 3 4 -2.4109 -0.3648
1 3 5 -0.8310 -0.2303
1 3 6 -19.4490 -0.0362
1 3 7 25.6053 0.0339
1 3 8 10.5250 -0.1451
1 3 9 -1.3675 0.2576
1 3 10 -21.0951 0.0247
1 3 11 -4.4237 0.1443
1 3 12 9.1320 -0.1328
1 3 13 -0.7934 0.1621
1 3 14 -1.2127 -0.0469
1 3 15 -1.5465 -0.0912
1 3 16 -4.4689 -0.0280
1 3 17 0.1628 -0.0241
1 3 18 1.4763 -0.0596
1 3 19 -6.5452 -0.0718
1 3 20 -0.9388 0.0563
1 3 21 1.8200 0.0109
1 3 22 5.9350 0.0232
1 3 23 2.9078 -0.0627
1 3 24 -4.6970 0.0579
1 3 25 -8.6599 0.0083
1 3 26 -1.6756 -0.0881
1 3 27 4.4478 0.0067
1 3 28 0.1716 0.0299
1 3 29 -4.7612 -0.0579
1 4 0 12.3945 0.0117
1 4 1 63.7515 0.7230
1 4 2 -13.9346 0.1554
1 4 3 14.3301 0.1227
1 4 4 -7.5944 0.2180
1 4 5 -20.9827 -0.0557
1 4 6 18.0942 -0.2207
1 4 7 6.4845 -0.0745
1 4 8 7.4818 0.0181
1 4 9 -16.1790 -0.2186
1 4 10 -16.7746 0.1967
1 4 11 -6.3186 -0.0597
1 4 12 6.7347 0.1406
1 4 13 7.2514 -0.0423
1 4 14 -7.9994 0.1237
1 4 15 -7.5141 -0.0440
1 4 16 2.0572 -0.0512
1 4 17 3.6129 -0.0188
1 4 18 -1.4264 -0.0518
1 4 19 -2.0871 -0.0690
1 4 20 -6.0710 -0.0863
1 4 21 -2.3256 0.0853
1 4 22 1.3284 -0.0376
1 4 23 1.6076 0.0411
1 4 24 -4.6738 -0.0120
1 4 25 -7.3028 0.0708
1 4 26 -1.2766 0.0239
1 4 27 2.5340 -0.0593
1 4 28 3.4863 -0.0095
1 4 29 -2.4682 0.0582
1 4 30 -2.1952 -0.0714
1 5 0 25.1647 -0.7119
1 5 1 0.4195 0.1653
1 5 2 33.6398 0.4333
1 5 3 -12.2049 0.0142
1 5 4 10.8740 0.0549
1 5 5 17.3845 0.2481
1 5 6 -23.9062 0.0849
1 5 7 -0.2390 -0.2199
1 5 8 -0.2916 -0.0902
1 5 9 -1.5189 0.0600
1 5 10 -10.6482 -0.2635
1 5 11 -10.4884 0.1173
1 5 12 -8.3085 -0.0519
1 5 13 -1.7948 0.1020
1 5 14 7.2629 -0.0117
1 5 15 1.3671 0.1028
1 5 16 -2.2960 -0.0334
1 5 17 -1.6519 -0.0129
1 5 18 1.3689 -0.0002
1 5 19 -0.2294 -0.0586
1 5 20 1.4376 0.0143
1 5 21 -1.8425 -0.0808
1 5 22 -8.2791 0.0838
1 5 23 -8.1596 -0.0562
1 5 24 -2.1459 0.0365
1 5 25 0.3399 0.0243
1 5 26 -0.6355 0.0897
1 5 27 4.9134 -0.0004
1 5 28 0.9150 -0.0100
1 5 29 -1.3236 0.0121
1 5 30 -1.6712 0.0892
1 6 0 -16.7354 -0.5661
1 6 1 10.7404 -0.5773
1 6 2 -13.8017 0.4378
1 6 3 24.2990 0.2384
1 6 4 16.3694 -0.2651
1 6 5 -3.1462 0.0237
1 6 6 -2.5697 0.2421
1 6 7 -26.2797 0.1178
1 6 8 -1.3025 -0.1582
1 6 9 10.7458 -0.0190
1 6 10 -1.8952 0.1045
1 6 11 -16.9507 -0.2338
1 6 12 -13.0770 0.0508
1 6 13 -3.5629 -0.0294
1 6 14 4.4716 0.0585
1 6 15 11.3680 -0.0300
1 6 16 0.1479 0.0830
1 6 17 -5.1210 0.0024
1 6 18 0.8122 0.0246
1 6 19 6.7634 0.0527
1 6 20 3.5734 -0.0642
1 6 21 -2.5555 0.0575
1 6 22 -5.6449 -0.0744
1 6 23 -9.6015 0.0745
1 6 24 -5.1702 -0.0474
1 6 25 3.4127 0.0024
1 6 26 6.2535 0.0013
1 6 27 0.2237 0.1073
1 6 28 2.9680 -0.0471
1 6 29 -0.7299 0.0098
1 6 30 -4.3516 0.0328
1 7 0 -4.5661 0.2734
1 7 1 -16.6369 -0.3345
1 7 2 14.8464 -0.3967
1 7 3 -8.4778 0.4202
1 7 4 -0.9729 0.0271
1 7 5 9.4880 -0.3778
1 7 6 -7.1581 0.1645
1 7 7 4.0833 0.2176
1 7 8 -10.6385 0.0534
1 7 9 -8.4506 -0.0840
1 7 10 2.5294 0.0760
1 7 11 2.3564 0.0643
1 7 12 -6.9113 -0.1697
1 7 13 -8.4660 0.0589
1 7 14 -2.3320 -0.0169
1 7 15 2.2954 0.0102
1 7 16 9.7043 -0.0537
1 7 17 1.8417 0.0776
1 7 18 -0.9157 0.0462
1 7 19 5.3148 -0.0012
1 7 20 4.2563 0.0609
1 7 21 -1.1087 -0.0327
1 7 22 -3.8233 0.0801
1 7 23 0.1693 -0.0576
1 7 24 -1.5231 0.0327
1 7 25 0.1857 -0.0693
1 7 26 3.4190 -0.0032
1 7 27 5.6277 -0.0322
1 7 28 0.2073 0.0765
1 7 29 -0.2688 -0.1162
1 7 30 -1.7338 0.0269
1 8 0 -5.2959 0.3355
1 8 1 7.9337 0.1742
1 8 2 -14.9397 -0.2918
1 8 3 -4.3505 -0.2463
1 8 4 -5.2729 0.3484
1 8 5 -0.5937 -0.0484
1 8 6 16.6664 -0.3481
1 8 7 -3.6793 0.2645
1 8 8 -3.3742 0.1024
1 8 9 -6.2508 -0.0173
1 8 10 -0.6448 -0.0459
1 8 11 9.8061 0.1197
1 8 12 3.6546 0.0230
1 8 13 -8.7941 -0.0901
1 8 14 -9.4348 0.0877
1 8 15 2.6305 -0.0440
1 8 16 5.0426 -0.0178
1 8 17 4.5182 -0.0332
1 8 18 1.0325 0.0479
1 8 19 1.9096 0.0284
1 8 20 6.0887 0.0020
1 8 21 -0.6341 0.0936
1 8 22 -3.6022 0.0066
1 8 23 1.8041 0.0171
1 8 24 8.1088 -0.0620
1 8 25 2.4610 0.0509
1 8 26 1.1534 -0.0593
1 8 27 3.5449 -0.0008
1 8 28 3.9536 -0.1070
1 8 29 -0.7495 0.0373
1 8 30 -4.7633 -0.0564
1 9 0 5.5420 -0.5445
1 9 1 -12.1658 0.3042
1 9 2 1.5878 0.1348
1 9 3 -6.2811 -0.2110
1 9 4 1.3329 -0.1030
1 9 5 10.9236 0.1765
1 9 6 -4.2784 -0.0941
1 9 7 3.2333 -0.2739
1 9 8 -0.7224 0.2887
1 9 9 6.7771 -0.0500
1 9 10 6.2088 -0.0320
1 9 11 -1.0043 0.0196
1 9 12 1.5973 0.1037
1 9 13 -0.0344 -0.0213
1 9 14 -1.3751 -0.0722
1 9 15 -3.4387 0.1045
1 9 16 -0.7243 -0.0503
1 9 17 -0.0750 -0.0218
1 9 18 3.0368 -0.0111
1 9 19 5.7735 0.0383
1 9 20 1.9121 0.0145
1 9 21 -2.0406 0.0478
1 9 22 -5.8860 0.0640
1 9 23 0.8587 -0.0108
1 9 24 10.3026 -0.0004
1 9 25 11.7494 -0.0282
1 9 26 1.3003 0.0765
1 9 27 -0.1975 -0.0806
1 9 28 3.8289 0.0193
1 9 29 0.4811 -0.0950
1 10 0 2.7332 -0.6560
1 10 1 5.9263 -0.3570
1 10 2 -4.0655 0.3828
1 10 3 5.8704 0.0540
1 10 4 2.8500 -0.2731
1 10 5 -3.6004 -0.0156
1 10 6 8.4496 0.0929
1 10 7 -2.6573 -0.0264
1 10 8 4.4724 -0.2378
1 10 9 5.8461 0.2094
1 10 10 2.4431 -0.1165
1 10 11 1.8370 0.0148
1 10 12 -1.8499 0.0754
1 10 13 5.1377 -0.0108
1 10 14 2.7294 -0.0520
1 10 15 -3.6882 -0.0446
1 10 16 -5.6253 0.1015
1 10 17 -1.3218 -0.0637
1 10 18 4.4278 0.0070
1 10 19 3.9796 0.0170
1 10 20 -0.1033 0.0463
1 10 21 -5.6711 -0.0245
1 10 22 -5.1964 0.0630
1 10 23 -0.2506 0.0292
1 10 24 8.1176 -0.0166
1 10 25 11.1197 0.0376
1 10 26 6.2499 -0.0361
1 10 27 -1.9552 0.0793
1 10 28 -1.1308 -0.0751
1 10 29 5.1438 0.0315
1 11 0 2.6656 0.3053
1 11 1 5.5228 -0.7091
1 11 2 9.1722 -0.2352
1 11 3 -0.1175 0.2930
1 11 4 -3.4239 -0.0691
1 11 5 1.4501 -0.2107
1 11 6 -1.5711 0.1947
1 11 7 6.8224 0.0331
1 11 8 -3.9214 -0.0267
1 11 9 -3.2351 -0.1969
1 11 10 3.4489 0.1376
1 11 11 2.1249 -0.1024
1 11 12 5.1662 -0.0051
1 11 13 -0.5769 0.0894
1 11 14 1.5410 -0.0998
1 11 15 1.9779 -0.0376
1 11 16 -2.4815 -0.0075
1 11 17 -1.6767 0.0817
1 11 18 -0.1635 -0.0661
1 11 19 0.7712 0.0554
1 11 20 -1.3135 0.0022
1 11 21 -1.3949 0.0270
1 11 22 -2.3462 -0.0371
1 11 23 -2.8596 0.0598
1 11 24 0.4119 0.0333
1 11 25 5.8932 0.0023
1 11 26 6.6197 0.0797
1 11 27 2.3519 -0.1078
1 11 28 -0.2086 0.0163
1 11 29 0.5767 -0.0820
1 12 0 -3.5737 1.3240
1 12 1 0.2695 0.1163
1 12 2 7.6081 -0.8150
1 12 3 11.6037 -0.1129
1 12 4 -0.0491 0.3016
1 12 5 -12.2231 -0.0905
1 12 6 -3.6426 -0.1688
1 12 7 -3.8047 0.2888
1 12 8 -3.1298 -0.0089
1 12 9 -4.3018 0.0014
1 12 10 0.2026 -0.0933
1 12 11 8.8351 -0.0068
1 12 12 2.6491 -0.1099
1 12 13 0.1762 -0.0047
1 12 14 -1.5244 0.1171
1 12 15 3.0432 -0.1284
1 12 16 6.6544 0.0023
1 12 17 -2.4648 0.0525
1 12 18 -4.2323 0.0666
1 12 19 -0.5535 -0.0816
1 12 20 1.0358 0.0802
1 12 21 -0.5711 0.0115
1 12 22 0.0167 0.0295
1 12 23 -2.7999 -0.0187
1 12 24 -6.1821 0.0277
1 12 25 0.4795 0.0523
1 12 26 6.1329 -0.0029
1 12 27 5.0050 0.0531
1 12 28 0.5220 -0.1590
1 13 0 -1.3932 0.6547
1 13 1 -2.3066 1.1463
1 13 2 8.2792 -0.0674
1 13 3 19.4443 -0.6058
1 13 4 7.1451 0.0639
1 13 5 -16.6154 0.1437
1 13 6 -19.6838 -0.1853
1 13 7 -2.9563 -0.0726
1 13 8 -0.3395 0.3530
1 13 9 -2.7899 -0.0425
1 13 10 1.6765 -0.0587
1 13 11 6.7335 -0.0145
1 13 12 9.6063 -0.0761
1 13 13 0.0719 -0.0464
1 13 14 -3.9490 0.0451
1 13 15 1.8335 0.0812
1 13 16 5.9490 -0.1218
1 13 17 5.1213 0.0789
1 13 18 -2.5796 0.0953
1 13 19 -0.7724 0.0266
1 13 20 1.4432 -0.0477
1 13 21 -3.3340 0.1561
1 13 22 -6.3523 0.0604
1 13 23 -0.7500 -0.0292
1 13 24 1.4388 -0.0972
1 13 25 -2.2178 -0.0374
1 13 26 2.5060 0.1078
1 13 27 2.2681 0.0607
1 14 0 -1.9470 -0.8070
1 14 1 7.1687 0.6564
1 14 2 5.2428 0.9579
1 14 3 12.5787 -0.1527
1 14 4 13.4375 -0.3603
1 14 5 -6.2620 0.1153
1 14 6 -21.5487 -0.0022
1 14 7 -7.6887 -0.1411
1 14 8 4.6515 0.0115
1 14 9 1.5804 0.1826
1 14 10 2.5756 -0.0980
1 14 11 6.7310 0.0111
1 14 12 7.6315 0.1164
1 14 13 5.7720 -0.0717
1 14 14 -2.3187 -0.0458
1 14 15 -4.5395 0.0486
1 14 16 5.5766 0.0257
1 14 17 8.1868 -0.0650
1 14 18 3.6825 0.1349
1 14 19 -0.8102 0.0788
1 14 20 -1.5331 0.0044
1 14 21 -7.2365 0.0460
1 14 22 -9.2864 0.1821
1 14 23 -1.5065 -0.0390
1 14 24 6.3144 -0.1745
1 14 25 4.6341 -0.1294
1 14 26 -4.4914 0.0700
1 15 0 -6.0457 -1.0644
1 15 1 4.0083 -0.5620
1 15 2 6.5644 0.5029
1 15 3 2.4767 0.5812
1 15 4 12.4061 -0.1652
1 15 5 5.0519 -0.0189
1 15 6 -9.8382 0.1771
1 15 7 -11.7284 -0.1198
1 15 8 4.0129 -0.1504
1 15 9 8.6617 0.0304
1 15 10 0.5415 0.0837
1 15 11 3.8225 -0.0226
1 15 12 3.6089 0.0945
1 15 13 3.0263 0.0497
1 15 14 3.7530 -0.0840
1 15 15 -2.5581 -0.0451
1 15 16 -2.9802 0.0261
1 15 17 7.9936 -0.0060
1 15 18 8.3107 -0.0016
1 15 19 -1.0047 0.1020
1 15 20 -5.3818 -0.0280
1 15 21 -5.2454 -0.0398
1 15 22 -8.1881 0.0514
1 15 23 -3.0619 0.1261
1 15 24 4.3901 -0.1278
1 16 0 -4.7911 0.0145
1 16 1 -6.8337 -0.8540
1 16 2 3.1635 -0.4178
1 16 3 5.5222 0.2230
1 16 4 -0.2601 0.2950
1 16 5 5.1107 -0.0565
1 16 6 -4.1006 0.1874
1 16 7 -4.0804 0.1239
1 16 8 3.4930 -0.1078
1 16 9 2.9728 -0.0387
1 16 10 0.6314 0.0453
1 16 11 -5.0643 0.0151
1 16 12 0.1988 -0.0430
1 16 13 0.5950 0.0817
1 16 14 -1.5110 -0.0610
1 16 15 0.7634 -0.0792
1 16 16 -2.4497 -0.0777
1 16 17 -0.1028 -0.0366
1 16 18 8.0496 0.0284
1 16 19 3.8344 0.0161
1 16 20 -5.5038 -0.0805
1 16 21 -6.0708 -0.2103
1 17 0 -4.3635 0.7033
1 17 1 -6.3256 0.0447
1 17 2 -3.2683 -0.6571
1 17 3 -2.9550 -0.2670
1 17 4 -2.5797 0.0410
1 17 5 -7.4444 0.0601
1 17 6 -0.2390 -0.0557
1 17 7 -0.9853 0.2999
1 17 8 0.4965 0.1789
1 17 9 1.2239 -0.0241
1 17 10 -9.9044 -0.0241
1 17 11 -5.3614 -0.0381
1 17 12 -4.7416 0.0497
1 17 13 -6.5532 -0.0331
1 17 14 -5.0494 -0.0014
1 17 15 -4.1126 -0.1813
1 17 16 1.5977 -0.1286
1 17 17 0.9714 -0.1047
1 17 18 1.3461 -0.0355
1 18 0 4.5563 -0.0094
1 18 1 -3.6338 0.3847
1 18 2 -7.4969 0.0123
1 18 3 -9.8973 -0.3991
1 18 4 -10.2166 -0.1345
1 18 5 -2.3346 -0.0969
1 18 6 -5.9355 -0.0702
1 18 7 -4.3748 -0.0589
2 -18 0 0.2683 -0.2999
2 -18 1 -1.9894 0.0773
2 -18 2 -8.7367 0.2473
2 -17 0 3.0802 -0.7820
2 -17 1 -3.8130 -0.0805
2 -17 2 -0.8222 0.3403
2 -17 3 -4.6079 0.1652
2 -17 4 0.8513 -0.1104
2 -16 0 8.8219 -0.1223
2 -16 1 6.0290 -0.5615
2 -16 2 -4.7130 0.0993
2 -16 3 1.0327 0.2697
2 -16 4 -1.9415 -0.0743
2 -16 5 -0.1231 -0.1983
2 -15 0 5.0240 0.0851
2 -15 1 4.3460 0.0996
2 -15 2 0.6463 -0.3978
2 -15 3 -9.3873 -0.0344
2 -15 4 3.3079 0.1061
2 -15 5 3.1192 -0.0760
2 -15 6 -0.7750 -0.0976
2 -15 7 -5.4809 0.2053
2 -15 8 -3.4252 0.1922
2 -15 9 0.4252 -0.1065
2 -14 0 0.6632 -0.1022
2 -14 1 -1.7914 0.1053
2 -14 2 -3.4342 0.1799
2 -14 3 1.0099 -0.3285
2 -14 4 -5.6522 -0.0711
2 -14 5 3.9425 0.1255
2 -14 6 0.3043 0.0165
2 -14 7 -5.2058 -0.1014
2 -14 8 -4.9249 0.0914
2 -14 9 4.4001 0.0921
2 -14 10 5.1197 -0.1331
2 -14 11 2.7220 0.0105
2 -14 12 1.8634 0.0343
2 -13 0 -14.1131 -0.9425
2 -13 1 -7.4276 -0.1527
2 -13 2 2.3830 0.2413
2 -13 3 -0.2498 0.2372
2 -13 4 0.0649 -0.2274
2 -13 5 -8.7011 -0.0531
2 -13 6 -1.6255 0.0532
2 -13 7 -1.2444 0.0185
2 -13 8 -1.1876 -0.1136
2 -13 9 2.9856 0.0418
2 -13 10 8.7116 0.0845
2 -13 11 2.1846 -0.1172
2 -13 12 -3.5152 -0.0466
2 -13 13 2.6098 0.0309
2 -13 14 1.0041 0.0121
2 -13 15 -0.8318 -0.0248
2 -12 0 -12.5701 -0.1953
2 -12 1 -8.2688 -0.9669
2 -12 2 -4.3781 0.0144
2 -12 3 2.7495 0.3547
2 -12 4 -1.4916 0.0283
2 -12 5 -2.2680 -0.2798
2 -12 6 -5.8318 0.0287
2 -12 7 -0.6769 0.0336
2 -12 8 -0.9921 0.0859
2 -12 9 1.0995 -0.0646
2 -12 10 6.1947 -0.0251
2 -12 11 5.0894 0.0497
2 -12 12 -0.1273 -0.0817
2 -12 13 -2.7191 -0.0422
2 -12 14 3.2521 0.0647
2 -12 15 -2.9847 -0.0362
2 -12 16 -5.8196 -0.1144
2 -12 17 -0.7453 -0.0307
2 -11 0 -14.6835 1.3095
2 -11 1 -10.4381 -0.0728
2 -11 2 -0.2034 -0.7613
2 -11 3 -1.2687 -0.0370
2 -11 4 1.5032 0.1643
2 -11 5 0.6329 -0.1370
2 -11 6 -0.5699 -0.1461
2 -11 7 -1.6354 0.2342
2 -11 8 -1.9502 -0.0194
2 -11 9 -3.3412 0.0586
2 -11 10 2.7114 -0.0207
2 -11 11 8.2313 -0.0767
2 -11 12 1.5027 0.0684
2 -11 13 0.4365 0.0045
2 -11 14 -1.1351 -0.0188
2 -11 15 -0.4329 0.0526
2 -11 16 -3.6066 0.0069
2 -11 17 -3.8442 -0.0537
2 -11 18 5.0283 0.1060
2 -11 19 8.8390 0.0452
2 -10 0 -6.6729 1.0711
2 -10 1 -6.6123 1.1939
2 -10 2 -0.9055 -0.3354
2 -10 3 5.3795 -0.5328
2 -10 4 -1.7792 0.0210
2 -10 5 -2.9117 0.0860
2 -10 6 2.6997 -0.0774
2 -10 7 3.2354 -0.0744
2 -10 8 0.0961 0.2267
2 -10 9 -4.1956 -0.1064
2 -10 10 -3.1001 0.0167
2 -10 11 4.1708 0.0613
2 -10 12 5.8266 -0.0946
2 -10 13 -2.9519 0.0936
2 -10 14 1.9495 0.0742
2 -10 15 2.8478 0.0025
2 -10 16 -1.3355 0.0420
2 -10 17 -2.9786 0.0986
2 -10 18 -4.1288 -0.0496
2 -10 19 6.7093 0.0508
2 -10 20 13.7887 -0.0146
2 -9 0 -0.1964 -0.5315
2 -9 1 -1.2462 0.7126
2 -9 2 -3.1277 0.7886
2 -9 3 -3.5194 -0.3624
2 -9 4 3.0616 -0.0085
2 -9 5 2.2066 0.1259
2 -9 6 -1.7090 -0.1564
2 -9 7 3.1379 -0.0468
2 -9 8 1.0757 -0.0458
2 -9 9 -3.1165 0.1030
2 -9 10 -2.9755 -0.1265
2 -9 11 -0.4923 -0.0112
2 -9 12 0.6619 0.1411
2 -9 13 1.8581 -0.0783
2 -9 14 -0.1815 0.0693
2 -9 15 5.5051 0.0549
2 -9 16 2.1899 -0.0411
2 -9 17 -7.1563 -0.0119
2 -9 18 -4.8025 0.1480
2 -9 19 -1.0659 -0.0377
2 -9 20 11.4451 0.0238
2 -9 21 11.5021 0.0560
2 -9 22 -3.5056 0.0140
2 -8 0 1.7848 -1.1375
2 -8 1 -1.4422 -0.3433
2 -8 2 -8.4778 0.3897
2 -8 3 -2.6017 0.6160
2 -8 4 2.3736 -0.2368
2 -8 5 6.5588 0.1733
2 -8 6 0.9745 0.0546
2 -8 7 -7.5995 -0.2720
2 -8 8 0.5782 0.0763
2 -8 9 1.9264 -0.0301
2 -8 10 -4.3469 -0.0883
2 -8 11 -3.4933 -0.0288
2 -8 12 -0.7143 0.0440
2 -8 13 -0.5744 0.1107
2 -8 14 6.7776 -0.1308
2 -8 15 4.0130 -0.0041
2 -8 16 -2.1476 0.0300
2 -8 17 -4.2191 -0.0513
2 -8 18 -7.1129 -0.0342
2 -8 19 -0.6325 0.1479
2 -8 20 1.1447 -0.0341
2 -8 21 8.4180 -0.0247
2 -8 22 3.2139 0.0813
2 -8 23 -7.0490 0.0027
2 -7 0 -13.2543 -0.5033
2 -7 1 -4.8402 -0.9679
2 -7 2 8.5248 0.0961
2 -7 3 -1.3890 0.0434
2 -7 4 -3.3034 0.2574
2 -7 5 -2.2950 -0.1461
2 -7 6 1.0558 0.2711
2 -7 7 4.3609 0.0728
2 -7 8 -0.6432 -0.2324
2 -7 9 -1.4060 0.1232
2 -7 10 -5.8266 0.0048
2 -7 11 -10.0139 -0.1564
2 -7 12 0.5134 0.0827
2 -7 13 7.9428 0.0476
2 -7 14 3.0334 -0.0118
2 -7 15 6.8855 -0.0947
2 -7 16 0.2570 0.0124
2 -7 17 -9.5772 0.0023
2 -7 18 -3.4047 -0.0700
2 -7 19 -4.8512 -0.0478
2 -7 20 -1.2993 0.0921
2 -7 21 1.9362 -0.0158
2 -7 22 8.9362 -0.0056
2 -7 23 3.2147 0.1021
2 -7 24 -6.2209 -0.0153
2 -6 0 1.8610 1.1903
2 -6 1 3.8684 -0.2155
2 -6 2 -0.3051 -0.8535
2 -6 3 5.8450 0.2158
2 -6 4 -8.5079 -0.2035
2 -6 5 -6.4392 0.1105
2 -6 6 8.3345 0.0422
2 -6 7 9.6863 0.2506
2 -6 8 4.3087 0.0019
2 -6 9 -7.6521 -0.1100
2 -6 10 -12.6886 0.1877
2 -6 11 -4.4255 0.0204
2 -6 12 2.7599 -0.1798
2 -6 13 7.0150 0.1325
2 -6 14 7.1427 0.0867
2 -6 15 0.2525 -0.0886
2 -6 16 4.3230 -0.0371
2 -6 17 0.2112 0.0269
2 -6 18 -12.6422 -0.0094
2 -6 19 -4.3981 -0.0469
2 -6 20 -1.7908 -0.0490
2 -6 21 3.4167 0.0147
2 -6 22 6.4948 0.0265
2 -6 23 5.1605 0.0230
2 -6 24 0.6126 0.0363
2 -6 25 -3.9836 -0.0421
2 -6 26 5.2392 0.0329
2 -5 0 10.1473 0.0668
2 -5 1 -5.9474 0.6937
2 -5 2 -2.2057 -0.1397
2 -5 3 -8.3989 -0.6408
2 -5 4 10.7076 0.4069
2 -5 5 10.7342 -0.2384
2 -5 6 -1.6770 -0.0554
2 -5 7 1.9560 0.0403
2 -5 8 0.7247 0.1754
2 -5 9 -1.0189 -0.0083
2 -5 10 -2.3458 -0.0102
2 -5 11 -6.8708 0.1762
2 -5 12 2.1716 -0.0143
2 -5 13 7.2571 -0.1294
2 -5 14 0.0609 0.1225
2 -5 15 3.1724 0.0800
2 -5 16 1.3904 -0.1113
2 -5 17 -0.0794 0.0604
2 -5 18 -1.6782 0.0506
2 -5 19 -8.9073 -0.0450
2 -5 20 1.2277 -0.0628
2 -5 21 4.2685 -0.0436
2 -5 22 0.3680 -0.0194
2 -5 23 -0.0908 0.0345
2 -5 24 1.0211 -0.0171
2 -5 25 6.6937 0.0145
2 -5 26 3.7665 0.0694
2 -5 27 4.0744 0.1778
2 -4 0 26.5104 -0.2611
2 -4 1 13.9889 0.0323
2 -4 2 -16.9318 0.3880
2 -4 3 4.3853 0.1069
2 -4 4 8.9855 -0.3394
2 -4 5 7.4777 0.3197
2 -4 6 5.5054 -0.4008
2 -4 7 -10.6779 -0.1372
2 -4 8 -2.0410 0.1017
2 -4 9 9.7341 0.0554
2 -4 10 0.8502 -0.0658
2 -4 11 -2.9653 0.0092
2 -4 12 -5.6731 0.1670
2 -4 13 3.2112 -0.0462
2 -4 14 8.1603 -0.1060
2 -4 15 -6.3079 0.0790
2 -4 16 -3.2105 0.1213
2 -4 17 0.6959 -0.0806
2 -4 18 -0.2766 0.0476
2 -4 19 3.4200 -0.0089
2 -4 20 -0.0430 -0.0333
2 -4 21 -1.2853 -0.0133
2 -4 22 -1.8619 -0.0325
2 -4 23 -4.8110 -0.0693
2 -4 24 1.0605 0.0266
2 -4 25 6.1354 0.0015
2 -4 26 9.0288 0.0548
2 -4 27 2.0281 0.0600
2 -3 0 21.7145 -1.2030
2 -3 1 41.7156 -0.0407
2 -3 2 40.3292 0.3793
2 -3 3 -28.6720 0.1620
2 -3 4 -27.7386 0.0152
2 -3 5 11.2366 -0.2417
2 -3 6 15.2235 0.2463
2 -3 7 14.8877 -0.3566
2 -3 8 -9.4978 -0.1462
2 -3 9 -16.0405 0.0935
2 -3 10 4.5113 -0.1089
2 -3 11 1.1455 -0.0490
2 -3 12 1.9531 0.0500
2 -3 13 1.4438 0.1076
2 -3 14 -3.2798 -0.0512
2 -3 15 -0.2655 -0.0356
2 -3 16 -8.4190 0.0307
2 -3 17 -0.5517 0.0845
2 -3 18 6.4436 -0.1069
2 -3 19 0.5091 0.0425
2 -3 20 -1.2666 0.0372
2 -3 21 -0.8623 0.0081
2 -3 22 -2.9016 -0.0271
2 -3 23 -1.3843 -0.0230
2 -3 24 -0.2800 -0.0331
2 -3 25 2.2332 0.0218
2 -3 26 3.9962 -0.0753
2 -3 27 3.0619 -0.0020
2 -3 28 -1.0614 0.0782
2 -2 0 31.1316 0.3053
2 -2 1 45.6936 -0.8782
2 -2 2 12.4034 0.3140
2 -2 3 -4.3112 0.2952
2 -2 4 -35.8123 -0.2694
2 -2 5 -10.0732 0.0696
2 -2 6 51.0114 0.0815
2 -2 7 16.7768 0.1884
2 -2 8 -25.3534 -0.3266
2 -2 9 -24.5344 -0.1571
2 -2 10 -10.2732 0.1686
2 -2 11 18.5976 -0.1621
2 -2 12 7.9970 -0.0811
2 -2 13 -7.2014 0.0801
2 -2 14 -5.3908 0.0794
2 -2 15 -6.5123 -0.0232
2 -2 16 5.3977 -0.0095
2 -2 17 1.4893 -0.0614
2 -2 18 -0.9533 0.0781
2 -2 19 -1.3469 -0.0404
2 -2 20 -3.1885 0.0423
2 -2 21 -1.7504 0.0335
2 -2 22 2.7836 0.0018
2 -2 23 1.2386 -0.0167
2 -2 24 -1.8074 0.0071
2 -2 25 1.8772 -0.0787
2 -2 26 0.5729 -0.0501
2 -2 27 -1.8845 -0.0140
2 -2 28 -2.9804 0.1500
2 -2 29 -1.7584 0.1619
2 -1 0 35.0415 0.8049
2 -1 1 -30.6699 0.3011
2 -1 2 -23.0126 -0.9076
2 -1 3 1.1861 0.3353
2 -1 4 28.7898 0.2733
2 -1 5 20.4009 -0.3058
2 -1 6 -15.6958 0.2299
2 -1 7 10.7563 0.2129
2 -1 8 -6.5645 0.0204
2 -1 9 -28.5078 -0.1345
2 -1 10 4.5496 -0.0557
2 -1 11 3.6887 0.1129
2 -1 12 2.9059 -0.2071
2 -1 13 -2.3738 -0.1045
2 -1 14 -7.7805 0.1550
2 -1 15 3.7965 0.0355
2 -1 16 1.3516 -0.0802
2 -1 17 3.8709 0.0529
2 -1 18 -1.8639 -0.0301
2 -1 19 -4.6099 0.0589
2 -1 20 -1.3831 -0.0388
2 -1 21 1.6888 -0.0023
2 -1 22 -1.1675 0.0226
2 -1 23 -2.1266 -0.0311
2 -1 24 3.8033 -0.0688
2 -1 25 1.4447 0.0300
2 -1 26 1.9232 -0.0088
2 -1 27 -3.4831 0.0532
2 -1 28 -7.8500 0.0878
2 -1 29 -2.0907 0.0604
2 -1 30 3.0089 -0.0264
2 0 1 -13.8300 0.2668
2 0 3 0.3720 -0.6641
2 0 4 49.6001 0.5472
2 0 5 14.8457 0.3048
2 0 6 -11.1821 -0.4147
2 0 7 -27.5429 0.1754
2 0 8 8.7119 0.3181
2 0 9 17.3498 -0.0534
2 0 10 -22.3025 -0.0246
2 0 11 -3.6616 -0.0263
2 0 12 2.4237 -0.0210
2 0 13 -0.2089 -0.0987
2 0 14 4.8426 -0.0899
2 0 15 -3.0031 0.0835
2 0 16 1.6126 -0.0173
2 0 17 -0.0063 -0.0625
2 0 18 2.0189 0.1471
2 0 19 0.1660 -0.0231
2 0 20 -0.8954 -0.0634
2 0 21 -1.2377 -0.0356
2 0 22 -2.1248 0.0072
2 0 23 -2.0788 -0.0293
2 0 24 -1.9544 -0.0560
2 0 25 8.5894 -0.0046
2 0 26 1.8942 0.1441
2 0 27 -5.2832 -0.0072
2 0 28 -3.1452 -0.0631
2 0 29 -2.3588 0.0282
2 0 30 2.9405 -0.0002
2 1 0 6.1928 -0.5636
2 1 1 63.6303 1.0863
2 1 2 8.3623 -0.0915
2 1 3 -50.6822 0.0097
2 1 4 -25.2053 -0.2065
2 1 5 30.6337 0.4184
2 1 6 -2.0426 0.0629
2 1 7 0.6752 -0.4142
2 1 8 5.0060 0.1541
2 1 9 -4.9254 0.3030
2 1 10 7.2172 -0.1720
2 1 11 -15.7903 -0.0059
2 1 12 0.4108 0.1304
2 1 13 11.6789 -0.1122
2 1 14 -2.6042 -0.0535
2 1 15 -0.3852 -0.0782
2 1 16 -0.9274 -0.0024
2 1 17 3.7773 0.0021
2 1 18 2.7194 -0.0324
2 1 19 0.8452 0.0976
2 1 20 -1.5999 -0.0283
2 1 21 -0.5373 -0.0900
2 1 22 -1.2010 0.0283
2 1 23 -2.4644 0.0624
2 1 24 3.2791 -0.0559
2 1 25 1.1861 -0.0298
2 1 26 4.2677 0.0175
2 1 27 -0.8419 0.0571
2 1 28 -6.2845 -0.1061
2 1 29 4.1524 -0.0798
2 2 0 -36.4814 -0.5476
2 2 1 17.3962 -0.8461
2 2 2 56.8080 1.0220
2 2 3 -23.1475 -0.0317
2 2 4 -56.5904 -0.0541
2 2 5 -16.3649 -0.0634
2 2 6 35.9746 0.1964
2 2 7 -0.4138 -0.0766
2 2 8 -8.4659 -0.2461
2 2 9 15.4206 0.1007
2 2 10 -3.3706 0.1507
2 2 11 6.7356 -0.1363
2 2 12 -5.2267 0.0376
2 2 13 -7.9914 0.2188
2 2 14 9.1019 -0.1997
2 2 15 5.4217 -0.0244
2 2 16 3.7449 0.0291
2 2 17 0.1865 -0.0703
2 2 18 0.2148 -0.0607
2 2 19 0.3599 0.0043
2 2 20 0.2858 0.0677
2 2 21 0.0260 0.0411
2 2 22 1.7174 -0.0295
2 2 23 1.5357 0.0386
2 2 24 0.6727 0.0691
2 2 25 7.7320 -0.0891
2 2 26 2.1416 -0.0453
2 2 27 -3.6872 0.0197
2 2 28 -1.7650 0.0120
2 2 29 -1.7672 -0.0623
2 2 30 6.6059 -0.0531
2 3 0 -22.6950 -0.3715
2 3 1 -38.9125 -0.2168
2 3 2 -8.9610 -0.7413
2 3 3 44.3554 0.6953
2 3 4 -11.5141 -0.0427
2 3 5 -30.1637 -0.1965
2 3 6 -17.7899 0.0182
2 3 7 10.2544 0.1807
2 3 8 11.8108 -0.0801
2 3 9 6.5221 -0.0637
2 3 10 24.1386 0.0920
2 3 11 -11.8269 -0.0295
2 3 12 -12.3285 -0.0475
2 3 13 2.8919 0.0547
2 3 14 2.4561 0.2000
2 3 15 13.0398 -0.1804
2 3 16 7.2343 0.0146
2 3 17 -1.8382 0.0787
2 3 18 -3.0716 -0.0854
2 3 19 2.3039 -0.0935
2 3 20 1.6169 0.0938
2 3 21 -0.5213 0.0439
2 3 22 0.7746 0.0188
2 3 23 6.1732 -0.0095
2 3 24 6.9121 -0.0019
2 3 25 3.5456 0.0483
2 3 26 4.9573 -0.0515
2 3 27 -2.0914 -0.0137
2 3 28 -8.1231 0.0610
2 3 29 0.1947 -0.0298
2 3 30 2.4210 -0.0841
2 3 31 2.1376 -0.1093
2 3 32 0.7637 0.2449
2 4 0 -26.6125 0.4382
2 4 1 -39.4978 -0.1588
2 4 2 0.2535 -0.1030
2 4 3 4.2343 -0.6189
2 4 4 19.8696 0.2670
2 4 5 -18.9722 -0.0577
2 4 6 -20.5205 -0.1765
2 4 7 1.8328 0.1037
2 4 8 20.2075 0.2476
2 4 9 21.9873 -0.0383
2 4 10 -6.0667 -0.0103
2 4 11 0.7651 0.0808
2 4 12 -7.1161 -0.1318
2 4 13 -2.5958 0.0434
2 4 14 12.2186 0.0660
2 4 15 1.0562 0.1000
2 4 16 2.3791 -0.1334
2 4 17 5.6474 0.0807
2 4 18 2.5425 0.0721
2 4 19 -1.0718 -0.0359
2 4 20 -0.9620 -0.1077
2 4 21 -1.8355 0.1039
2 4 22 1.6968 -0.0005
2 4 23 7.0416 -0.0459
2 4 24 9.7756 0.0042
2 4 25 3.5734 -0.0127
2 4 26 -2.8438 0.0257
2 4 27 -0.2988 0.0070
2 4 28 -1.6179 0.0072
2 4 29 -4.0658 0.0611
2 4 30 0.8349 -0.0735
2 4 31 0.7024 -0.1306
2 4 32 -2.2273 -0.1279
2 5 0 13.4878 -0.0829
2 5 1 1.1516 0.5684
2 5 2 -17.7419 0.0337
2 5 3 8.3823 -0.1744
2 5 4 -17.3924 -0.3738
2 5 5 -0.4107 0.0476
2 5 6 12.0532 -0.1016
2 5 7 6.3220 -0.0966
2 5 8 4.5153 0.1004
2 5 9 2.1302 0.1670
2 5 10 13.0683 -0.0452
2 5 11 -3.8013 0.0108
2 5 12 -1.6668 0.1394
2 5 13 0.9389 -0.1097
2 5 14 -4.3354 0.0334
2 5 15 5.1303 0.0271
2 5 16 1.2565 0.0389
2 5 17 2.3410 -0.0934
2 5 18 3.3662 0.1255
2 5 19 1.4709 -0.0011
2 5 20 -2.7757 0.0185
2 5 21 -2.3520 -0.0567
2 5 22 1.2727 0.0626
2 5 23 5.3975 -0.0471
2 5 24 3.7262 -0.0791
2 5 25 0.6692 0.0329
2 5 26 -2.3011 0.0088
2 5 27 -3.8737 -0.0158
2 5 28 2.2030 0.0040
2 5 29 1.3181 0.0265
2 5 30 -1.2666 0.0715
2 6 0 8.4592 -0.3987
2 6 1 3.5395 -0.1752
2 6 2 1.1348 0.4189
2 6 3 -14.8786 0.2236
2 6 4 13.3251 -0.1907
2 6 5 0.7378 -0.1322
2 6 6 0.9714 -0.0004
2 6 7 8.3855 -0.1919
2 6 8 -2.7250 -0.1210
2 6 9 2.2582 0.0096
2 6 10 6.9329 0.0553
2 6 11 10.9093 0.0053
2 6 12 -7.1794 0.0788
2 6 13 -8.2253 0.1316
2 6 14 4.3342 -0.0915
2 6 15 -1.6414 0.0092
2 6 16 1.8724 0.0036
2 6 17 -0.1401 0.0258
2 6 18 -1.5861 -0.1066
2 6 19 -0.4796 0.1476
2 6 20 3.1134 -0.0266
2 6 21 1.2053 0.0371
2 6 22 -2.9260 -0.0165
2 6 23 -2.1513 -0.0019
2 6 24 -0.1259 -0.0412
2 6 25 -2.8020 -0.0146
2 6 26 -3.7782 0.0580
2 6 27 -0.3475 -0.0157
2 6 28 -1.7634 -0.0668
2 6 29 3.6021 -0.0175
2 6 30 2.8269 0.0904
2 7 0 10.2644 0.0780
2 7 1 0.2071 -0.4442
2 7 2 -8.1468 -0.0991
2 7 3 18.7722 0.1781
2 7 4 8.0258 0.2242
2 7 5 5.3480 -0.1594
2 7 6 -8.0113 0.0695
2 7 7 -10.1838 0.0424
2 7 8 9.2837 -0.2545
2 7 9 3.7916 -0.1490
2 7 10 -1.6862 -0.0096
2 7 11 -4.7238 0.0093
2 7 12 1.6541 -0.0218
2 7 13 2.9115 0.0886
2 7 14 0.0245 0.0798
2 7 15 1.7774 -0.0498
2 7 16 -7.3256 0.0374
2 7 17 0.2780 -0.0268
2 7 18 1.7643 0.0357
2 7 19 -2.3510 -0.0780
2 7 20 -0.4713 0.1246
2 7 21 4.4006 -0.0749
2 7 22 0.9164 -0.0060
2 7 23 -7.7555 0.0381
2 7 24 -6.0824 0.0091
2 7 25 -2.4933 -0.0200
2 7 26 -2.9499 0.0223
2 7 27 -5.7652 0.0528
2 7 28 -0.4255 -0.0303
2 7 29 0.4836 -0.0599
2 7 30 5.6175 -0.0647
2 8 0 -10.6143 0.4638
2 8 1 -1.5305 0.2335
2 8 2 8.8847 -0.5001
2 8 3 -0.7365 -0.0714
2 8 4 11.3782 0.0022
2 8 5 -0.1066 0.1808
2 8 6 -2.2037 -0.0705
2 8 7 1.7878 0.1954
2 8 8 -5.6696 0.0929
2 8 9 -0.0755 -0.2141
2 8 10 -6.9258 -0.0975
2 8 11 -7.7187 -0.0506
2 8 12 -0.4444 -0.0327
2 8 13 6.0845 -0.0758
2 8 14 7.1243 0.0841
2 8 15 -2.3231 0.0234
2 8 16 -1.6739 -0.0249
2 8 17 -2.4800 0.0953
2 8 18 2.5493 -0.0235
2 8 19 -0.8488 0.0309
2 8 20 -4.0444 -0.0494
2 8 21 3.9599 0.0531
2 8 22 5.6249 -0.0997
2 8 23 -3.8198 -0.0175
2 8 24 -12.0599 0.0496
2 8 25 -5.1312 0.0122
2 8 26 -2.1528 -0.0145
2 8 27 -3.4466 0.0413
2 8 28 -6.7926 0.0522
2 8 29 -0.5566 -0.0568
2 8 30 3.5744 -0.0499
2 9 0 4.6004 -0.0253
2 9 1 -3.1537 0.3283
2 9 2 -13.9542 0.1994
2 9 3 0.6564 -0.4320
2 9 4 -2.6135 0.1183
2 9 5 7.3924 0.0136
2 9 6 9.7126 0.0504
2 9 7 1.2639 -0.0912
2 9 8 -2.7147 0.2340
2 9 9 -12.7155 0.1462
2 9 10 0.0153 -0.1615
2 9 11 0.7715 -0.0140
2 9 12 -7.8294 -0.0882
2 9 13 -3.5535 -0.0232
2 9 14 2.1529 -0.1021
2 9 15 9.2696 0.0207
2 9 16 2.6159 -0.0213
2 9 17 -1.2616 0.0384
2 9 18 -3.1016 0.1317
2 9 19 0.2488 -0.0340
2 9 20 2.3804 0.0069
2 9 21 1.8066 -0.0069
2 9 22 4.6452 0.0178
2 9 23 -2.0300 -0.1171
2 9 24 -9.5089 -0.0209
2 9 25 -10.1941 0.0305
2 9 26 0.2425 0.0246
2 9 27 -1.3567 -0.0396
2 9 28 -5.4956 -0.0081
2 9 29 -6.7526 0.0542
2 9 30 -2.2434 -0.0179
2 10 0 -9.2780 -0.2525
2 10 1 -3.8946 -0.2108
2 10 2 -7.3441 0.2357
2 10 3 -14.8866 0.2571
2 10 4 6.8255 -0.2274
2 10 5 4.5869 0.2018
2 10 6 0.5325 -0.0546
2 10 7 9.8471 -0.0739
2 10 8 3.3861 -0.0646
2 10 9 2.7700 0.1880
2 10 10 -3.0466 0.1237
2 10 11 0.1548 -0.1319
2 10 12 -3.0507 0.1038
2 10 13 -12.5329 -0.0892
2 10 14 -0.4777 -0.0238
2 10 15 4.8395 -0.0853
2 10 16 3.8381 -0.0034
2 10 17 -0.0659 -0.0346
2 10 18 -0.6421 0.0723
2 10 19 2.6321 0.0996
2 10 20 4.5816 -0.0351
2 10 21 2.9136 0.0187
2 10 22 -2.7595 -0.0002
2 10 23 -2.4687 0.0161
2 10 24 -4.4664 -0.1058
2 10 25 -4.3097 -0.0135
2 10 26 -4.6450 -0.0224
2 10 27 -0.4136 0.0011
2 10 28 -4.0532 -0.0542
2 10 29 -7.8558 -0.0038
2 10 30 -4.1778 0.1173
2 11 0 -5.8859 0.2693
2 11 1 -9.5195 -0.2684
2 11 2 -3.0470 -0.2172
2 11 3 1.7094 0.2215
2 11 4 -4.4258 0.1252
2 11 5 1.9859 -0.2005
2 11 6 -1.3717 0.2406
2 11 7 0.1988 -0.0007
2 11 8 22.9544 -0.0905
2 11 9 11.9922 -0.0493
2 11 10 0.2010 0.0313
2 11 11 -4.8770 0.0940
2 11 12 -6.4441 -0.0442
2 11 13 -0.2411 0.1610
2 11 14 -5.9975 -0.0977
2 11 15 -2.7362 -0.0082
2 11 16 -2.4853 -0.0177
2 11 17 -2.2454 -0.0017
2 11 18 5.2838 -0.0736
2 11 19 5.2109 0.0610
2 11 20 2.5458 0.0791
2 11 21 0.0549 -0.0512
2 11 22 -0.9340 0.0009
2 11 23 -3.2359 -0.0394
2 11 24 -0.6656 0.0414
2 11 25 -1.8522 -0.0874
2 11 26 -3.1931 -0.0273
2 11 27 -6.0419 -0.0436
2 11 28 -3.8351 0.0159
2 11 29 -0.7955 -0.0442
2 11 30 -3.1123 -0.0509
2 12 0 1.0473 0.7136
2 12 1 -7.2241 0.2520
2 12 2 -5.6613 -0.2102
2 12 3 -2.3501 -0.2724
2 12 4 4.2055 0.0949
2 12 5 1.4354 0.0390
2 12 6 -3.7952 -0.0802
2 12 7 -0.1898 0.2494
2 12 8 7.2743 -0.0128
2 12 9 21.6503 -0.0938
2 12 10 5.5574 0.0427
2 12 11 -8.7487 -0.0365
2 12 12 -2.3052 0.0634
2 12 13 -4.7641 0.0167
2 12 14 1.0823 0.0915
2 12 15 -3.3288 -0.1227
2 12 16 -9.0996 0.0425
2 12 17 -3.2973 0.0442
2 12 18 0.2155 -0.0052
2 12 19 4.2239 -0.0992
2 12 20 1.3820 0.0103
2 12 21 1.9909 0.0363
2 12 22 3.9106 -0.1199
2 12 23 1.8655 -0.0371
2 12 24 -3.9582 -0.0433
2 12 25 -4.4003 0.0740
2 12 26 -3.0461 -0.0824
2 13 0 0.5077 0.0173
2 13 1 -8.6066 0.7891
2 13 2 -9.1645 0.0273
2 13 3 -3.9481 -0.1603
2 13 4 1.9318 -0.1332
2 13 5 5.9766 0.0672
2 13 6 -0.9594 0.0006
2 13 7 -10.0528 -0.0526
2 13 8 1.0133 0.1298
2 13 9 7.1574 0.0143
2 13 10 5.9591 0.0433
2 13 11 -2.1606 0.1133
2 13 12 -9.4489 -0.1069
2 13 13 3.6887 0.0014
2 13 14 0.9115 0.0541
2 13 15 -1.8029 -0.0131
2 13 16 -4.1599 -0.1411
2 13 17 -12.3459 0.1240
2 13 18 -2.6304 0.0737
2 13 19 2.3233 -0.0543
2 13 20 2.9439 -0.1136
2 13 21 4.4351 -0.0470
2 13 22 7.5642 0.0022
2 13 23 2.7583 -0.1180
2 13 24 -4.8537 -0.0183
2 13 25 -6.5135 -0.0396
2 14 0 -6.4048 -0.8117
2 14 1 -10.2557 -0.1356
2 14 2 -8.8099 0.6756
2 14 3 -1.9098 -0.0258
2 14 4 -2.2472 -0.0215
2 14 5 -0.7175 -0.0163
2 14 6 -0.6431 -0.0622
2 14 7 -6.4818 -0.0113
2 14 8 -5.7590 0.0483
2 14 9 1.9243 0.0360
2 14 10 -1.8505 -0.0352
2 14 11 -9.3570 0.1011
2 14 12 0.2383 0.0819
2 14 13 1.1567 -0.0942
2 14 14 7.6555 0.0242
2 14 15 3.3593 0.0440
2 14 16 -10.1659 -0.0779
2 14 17 -8.6088 -0.0876
2 14 18 -7.8269 0.1942
2 14 19 4.0469 0.0300
2 14 20 8.3341 -0.1114
2 14 21 4.0926 -0.0401
2 14 22 2.1441 0.0037
2 14 23 2.4013 0.0112
2 14 24 -1.5102 -0.0793
2 14 25 -2.8315 -0.0477
2 15 0 3.5623 -0.4492
2 15 1 -10.1233 -0.6871
2 15 2 -9.6798 -0.1725
2 15 3 -3.8128 0.5395
2 15 4 -0.5291 -0.0444
2 15 5 -1.5756 -0.0327
2 15 6 -3.0351 0.0414
2 15 7 -3.0032 -0.0661
2 15 8 -3.8039 0.0379
2 15 9 4.3530 0.0372
2 15 10 1.5552 -0.1084
2 15 11 -8.0688 -0.1106
2 15 12 -9.7063 0.1568
2 15 13 8.0088 0.0499
2 15 14 9.1519 -0.0924
2 15 15 4.1862 0.0668
2 15 16 0.8905 0.0494
2 15 17 -13.4675 0.0122
2 15 18 -6.8450 0.0358
2 15 19 2.6012 0.1711
2 15 20 7.6181 -0.0416
2 15 21 5.8457 -0.0559
2 15 22 1.1839 0.0910
2 15 23 -0.8077 0.0371
2 15 24 1.6094 -0.0319
2 16 0 6.4914 0.2512
2 16 1 4.9513 -0.4885
2 16 2 -14.7804 -0.4257
2 16 3 -5.1012 -0.1217
2 16 4 7.3769 0.2790
2 16 5 3.8839 -0.0630
2 16 6 0.4789 0.0094
2 16 7 -5.4839 0.0897
2 16 8 2.7743 -0.1125
2 16 9 12.5282 0.0029
2 16 10 15.4571 0.0074
2 16 11 -0.9462 -0.1070
2 16 12 -9.4547 -0.1406
2 16 13 -1.8231 0.0733
2 16 14 12.2056 -0.0202
2 16 15 9.8824 -0.1094
2 16 16 -1.0899 0.1673
2 16 17 -0.9735 0.1543
2 16 18 -9.9027 0.1668
2 16 19 -4.6058 0.1048
2 16 20 5.0889 0.0715
2 16 21 6.1363 -0.0897
2 16 22 4.5892 0.0107
2 16 23 2.5110 0.1193
2 17 0 7.0634 0.3878
2 17 1 5.7121 0.0913
2 17 2 1.4024 -0.4264
2 17 3 -6.2249 -0.1289
2 17 4 5.5133 -0.0247
2 17 5 13.4127 0.0221
2 17 6 1.7610 -0.0830
2 17 7 3.2557 0.0831
2 17 8 5.3407 0.1112
2 17 9 17.3126 -0.1687
2 17 10 22.4884 -0.0171
2 17 11 11.7862 -0.0037
2 17 12 -2.6723 -0.1160
2 17 13 -1.3940 -0.1768
2 17 14 5.4771 -0.0817
2 17 15 7.0331 -0.0691
2 17 16 2.9841 -0.1096
2 17 17 -4.2870 0.2835
2 17 18 -1.2296 0.3081
2 17 19 -4.9087 0.2263
2 18 0 -2.8853 0.3364
2 18 1 12.3932 0.1361
2 18 2 8.4107 -0.1829
2 18 3 1.3585 -0.2547
2 18 4 -3.0725 0.2261
2 18 5 3.9426 0.0110
2 18 6 16.0380 -0.2346
2 18 7 8.9119 -0.0502
2 18 8 8.5834 0.2321
2 18 9 10.8260 0.1133
2 18 10 17.4975 -0.2613
2 18 11 19.4415 -0.0595
3 -17 0 2.9020 -0.4741
3 -17 1 -6.4417 0.1712
3 -17 2 -6.0842 0.2340
3 -17 3 -0.5559 -0.1783
3 -17 4 -0.9723 -0.1468
3 -16 0 -4.0811 -0.5294
3 -16 1 -0.2591 -0.4638
3 -16 2 -5.2882 0.2578
3 -16 3 -0.9982 0.2144
3 -16 4 2.8018 -0.0422
3 -16 5 -6.6052 0.0703
3 -15 0 12.7409 0.0270
3 -15 1 1.3488 -0.3932
3 -15 2 4.5245 -0.2851
3 -15 3 -0.5980 0.3276
3 -15 4 -2.9000 0.1169
3 -15 5 -2.4031 -0.0802
3 -15 6 -10.4718 0.1426
3 -15 7 -4.8873 0.1454
3 -15 8 7.1300 0.0914
3 -14 0 10.0600 0.2039
3 -14 1 19.5293 0.0503
3 -14 2 3.7753 -0.2073
3 -14 3 0.4019 -0.2241
3 -14 4 -0.7557 0.1424
3 -14 5 -4.1396 -0.0030
3 -14 6 -2.1639 -0.0474
3 -14 7 -7.3539 0.2394
3 -14 8 -2.7762 0.1020
3 -14 9 3.1508 0.0305
3 -14 10 -2.2129 0.0767
3 -14 11 -12.0026 -0.0286
3 -14 12 -7.0383 0.0779
3 -13 0 19.9377 -0.1485
3 -13 1 9.2806 0.1082
3 -13 2 12.3109 -0.0037
3 -13 3 2.6434 -0.1928
3 -13 4 -1.3970 -0.1678
3 -13 5 2.5758 0.0631
3 -13 6 -3.6727 0.0260
3 -13 7 -4.5607 -0.0166
3 -13 8 -7.7997 0.1507
3 -13 9 -3.6133 -0.0198
3 -13 10 0.4232 -0.0243
3 -13 11 0.4562 0.1170
3 -13 12 -5.6858 0.0250
3 -13 13 -2.4057 0.0647
3 -13 14 4.1755 0.0263
3 -12 0 4.5913 0.6326
3 -12 1 14.5592 -0.1914
3 -12 2 4.1420 -0.1156
3 -12 3 3.1220 0.0618
3 -12 4 1.8499 -0.0348
3 -12 5 -0.6966 -0.0643
3 -12 6 3.7482 -0.0200
3 -12 7 -4.8697 -0.0512
3 -12 8 -6.6831 -0.0859
3 -12 9 -5.6965 0.0507
3 -12 10 -1.5467 -0.0709
3 -12 11 0.7798 -0.0101
3 -12 12 1.8990 0.1344
3 -12 13 -2.4654 0.0702
3 -12 14 -0.4386 -0.0193
3 -12 15 4.0605 -0.0400
3 -12 16 0.8127 -0.1345
3 -12 17 -3.6943 0.0891
3 -11 0 13.0659 0.4634
3 -11 1 0.9091 0.4461
3 -11 2 2.3437 -0.0830
3 -11 3 -0.9699 -0.1089
3 -11 4 -1.5873 0.1433
3 -11 5 4.2796 0.0092
3 -11 6 2.6231 -0.1128
3 -11 7 1.0174 -0.0562
3 -11 8 -6.1509 -0.0438
3 -11 9 -5.6847 -0.1184
3 -11 10 -2.9026 0.0128
3 -11 11 0.5800 -0.1068
3 -11 12 2.3759 0.0205
3 -11 13 1.3339 0.1396
3 -11 14 -1.4236 0.0451
3 -11 15 -1.2027 -0.1493
3 -11 16 -1.4819 -0.0709
3 -11 17 -2.5829 -0.0813
3 -11 18 -1.3995 0.1211
3 -11 19 -1.6918 0.1092
3 -10 0 5.1744 0.0955
3 -10 1 3.6990 0.6375
3 -10 2 -4.4916 0.2547
3 -10 3 1.3967 -0.0116
3 -10 4 3.8342 -0.1027
3 -10 5 -2.1731 0.0544
3 -10 6 1.4293 0.0840
3 -10 7 0.7790 -0.0377
3 -10 8 -2.1171 -0.0368
3 -10 9 -3.0840 -0.0109
3 -10 10 -1.7094 -0.1186
3 -10 11 1.0306 0.0669
3 -10 12 4.7122 -0.0937
3 -10 13 1.9940 -0.0141
3 -10 14 -5.3312 0.0455
3 -10 15 -4.5110 -0.0118
3 -10 16 -0.4452 -0.0825
3 -10 17 -1.2263 0.1015
3 -10 18 0.9561 -0.0161
3 -10 19 1.5357 -0.0416
3 -10 20 -5.4218 -0.0358
3 -9 0 5.2798 -0.6565
3 -9 1 5.5849 0.1025
3 -9 2 3.7782 0.5556
3 -9 3 0.1183 -0.0464
3 -9 4 1.7517 0.0273
3 -9 5 1.3369 0.1082
3 -9 6 -2.9858 -0.0280
3 -9 7 -0.7926 0.0961
3 -9 8 -0.5660 0.0431
3 -9 9 -2.3403 -0.0398
3 -9 10 1.9300 0.0984
3 -9 11 4.2368 -0.0461
3 -9 12 4.6990 0.0492
3 -9 13 2.9142 -0.1155
3 -9 14 -5.7195 -0.0492
3 -9 15 -9.0026 0.0331
3 -9 16 0.9594 0.0476
3 -9 17 3.6271 0.0472
3 -9 18 -2.1965 0.1234
3 -9 19 0.8201 -0.0864
3 -9 20 2.8659 -0.1345
3 -9 21 -3.0019 0.0603
3 -9 22 0.3003 -0.0247
3 -8 0 -2.9379 -1.0604
3 -8 1 13.3671 -0.3661
3 -8 2 2.6712 -0.0309
3 -8 3 -2.0465 0.3582
3 -8 4 2.1853 -0.0061
3 -8 5 3.7028 0.1151
3 -8 6 3.4256 0.1642
3 -8 7 -3.1917 -0.2295
3 -8 8 -8.6361 0.0710
3 -8 9 -2.3342 0.1978
3 -8 10 5.3780 -0.0686
3 -8 11 8.4770 0.0970
3 -8 12 3.2702 0.0058
3 -8 13 -0.4940 0.0194
3 -8 14 -2.2600 -0.0426
3 -8 15 -5.2215 -0.0477
3 -8 16 -2.6810 -0.0300
3 -8 17 3.2480 0.0370
3 -8 18 -1.4113 0.0968
3 -8 19 -2.1235 0.0847
3 -8 20 6.3790 -0.0419
3 -8 21 4.2328 -0.0664
3 -8 22 -2.5136 0.1258
3 -8 23 2.0424 -0.0325
3 -7 0 -4.0238 0.0932
3 -7 1 -9.8670 -1.2145
3 -7 2 3.9068 -0.0204
3 -7 3 3.4277 0.0884
3 -7 4 7.3299 0.1303
3 -7 5 8.2601 0.0033
3 -7 6 -4.7106 0.0106
3 -7 7 -6.1063 0.1099
3 -7 8 -3.6388 -0.2433
3 -7 9 -4.2072 0.0527
3 -7 10 5.5128 0.1797
3 -7 11 8.6551 -0.1445
3 -7 12 -0.9254 0.0799
3 -7 13 -5.0220 0.1040
3 -7 14 0.6026 -0.0337
3 -7 15 0.9914 -0.0272
3 -7 16 -0.8200 -0.0506
3 -7 17 -1.7525 -0.0570
3 -7 18 -0.1452 0.0259
3 -7 19 -1.2399 0.0652
3 -7 20 2.6262 -0.0103
3 -7 21 5.9283 0.0301
3 -7 22 -3.7058 0.0171
3 -7 23 -2.4660 0.1221
3 -7 24 6.9597 -0.0374
3 -7 25 7.0095 0.0335
3 -6 0 -24.9664 0.4153
3 -6 1 -14.7924 0.0955
3 -6 2 -6.0122 -0.9243
3 -6 3 11.9624 0.2324
3 -6 4 9.8368 0.0282
3 -6 5 -2.0155 -0.2520
3 -6 6 -3.1165 0.0579
3 -6 7 -6.9143 0.0321
3 -6 8 0.7927 0.0757
3 -6 9 5.3683 -0.2149
3 -6 10 -3.0502 -0.0074
3 -6 11 -0.4869 0.0887
3 -6 12 2.2797 -0.1236
3 -6 13 -5.3439 0.0399
3 -6 14 -2.9107 0.1232
3 -6 15 5.5452 -0.0563
3 -6 16 1.8634 0.0214
3 -6 17 1.2278 -0.0090
3 -6 18 -0.3525 -0.0869
3 -6 19 -2.1087 -0.0509
3 -6 20 -0.8046 0.0045
3 -6 21 0.6846 -0.0260
3 -6 22 3.0236 0.1369
3 -6 23 -4.3261 0.0436
3 -6 24 0.8001 0.0237
3 -6 25 7.7940 -0.0632
3 -6 26 1.2602 0.0419
3 -5 0 3.7977 0.8882
3 -5 1 -21.3780 0.3533
3 -5 2 -15.0426 0.0975
3 -5 3 -5.1088 -0.6477
3 -5 4 2.1879 0.2057
3 -5 5 7.2016 -0.0489
3 -5 6 -1.1456 -0.4096
3 -5 7 2.2506 0.1850
3 -5 8 -0.9312 0.0565
3 -5 9 -2.5200 0.0463
3 -5 10 1.6639 -0.1394
3 -5 11 -0.9320 -0.0217
3 -5 12 -1.5122 -0.0029
3 -5 13 0.8803 -0.0539
3 -5 14 -2.9025 0.0253
3 -5 15 -0.8147 0.0995
3 -5 16 9.0477 -0.0564
3 -5 17 3.5861 0.0484
3 -5 18 0.1200 0.0388
3 -5 19 -2.5142 -0.0751
3 -5 20 -4.8863 -0.0705
3 -5 21 2.8128 0.0086
3 -5 22 3.4537 -0.0085
3 -5 23 2.6650 0.1182
3 -5 24 -4.5414 -0.0587
3 -5 25 -1.7872 -0.0727
3 -5 26 6.3511 0.0698
3 -5 27 0.5271 0.1498
3 -4 0 -4.5338 -0.4264
3 -4 1 0.9609 0.7698
3 -4 2 -31.4401 0.1779
3 -4 3 -25.1183 0.0593
3 -4 4 10.8621 -0.2973
3 -4 5 12.7580 0.1741
3 -4 6 4.9272 -0.1111
3 -4 7 -9.0465 -0.4486
3 -4 8 -2.0583 0.3168
3 -4 9 5.3880 0.0768
3 -4 10 2.9316 -0.0104
3 -4 11 2.4255 -0.0808
3 -4 12 0.7026 0.0280
3 -4 13 -5.0808 0.0019
3 -4 14 1.5453 -0.0117
3 -4 15 6.7717 -0.0484
3 -4 16 2.1319 0.0366
3 -4 17 5.1725 0.0169
3 -4 18 -1.3232 0.0964
3 -4 19 -3.3521 0.0466
3 -4 20 0.8332 -0.0800
3 -4 21 0.1889 -0.0270
3 -4 22 5.7122 0.0386
3 -4 23 2.7419 -0.0746
3 -4 24 -1.8808 -0.0237
3 -4 25 -3.1949 -0.0617
3 -4 26 -0.5552 0.0618
3 -4 27 6.2129 0.3045
3 -4 28 1.5363 0.0833
3 -3 0 -2.1180 -0.7243
3 -3 1 -15.3689 -0.6564
3 -3 2 -1.1437 0.5259
3 -3 3 2.0809 0.1784
3 -3 4 -8.8245 0.1151
3 -3 5 4.5645 -0.1226
3 -3 6 -7.2777 0.0450
3 -3 7 -7.4406 -0.0537
3 -3 8 6.6156 -0.3352
3 -3 9 13.9507 0.3073
3 -3 10 7.0651 -0.0479
3 -3 11 -3.5814 -0.0865
3 -3 12 -4.7702 0.0821
3 -3 13 5.8002 0.0960
3 -3 14 3.7582 -0.0677
3 -3 15 3.4428 -0.0392
3 -3 16 6.3980 -0.0316
3 -3 17 -3.9134 0.0459
3 -3 18 -0.7331 0.0316
3 -3 19 1.3884 0.0058
3 -3 20 -0.3262 0.0363
3 -3 21 1.0251 -0.0034
3 -3 22 -0.3715 0.0137
3 -3 23 4.3346 -0.0394
3 -3 24 4.2431 -0.1325
3 -3 25 -2.3667 0.0225
3 -3 26 -0.6106 0.1257
3 -3 27 2.5068 0.0708
3 -3 28 4.4910 0.1475
3 -2 0 -56.8733 0.7961
3 -2 1 15.6899 -0.7028
3 -2 2 39.3551 -0.5900
3 -2 3 8.7237 0.4706
3 -2 4 -12.8770 -0.0226
3 -2 5 -36.2977 -0.0513
3 -2 6 -3.4846 0.0409
3 -2 7 17.7296 0.0951
3 -2 8 12.1055 0.0291
3 -2 9 5.1198 -0.3433
3 -2 10 -2.0593 0.1218
3 -2 11 -4.1149 -0.0463
3 -2 12 5.9571 -0.0561
3 -2 13 5.4455 0.1484
3 -2 14 7.7860 0.0370
3 -2 15 1.1170 -0.1055
3 -2 16 -6.1492 0.0403
3 -2 17 4.3121 -0.0023
3 -2 18 0.2689 -0.0615
3 -2 19 0.4181 0.0092
3 -2 20 -0.9091 -0.0076
3 -2 21 -4.2885 0.0641
3 -2 22 -1.5042 0.0026
3 -2 23 4.1422 -0.0277
3 -2 24 6.9206 -0.0143
3 -2 25 2.8468 0.0073
3 -2 26 -3.0193 0.0258
3 -2 27 2.5923 0.0285
3 -2 28 6.6565 -0.0986
3 -2 29 -0.7965 0.0957
3 -1 0 19.2060 0.6201
3 -1 1 0.2124 0.9914
3 -1 2 22.9982 -0.4223
3 -1 3 21.4136 -0.6029
3 -1 4 -30.7879 0.2910
3 -1 5 -15.4353 -0.2364
3 -1 6 5.9929 -0.0511
3 -1 7 14.7731 0.2665
3 -1 8 10.1279 0.0268
3 -1 9 -9.7251 -0.0535
3 -1 10 -9.3590 -0.2063
3 -1 11 7.8750 0.0645
3 -1 12 6.1640 0.0012
3 -1 13 9.4781 -0.0975
3 -1 14 0.6381 0.0844
3 -1 15 -1.0456 0.0378
3 -1 16 1.9078 -0.0665
3 -1 17 -5.4634 0.0597
3 -1 18 3.5370 -0.0040
3 -1 19 0.3474 -0.0940
3 -1 20 -2.8656 0.0758
3 -1 21 -4.8001 -0.0197
3 -1 22 -1.0949 0.0014
3 -1 23 2.6469 0.0238
3 -1 24 4.4972 0.0036
3 -1 25 3.7370 -0.0121
3 -1 26 0.7228 0.0231
3 -1 27 1.9959 -0.0695
3 -1 28 3.9096 0.0336
3 -1 29 0.8504 0.0365
3 -1 30 -8.8064 0.1532
3 0 0 -7.7026 0.4784
3 0 1 29.2614 0.8577
3 0 2 -2.9422 0.7002
3 0 3 -15.8384 -0.2530
3 0 4 25.3258 -0.4738
3 0 5 1.6566 0.3645
3 0 6 -1.2264 -0.2487
3 0 7 5.9118 -0.1269
3 0 8 -8.2004 0.2754
3 0 9 -5.1241 0.0098
3 0 10 -1.0061 -0.0272
3 0 11 -2.5203 0.0261
3 0 12 9.6819 -0.0387
3 0 13 1.2718 -0.0386
3 0 14 4.7361 -0.0483
3 0 15 3.8168 0.0219
3 0 16 -3.8441 0.0190
3 0 17 0.7204 -0.0181
3 0 18 -6.7553 0.0747
3 0 19 0.1822 0.0594
3 0 20 0.7559 -0.0776
3 0 21 -0.7540 0.0696
3 0 22 -4.8351 -0.0426
3 0 23 -0.1078 -0.0461
3 0 24 4.2770 0.0282
3 0 25 0.6083 -0.0106
3 0 26 2.9107 -0.0461
3 0 27 1.9624 0.1343
3 0 28 1.6712 -0.0162
3 0 29 -3.2740 0.0162
3 0 30 -6.3793 0.0476
3 1 0 15.1983 -1.8160
3 1 1 -14.7108 0.3377
3 1 2 22.5464 0.7755
3 1 3 28.7593 0.2330
3 1 4 -5.1404 0.1609
3 1 5 12.1328 -0.1143
3 1 6 2.1381 0.3185
3 1 7 -12.3279 -0.2838
3 1 8 6.2730 -0.1513
3 1 9 -2.1412 0.2458
3 1 10 -16.1497 0.0560
3 1 11 -1.2752 -0.0700
3 1 12 0.4590 0.1123
3 1 13 11.8250 -0.0555
3 1 14 3.3167 -0.0400
3 1 15 -1.7136 0.0313
3 1 16 0.0376 -0.0601
3 1 17 -7.4445 -0.0089
3 1 18 2.1415 0.0991
3 1 19 -1.9702 0.0596
3 1 20 -0.9431 0.0253
3 1 21 -3.0559 -0.0769
3 1 22 -1.9323 0.0372
3 1 23 -4.2813 -0.0333
3 1 24 0.0421 -0.0499
3 1 25 6.9969 0.0238
3 1 26 -2.8386 0.0413
3 1 27 -0.0746 -0.0435
3 1 28 1.9117 0.1454
3 1 29 -2.3987 -0.0872
3 1 30 -7.3267 -0.1118
3 2 0 -24.0099 -0.5048
3 2 1 24.9257 -1.6310
3 2 2 22.0310 0.0305
3 2 3 20.0875 0.7486
3 2 4 19.3287 -0.0794
3 2 5 -16.8133 0.3620
3 2 6 -0.8724 0.0838
3 2 7 19.4151 0.2060
3 2 8 -10.0188 -0.1988
3 2 9 -11.1911 -0.0989
3 2 10 -5.9264 0.0786
3 2 11 -14.8819 0.0463
3 2 12 10.2933 -0.0714
3 2 13 7.9760 0.1060
3 2 14 0.6948 -0.0126
3 2 15 -4.0614 -0.0463
3 2 16 -4.9448 0.0662
3 2 17 3.3995 -0.0571
3 2 18 -3.4432 -0.0330
3 2 19 1.3001 0.1293
3 2 20 -2.7100 -0.0242
3 2 21 -4.6610 -0.0392
3 2 22 -5.9511 0.0033
3 2 23 -2.0177 0.0433
3 2 24 -1.1683 -0.0290
3 2 25 -1.3315 -0.0062
3 2 26 6.7301 0.0014
3 2 27 -2.9904 0.0393
3 2 28 -1.9348 -0.0975
3 2 29 2.5426 0.0598
3 2 30 -4.5493 -0.0789
3 2 31 -5.9801 -0.1297
3 3 0 6.9527 0.0454
3 3 1 -6.9727 -0.7690
3 3 2 12.3794 -1.0471
3 3 3 5.3355 -0.1582
3 3 4 4.0343 0.5171
3 3 5 21.6128 -0.3368
3 3 6 3.5435 0.3102
3 3 7 -12.5114 0.1733
3 3 8 -1.1053 0.1334
3 3 9 -11.3376 -0.1169
3 3 10 -9.7857 -0.0191
3 3 11 11.5624 -0.0249
3 3 12 -7.5386 0.0282
3 3 13 -1.4898 -0.0539
3 3 14 1.3313 0.0066
3 3 15 -2.3633 0.0170
3 3 16 2.8327 -0.0051
3 3 17 -1.2600 0.0369
3 3 18 0.4419 -0.0331
3 3 19 -5.5586 -0.0476
3 3 20 -0.7147 0.0980
3 3 21 -1.8716 -0.0351
3 3 22 -4.3460 -0.0430
3 3 23 -6.4119 0.0666
3 3 24 -3.1110 0.0207
3 3 25 2.1978 -0.0583
3 3 26 0.1722 0.0418
3 3 27 6.1504 -0.0273
3 3 28 -0.7306 0.0026
3 3 29 -3.5978 -0.0672
3 3 30 2.4114 0.0177
3 3 31 -1.4926 -0.0207
3 3 32 -2.1591 -0.1692
3 4 0 11.8341 1.7481
3 4 1 -8.2486 0.2930
3 4 2 -22.0526 -0.7772
3 4 3 3.1295 -0.5107
3 4 4 17.1307 -0.2626
3 4 5 5.3674 0.1769
3 4 6 -1.3973 -0.4345
3 4 7 -4.0515 0.1702
3 4 8 -12.7455 0.1625
3 4 9 2.3486 0.1470
3 4 10 5.1945 0.0078
3 4 11 -11.3115 0.0508
3 4 12 4.4074 -0.0738
3 4 13 -5.7808 -0.0220
3 4 14 -4.0744 -0.0215
3 4 15 5.4339 -0.0550
3 4 16 0.1089 -0.0180
3 4 17 2.6686 0.0324
3 4 18 -2.2944 0.0030
3 4 19 -1.6642 0.0088
3 4 20 -2.9647 -0.0110
3 4 21 -1.4338 0.0180
3 4 22 -3.5493 -0.0156
3 4 23 -2.8672 -0.0189
3 4 24 -1.1431 0.0632
3 4 25 1.1837 -0.0095
3 4 26 4.2867 -0.0652
3 4 27 -0.8875 0.0563
3 4 28 1.4988 -0.0164
3 4 29 1.6039 -0.0002
3 4 30 -0.9768 0.0336
3 4 31 3.1049 -0.0420
3 4 32 1.4951 -0.0319
3 5 0 -5.4110 -0.1230
3 5 1 -8.0887 1.2828
3 5 2 1.5081 0.4537
3 5 3 -0.8312 -0.6196
3 5 4 0.7212 -0.1742
3 5 5 -6.4759 -0.1896
3 5 6 -14.4944 -0.0778
3 5 7 -0.4250 -0.3970
3 5 8 17.2745 0.1255
3 5 9 1.7083 0.1272
3 5 10 -12.5894 0.1056
3 5 11 -0.1117 0.0490
3 5 12 -4.8967 0.0571
3 5 13 5.7419 -0.0397
3 5 14 -0.0076 0.0026
3 5 15 -6.4523 -0.0171
3 5 16 4.1940 -0.0761
3 5 17 0.9040 -0.0589
3 5 18 2.9258 0.0634
3 5 19 -1.1754 -0.0066
3 5 20 -1.8501 -0.0293
3 5 21 -2.3050 0.0089
3 5 22 -3.3275 -0.0387
3 5 23 -2.1801 0.0348
3 5 24 5.1062 0.0037
3 5 25 5.8092 0.0086
3 5 26 -0.1430 -0.0327
3 5 27 -1.6477 -0.0168
3 5 28 -2.3453 0.0416
3 5 29 2.0814 0.0222
3 5 30 4.2608 -0.0054
3 5 31 1.4740 0.0777
3 6 0 2.1819 -0.4559
3 6 1 3.9255 -0.0932
3 6 2 -1.3230 0.7568
3 6 3 -1.9708 0.4253
3 6 4 -8.3045 -0.2704
3 6 5 -4.8663 0.0280
3 6 6 -1.4694 -0.0721
3 6 7 -1.3945 -0.1638
3 6 8 2.5250 -0.2671
3 6 9 8.7715 0.0715
3 6 10 1.4920 -0.0291
3 6 11 -9.4448 -0.0155
3 6 12 6.4447 0.1155
3 6 13 -1.6662 0.0938
3 6 14 -5.1555 -0.0301
3 6 15 1.5403 0.0397
3 6 16 0.3152 -0.0163
3 6 17 3.5655 -0.0312
3 6 18 -3.5492 -0.0603
3 6 19 0.2281 0.0002
3 6 20 1.7036 -0.0153
3 6 21 -0.2684 -0.0698
3 6 22 -1.7339 0.0342
3 6 23 -1.7810 -0.0600
3 6 24 0.1993 0.0455
3 6 25 7.2823 -0.0018
3 6 26 4.0661 0.0099
3 6 27 -3.3696 -0.0048
3 6 28 -2.4019 0.0313
3 6 29 0.1323 -0.0375
3 6 30 2.9467 0.0257
3 6 31 2.9647 0.0174
3 7 0 0.6955 -0.0765
3 7 1 7.0663 -0.4578
3 7 2 -2.2634 -0.1467
3 7 3 -13.6521 0.5025
3 7 4 -0.0057 0.3074
3 7 5 12.1207 -0.0083
3 7 6 6.4046 0.0730
3 7 7 -6.1360 -0.0214
3 7 8 -8.8601 -0.1495
3 7 9 3.3297 -0.1480
3 7 10 11.9637 -0.0309
3 7 11 7.7282 -0.1228
3 7 12 -8.8371 -0.0442
3 7 13 -2.6074 0.1265
3 7 14 -2.6014 0.0615
3 7 15 -3.8067 -0.0621
3 7 16 6.8010 0.1147
3 7 17 -1.1101 0.0255
3 7 18 -3.9338 -0.0143
3 7 19 -4.5790 -0.0397
3 7 20 3.2666 -0.0675
3 7 21 3.7731 0.0002
3 7 22 -1.9558 -0.0914
3 7 23 -1.7594 0.0235
3 7 24 0.6966 -0.0478
3 7 25 -0.5024 0.0642
3 7 26 3.8213 -0.0106
3 7 27 3.2499 0.0341
3 7 28 -2.4553 0.0051
3 7 29 -1.1096 0.0467
3 7 30 0.7009 -0.0743
3 8 0 -4.2444 0.0626
3 8 1 -3.1250 0.0575
3 8 2 6.2658 -0.1729
3 8 3 3.7679 -0.1856
3 8 4 -4.9905 0.2871
3 8 5 2.4190 0.0680
3 8 6 7.2409 0.0792
3 8 7 1.0184 0.0884
3 8 8 -1.7810 0.0206
3 8 9 0.0300 -0.0956
3 8 10 3.6963 -0.0177
3 8 11 0.0583 -0.0927
3 8 12 1.3668 -0.1509
3 8 13 -2.3605 -0.0360
3 8 14 -1.8885 0.0571
3 8 15 -2.9787 0.0394
3 8 16 -5.1526 -0.0547
3 8 17 6.1389 0.1296
3 8 18 -1.7021 0.0486
3 8 19 -5.3714 -0.0129
3 8 20 -3.2169 -0.0005
3 8 21 1.8124 -0.0971
3 8 22 1.6306 -0.0005
3 8 23 -0.2886 -0.0650
3 8 24 2.0991 0.0275
3 8 25 2.5176 -0.0509
3 8 26 -2.5404 0.0382
3 8 27 -0.2869 -0.0280
3 8 28 3.3269 0.0798
3 8 29 -1.2530 0.0258
3 8 30 0.6604 0.0372
3 9 0 -5.1075 0.2273
3 9 1 -2.2663 0.1561
3 9 2 8.0163 0.0867
3 9 3 7.9308 -0.0179
3 9 4 -5.3312 -0.2922
3 9 5 -13.4907 0.1463
3 9 6 0.6307 0.0090
3 9 7 10.1106 0.1320
3 9 8 3.6948 0.0636
3 9 9 -3.1060 0.0622
3 9 10 -9.0854 -0.0472
3 9 11 -2.4617 0.0712
3 9 12 1.7939 -0.0925
3 9 13 4.3115 -0.1344
3 9 14 -0.3282 0.0040
3 9 15 -7.7105 -0.0259
3 9 16 -1.2409 -0.0036
3 9 17 1.7984 -0.0399
3 9 18 5.9217 0.0955
3 9 19 -7.5676 0.0473
3 9 20 -9.9425 -0.0138
3 9 21 1.2330 0.0035
3 9 22 5.8347 -0.0736
3 9 23 2.7468 0.0036
3 9 24 1.7199 -0.0409
3 9 25 4.1796 0.0051
3 9 26 1.3066 -0.0678
3 9 27 -2.3690 0.0511
3 9 28 -1.1524 -0.0223
3 9 29 2.6457 0.0456
3 9 30 -1.6352 -0.0423
3 10 0 17.3718 -0.4521
3 10 1 1.5947 0.0300
3 10 2 -3.9295 0.1661
3 10 3 -2.9925 -0.0665
3 10 4 -7.9563 0.0501
3 10 5 -5.7746 -0.1326
3 10 6 -1.9024 0.1325
3 10 7 3.1637 -0.0328
3 10 8 -1.7726 0.1153
3 10 9 -10.7540 0.0207
3 10 10 -4.9688 0.1147
3 10 11 -2.7434 0.0025
3 10 12 3.1145 0.1005
3 10 13 2.3094 -0.0506
3 10 14 -3.0690 -0.1329
3 10 15 -0.3236 -0.0093
3 10 16 -1.2699 -0.0699
3 10 17 4.5033 -0.0009
3 10 18 0.0362 -0.0002
3 10 19 -3.6657 0.0420
3 10 20 -8.7660 -0.0318
3 10 21 -2.3136 -0.0100
3 10 22 9.6792 0.0091
3 10 23 5.2069 -0.0321
3 10 24 -1.8718 0.0038
3 10 25 2.3809 -0.0232
3 10 26 9.4057 0.0100
3 10 27 3.0471 -0.0645
3 10 28 -2.3401 0.0520
3 10 29 -4.9484 -0.0779
3 10 30 -3.9266 -0.0235
3 11 0 10.3696 0.0549
3 11 1 14.6858 -0.3682
3 11 2 -3.8519 -0.0861
3 11 3 -13.4037 0.1804
3 11 4 -7.7061 -0.1004
3 11 5 -4.7227 0.0434
3 11 6 4.8748 0.0081
3 11 7 -0.1060 0.0581
3 11 8 -10.8678 -0.0684
3 11 9 -8.5001 0.1765
3 11 10 -7.9118 0.0040
3 11 11 3.0351 0.0746
3 11 12 4.0795 0.0214
3 11 13 0.2945 0.0699
3 11 14 0.5840 -0.0474
3 11 15 -3.9514 -0.1078
3 11 16 2.9366 0.0246
3 11 17 1.0944 -0.0279
3 11 18 0.7830 0.0187
3 11 19 -1.5625 -0.0280
3 11 20 -3.5068 -0.0137
3 11 21 -2.8306 -0.0905
3 11 22 0.5336 0.0460
3 11 23 6.0112 0.0395
3 11 24 1.2431 -0.0232
3 11 25 1.8066 0.0031
3 11 26 8.2958 -0.0103
3 11 27 10.1302 0.0249
3 11 28 -3.4183 -0.0365
3 11 29 -9.7794 0.0985
3 12 0 4.9604 0.1217
3 12 1 6.5666 -0.1146
3 12 2 10.0019 -0.2022
3 12 3 -1.0272 0.0355
3 12 4 -13.7370 0.0336
3 12 5 -6.0948 -0.1837
3 12 6 3.7774 -0.0142
3 12 7 10.0007 0.1074
3 12 8 -1.2777 0.0258
3 12 9 -15.3535 -0.0820
3 12 10 -2.1448 0.1804
3 12 11 1.6923 -0.0528
3 12 12 5.2686 -0.0166
3 12 13 6.8942 0.0478
3 12 14 -4.1012 0.0619
3 12 15 -2.5289 -0.0416
3 12 16 -1.7186 -0.0119
3 12 17 3.9963 0.0842
3 12 18 1.6483 -0.0399
3 12 19 -1.5293 0.0137
3 12 20 -1.4013 -0.0483
3 12 21 -5.1266 -0.0061
3 12 22 -3.0780 -0.0708
3 12 23 0.6629 0.0828
3 12 24 5.6254 0.0280
3 12 25 3.3147 -0.0517
3 13 0 9.9055 -0.0651
3 13 1 5.5542 0.1323
3 13 2 2.2986 -0.0903
3 13 3 10.3412 -0.1370
3 13 4 5.1957 0.0981
3 13 5 -10.1602 -0.1648
3 13 6 -0.6060 -0.1274
3 13 7 14.0824 0.0318
3 13 8 8.4155 0.0630
3 13 9 -2.4114 -0.0771
3 13 10 -9.9577 -0.0802
3 13 11 4.8757 0.1608
3 13 12 9.4796 -0.0770
3 13 13 1.0040 -0.0560
3 13 14 2.7977 0.0544
3 13 15 -6.5845 0.0917
3 13 16 -1.3475 -0.0136
3 13 17 5.0002 0.0524
3 13 18 1.6769 0.0980
3 13 19 -3.8404 -0.0932
3 13 20 -5.8704 0.0181
3 13 21 -1.0772 -0.0346
3 13 22 -2.7449 -0.0132
3 13 23 0.6890 -0.0491
3 13 24 1.1245 0.0688
3 14 0 10.7018 0.2864
3 14 1 6.6998 -0.0262
3 14 2 -1.4756 0.0121
3 14 3 3.4215 0.0302
3 14 4 19.2531 -0.1064
3 14 5 8.3869 0.1400
3 14 6 -10.0739 -0.2311
3 14 7 0.3777 -0.0542
3 14 8 15.3929 0.0427
3 14 9 3.6947 -0.0325
3 14 10 -2.3952 -0.1216
3 14 11 -2.6054 -0.0322
3 14 12 2.1275 0.1299
3 14 13 9.2334 -0.1114
3 14 14 -1.4596 -0.0434
3 14 15 0.8786 0.0495
3 14 16 -1.1305 0.1385
3 14 17 -0.9290 0.0200
3 14 18 1.9812 0.0074
3 14 19 -4.5619 0.0558
3 14 20 -3.8808 -0.1161
3 14 21 -0.8409 0.0075
3 14 22 2.3705 -0.0283
3 14 23 -2.7549 -0.0383
3 15 0 2.5211 -0.4200
3 15 1 9.9159 0.1837
3 15 2 1.6571 0.1083
3 15 3 -1.5533 -0.0918
3 15 4 7.0216 0.1745
3 15 5 16.8478 -0.0658
3 15 6 -0.3890 0.0813
3 15 7 -13.3846 -0.2010
3 15 8 -2.9766 0.0385
3 15 9 7.2797 0.0558
3 15 10 -0.6785 -0.1099
3 15 11 -4.3399 -0.1294
3 15 12 -1.2623 0.0106
3 15 13 -4.2206 0.1387
3 15 14 8.2283 -0.1575
3 15 15 3.2280 -0.0241
3 15 16 0.1100 0.0925
3 15 17 0.8156 0.1704
3 15 18 -3.7457 0.0092
3 15 19 -0.0037 -0.1133
3 15 20 0.2879 0.0187
3 15 21 1.4947 -0.0522
3 15 22 -2.4324 0.0036
3 16 0 0.0658 0.2688
3 16 1 1.0726 -0.4186
3 16 2 9.3811 0.0858
3 16 3 -6.0041 0.2521
3 16 4 -4.1490 -0.1917
3 16 5 5.1566 0.1777
3 16 6 5.4681 0.0502
3 16 7 -12.2961 0.0632
3 16 8 -21.7370 -0.1490
3 16 9 -9.8105 0.0499
3 16 10 1.9308 0.0259
3 16 11 1.6893 -0.1344
3 16 12 -8.7985 -0.0214
3 16 13 -7.3944 0.0647
3 16 14 -6.6379 0.1142
3 16 15 9.0542 -0.1991
3 16 16 10.0956 0.0389
3 16 17 1.2658 0.2311
3 16 18 2.5201 0.1349
3 16 19 -2.1312 -0.0640
3 16 20 -0.4934 -0.1625
3 16 21 0.5169 0.0658
3 16 22 -1.0081 0.0459
3 17 0 6.1761 0.0417
3 17 1 -0.8655 0.0093
3 17 2 -8.5593 -0.2431
3 17 3 2.7108 0.0699
3 17 4 -3.8969 0.1891
3 17 5 -1.6377 -0.2704
3 17 6 -4.3805 0.1764
3 17 7 -17.3397 0.2193
3 17 8 -22.4196 0.0362
3 17 9 -17.2535 -0.1675
3 17 10 -2.0000 0.0183
3 17 11 2.3921 0.0313
3 17 12 -4.6191 -0.0953
3 17 13 -17.8137 0.1603
3 17 14 -8.6047 0.1341
3 17 15 1.8163 0.0251
3 17 16 13.2848 -0.1747
3 17 17 14.4153 0.1186
3 17 18 2.5724 0.3434
3 17 19 -0.6649 0.0769
3 17 20 -5.1583 -0.0682
3 17 21 -3.0236 -0.0934
3 18 0 7.2745 0.3683
3 18 1 -2.1517 -0.1387
3 18 2 -7.8584 -0.1323
3 18 3 -8.3594 0.0072
3 18 4 9.8599 0.0689
3 18 5 1.4206 -0.0393
3 18 6 -16.1768 -0.2875
3 18 7 -21.0746 0.2405
3 18 8 -19.1671 0.3545
3 18 9 -6.1839 0.0048
3 18 10 -2.1451 -0.2322
3 18 11 -2.3362 -0.0659
3 18 12 -7.2086 0.1117
3 18 13 -10.1342 0.1245
3 18 14 -10.9292 0.3363
4 -17 0 3.0874 -0.3122
4 -17 1 5.4559 0.4063
4 -17 2 1.8179 0.3140
4 -16 0 -1.7691 -0.2636
4 -16 1 2.3275 -0.2499
4 -16 2 0.0055 0.2968
4 -15 0 -7.7831 0.0357
4 -15 1 -6.3197 -0.3472
4 -15 2 -4.2111 -0.2704
4 -15 3 -1.9143 0.0694
4 -15 4 -5.6150 0.1721
4 -15 5 6.0612 -0.1525
4 -15 6 11.2350 0.1105
4 -15 7 6.1526 0.1600
4 -14 0 -9.6923 0.8259
4 -14 1 -15.0719 -0.0082
4 -14 2 -3.6500 -0.4483
4 -14 3 -4.0479 -0.0770
4 -14 4 1.5566 0.0323
4 -14 5 -1.0430 0.1609
4 -14 6 6.6697 -0.1593
4 -14 7 6.2944 0.0580
4 -14 8 1.5807 0.2090
4 -14 9 0.1340 -0.1456
4 -14 10 5.4113 -0.1650
4 -14 11 5.5729 0.2740
4 -13 0 0.5773 0.2882
4 -13 1 -8.8969 0.5782
4 -13 2 -14.3196 0.1417
4 -13 3 3.5126 -0.3504
4 -13 4 0.1787 0.1056
4 -13 5 2.2995 -0.0296
4 -13 6 -0.4155 -0.0280
4 -13 7 3.2856 -0.1515
4 -13 8 2.5299 0.1018
4 -13 9 0.1985 0.2405
4 -13 10 1.6423 -0.0386
4 -13 11 2.5341 -0.0335
4 -13 12 1.2734 0.3371
4 -13 13 -0.9252 -0.0190
4 -13 14 -0.6098 -0.3590
4 -12 0 1.7767 -0.3993
4 -12 1 -2.3307 0.3703
4 -12 2 -1.2828 0.3782
4 -12 3 -7.4537 0.2383
4 -12 4 7.1413 -0.2335
4 -12 5 -0.0725 0.1653
4 -12 6 -2.9859 -0.0035
4 -12 7 -1.1967 -0.1462
4 -12 8 1.4172 -0.1139
4 -12 9 1.3580 0.1302
4 -12 10 0.8774 0.1705
4 -12 11 1.6044 0.0486
4 -12 12 -1.2424 0.0499
4 -12 13 -0.2099 0.1736
4 -12 14 1.2563 -0.1561
4 -12 15 2.3441 -0.1754
4 -12 16 2.7600 0.0883
4 -11 0 2.1191 -0.4853
4 -11 1 8.7712 -0.5646
4 -11 2 0.7986 0.3883
4 -11 3 -0.7944 0.2662
4 -11 4 -8.3661 0.1598
4 -11 5 3.1224 -0.0777
4 -11 6 0.5122 0.1761
4 -11 7 -3.0608 -0.0118
4 -11 8 0.1417 -0.1729
4 -11 9 -0.3224 -0.0473
4 -11 10 0.2726 0.1215
4 -11 11 0.4018 0.0099
4 -11 12 -1.7518 -0.0218
4 -11 13 -2.2653 0.0404
4 -11 14 3.4264 0.0850
4 -11 15 4.5447 -0.0288
4 -11 16 3.8667 0.0467
4 -11 17 2.0749 0.1024
4 -11 18 0.6312 -0.0484
4 -10 0 0.2309 -0.2709
4 -10 1 3.5518 -0.2509
4 -10 2 7.7019 -0.4674
4 -10 3 -5.3265 0.3252
4 -10 4 -5.7942 0.1854
4 -10 5 -4.2233 -0.1175
4 -10 6 3.3113 -0.0292
4 -10 7 2.8092 0.2125
4 -10 8 -2.0077 0.0031
4 -10 9 -2.0621 -0.0955
4 -10 10 -3.8914 -0.0449
4 -10 11 -2.2225 -0.0305
4 -10 12 -0.4014 -0.0964
4 -10 13 -0.5032 -0.0354
4 -10 14 3.5703 0.0496
4 -10 15 6.4298 0.0102
4 -10 16 0.1521 0.0059
4 -10 17 1.1481 0.0741
4 -10 18 1.9749 0.0629
4 -10 19 1.0287 -0.0759
4 -10 20 -6.2548 0.1235
4 -9 0 -0.6220 0.2456
4 -9 1 -2.0739 -0.1480
4 -9 2 1.6729 -0.0288
4 -9 3 7.4970 -0.2392
4 -9 4 -5.3524 0.0070
4 -9 5 -6.4568 0.0187
4 -9 6 -2.1807 -0.2476
4 -9 7 1.8177 0.0579
4 -9 8 4.7576 0.2679
4 -9 9 -1.1756 -0.0753
4 -9 10 -7.2567 -0.0900
4 -9 11 -6.2213 0.0150
4 -9 12 -0.6175 -0.0660
4 -9 13 3.1658 -0.0722
4 -9 14 3.1360 -0.0981
4 -9 15 3.6228 -0.0467
4 -9 16 3.5059 -0.0018
4 -9 17 -1.6734 0.1052
4 -9 18 3.4582 0.0684
4 -9 19 1.6701 -0.0066
4 -9 20 -4.3071 -0.1469
4 -9 21 -7.4194 0.1173
4 -9 22 -5.6015 -0.0644
4 -8 0 0.8391 -0.2991
4 -8 1 5.4997 0.3237
4 -8 2 8.9192 0.1104
4 -8 3 1.4685 -0.1256
4 -8 4 -0.6597 -0.0869
4 -8 5 -6.5192 -0.1590
4 -8 6 -3.1617 0.0227
4 -8 7 2.2394 -0.1642
4 -8 8 1.1544 -0.0023
4 -8 9 0.8542 0.1869
4 -8 10 -3.6933 -0.0785
4 -8 11 -6.8753 -0.0263
4 -8 12 0.4793 0.1241
4 -8 13 3.1334 -0.0957
4 -8 14 1.1774 -0.0503
4 -8 15 1.8552 -0.0486
4 -8 16 2.0776 -0.0274
4 -8 17 5.2245 -0.0031
4 -8 18 1.4617 0.0657
4 -8 19 -0.5405 -0.0400
4 -8 20 -3.7649 0.0154
4 -8 21 -5.6371 -0.0575
4 -8 22 -1.5062 0.0921
4 -8 23 -1.5550 -0.1285
4 -7 0 12.1748 0.0871
4 -7 1 14.6693 -0.4006
4 -7 2 8.5143 0.1479
4 -7 3 3.7380 0.3229
4 -7 4 -8.7224 -0.2312
4 -7 5 2.1608 0.1061
4 -7 6 7.6503 -0.0835
4 -7 7 -2.4603 0.0036
4 -7 8 -6.8137 -0.0859
4 -7 9 -4.7453 -0.0664
4 -7 10 1.6694 0.0975
4 -7 11 3.6400 -0.0187
4 -7 12 0.2828 -0.0138
4 -7 13 2.1422 0.1639
4 -7 14 -0.2657 -0.0577
4 -7 15 -2.5539 0.0192
4 -7 16 1.9955 0.0367
4 -7 17 1.8232 -0.0655
4 -7 18 3.6937 -0.0788
4 -7 19 1.5694 0.0745
4 -7 20 -4.1159 -0.0102
4 -7 21 -1.7975 0.0585
4 -7 22 -0.8829 -0.0497
4 -7 23 -0.3448 -0.0345
4 -7 24 -2.4871 -0.0248
4 -7 25 0.4869 0.0240
4 -6 0 8.2025 0.0522
4 -6 1 9.3098 -0.1778
4 -6 2 10.1290 -0.3172
4 -6 3 3.6600 0.0125
4 -6 4 8.6624 0.4462
4 -6 5 -2.2965 -0.2907
4 -6 6 1.9777 0.1836
4 -6 7 4.4148 0.0725
4 -6 8 -10.7596 -0.0238
4 -6 9 -8.1203 -0.0618
4 -6 10 3.0743 -0.0911
4 -6 11 5.3327 0.0149
4 -6 12 4.3046 0.0383
4 -6 13 1.0681 -0.0227
4 -6 14 -0.4239 0.0877
4 -6 15 -1.9495 -0.0381
4 -6 16 -4.9775 0.0647
4 -6 17 -1.6261 0.1010
4 -6 18 1.1522 -0.0759
4 -6 19 1.9688 -0.0981
4 -6 20 2.9207 0.0813
4 -6 21 -2.7695 -0.0434
4 -6 22 -0.5161 -0.0219
4 -6 23 -0.1117 0.0075
4 -6 24 -3.1278 0.0129
4 -6 25 -2.9779 0.1902
4 -6 26 0.6536 0.1058
4 -5 0 5.0395 0.7308
4 -5 1 6.9443 0.1131
4 -5 2 8.6099 -0.2858
4 -5 3 18.7310 -0.1274
4 -5 4 0.6482 -0.1194
4 -5 5 -1.7857 0.3671
4 -5 6 -4.2811 -0.2537
4 -5 7 0.5564 0.2010
4 -5 8 8.0672 0.1243
4 -5 9 -8.2911 -0.0913
4 -5 10 -9.7168 -0.0190
4 -5 11 2.6596 -0.0235
4 -5 12 4.8301 -0.0474
4 -5 13 3.8700 -0.0158
4 -5 14 -0.0679 -0.0570
4 -5 15 -4.9813 0.0133
4 -5 16 -4.4795 0.0154
4 -5 17 -3.7637 0.0597
4 -5 18 -1.9607 0.0731
4 -5 19 1.7853 -0.0667
4 -5 20 -2.2124 -0.0644
4 -5 21 0.5006 0.0360
4 -5 22 1.8217 -0.0723
4 -5 23 0.3991 -0.0352
4 -5 24 -1.3567 0.1420
4 -5 25 -5.5644 0.0207
4 -5 26 -3.3356 0.1328
4 -5 27 1.1971 -0.0281
4 -4 0 9.1312 -0.2672
4 -4 1 15.6020 0.6495
4 -4 2 12.3531 0.1612
4 -4 3 -7.8167 -0.3341
4 -4 4 3.2063 -0.0101
4 -4 5 -1.5082 -0.1321
4 -4 6 2.3923 0.2544
4 -4 7 7.3095 -0.2394
4 -4 8 -4.2023 0.1102
4 -4 9 -2.6451 0.1443
4 -4 10 -8.0573 -0.0473
4 -4 11 -6.0085 0.0562
4 -4 12 5.1717 -0.0437
4 -4 13 3.6501 -0.1001
4 -4 14 -4.8356 0.0036
4 -4 15 -5.6849 -0.0036
4 -4 16 -2.0258 -0.0760
4 -4 17 1.0177 -0.0174
4 -4 18 0.6271 0.0207
4 -4 19 -6.2084 0.0901
4 -4 20 -3.0906 -0.0032
4 -4 21 -2.1125 -0.0505
4 -4 22 3.0685 -0.0194
4 -4 23 6.2950 0.0091
4 -4 24 -3.1036 -0.0163
4 -4 25 -5.5780 0.0804
4 -4 26 -3.4052 -0.1037
4 -4 27 -1.4703 0.0737
4 -4 28 -0.7077 0.0825
4 -3 0 9.4144 -0.0011
4 -3 1 16.5465 -0.2185
4 -3 2 -10.1428 0.4735
4 -3 3 -10.3709 0.0441
4 -3 4 -6.3448 -0.2243
4 -3 5 19.5515 0.1521
4 -3 6 11.2232 -0.1569
4 -3 7 -13.1687 0.0672
4 -3 8 -8.0463 -0.1757
4 -3 9 -5.0398 0.1153
4 -3 10 3.9961 0.1854
4 -3 11 2.2378 -0.0827
4 -3 12 -6.5121 0.0654
4 -3 13 -4.7767 0.0002
4 -3 14 -1.7984 -0.0343
4 -3 15 -5.6611 0.0192
4 -3 16 -1.3208 -0.0185
4 -3 17 4.9488 -0.1201
4 -3 18 0.8131 0.0455
4 -3 19 -1.9189 0.0238
4 -3 20 -6.6484 0.0361
4 -3 21 -0.1806 -0.0018
4 -3 22 4.0281 0.0000
4 -3 23 0.2889 0.0161
4 -3 24 0.3983 0.0349
4 -3 25 -4.1971 -0.1323
4 -3 26 -3.3149 -0.0013
4 -3 27 0.4470 0.0652
4 -3 28 -2.8373 0.1960
4 -3 29 -4.4563 0.0795
4 -2 0 -3.2270 -0.0076
4 -2 1 -25.1751 0.1169
4 -2 2 2.4546 -0.3489
4 -2 3 0.7582 0.4114
4 -2 4 5.9167 -0.0065
4 -2 5 1.2693 -0.1550
4 -2 6 -0.4719 0.1778
4 -2 7 -3.9358 -0.1921
4 -2 8 -15.3364 0.0291
4 -2 9 4.8225 -0.0025
4 -2 10 9.7784 0.0215
4 -2 11 -2.6758 0.1000
4 -2 12 -8.3373 -0.0826
4 -2 13 -5.5434 0.1288
4 -2 14 -2.8232 0.0600
4 -2 15 0.3775 -0.0481
4 -2 16 -3.3996 0.0147
4 -2 17 -2.5324 0.0699
4 -2 18 5.7598 -0.0828
4 -2 19 1.3671 0.0265
4 -2 20 -0.2956 -0.0312
4 -2 21 -2.4440 -0.0129
4 -2 22 0.8630 0.0383
4 -2 23 3.8696 0.0273
4 -2 24 -3.5638 -0.0215
4 -2 25 -2.9080 0.0141
4 -2 26 -0.1668 -0.0728
4 -2 27 -1.9398 0.0987
4 -2 28 -0.5996 0.1717
4 -2 29 -0.5954 -0.0064
4 -1 0 -30.9954 0.0349
4 -1 1 -8.5967 -0.1209
4 -1 2 -11.1635 0.3846
4 -1 3 23.2088 -0.3645
4 -1 4 1.8737 0.2913
4 -1 5 -23.5448 -0.1217
4 -1 6 -12.6992 -0.1852
4 -1 7 6.8518 0.2407
4 -1 8 13.0787 -0.1216
4 -1 9 -5.4038 -0.0383
4 -1 10 -0.8013 0.0516
4 -1 11 2.8220 -0.1057
4 -1 12 -7.0876 0.0488
4 -1 13 -6.6951 0.0179
4 -1 14 4.1076 0.1018
4 -1 15 -2.4663 0.0361
4 -1 16 -3.8597 -0.0287
4 -1 17 -1.2818 0.0482
4 -1 18 -1.2028 0.1102
4 -1 19 5.5675 -0.1153
4 -1 20 0.6783 -0.0156
4 -1 21 -1.7014 0.0193
4 -1 22 -0.6937 -0.0504
4 -1 23 3.9460 -0.0100
4 -1 24 4.7857 0.0456
4 -1 25 -4.8149 0.0187
4 -1 26 -5.8374 0.0260
4 -1 27 2.0258 -0.0374
4 -1 28 1.1138 0.0484
4 -1 29 0.9649 0.0870
4 -1 30 3.7360 -0.1515
4 0 0 14.6548 -0.4732
4 0 1 -22.8900 0.4155
4 0 2 -3.0212 -0.2465
4 0 3 -12.8092 0.4778
4 0 4 0.0158 -0.4093
4 0 5 -4.0117 0.0997
4 0 6 -17.0401 -0.0185
4 0 7 4.3521 -0.1390
4 0 8 13.3601 0.1697
4 0 9 3.4707 -0.1212
4 0 10 -5.3347 -0.1019
4 0 11 2.1869 0.1011
4 0 12 1.9472 -0.1262
4 0 13 -7.1627 -0.0254
4 0 14 -7.9108 0.0989
4 0 15 7.3340 0.0303
4 0 16 1.2724 -0.0259
4 0 17 -4.6532 0.0241
4 0 18 -0.5251 0.0468
4 0 19 -3.2508 0.0768
4 0 20 1.4944 -0.0824
4 0 21 0.7154 -0.0052
4 0 22 1.3179 0.0529
4 0 23 2.2509 -0.1058
4 0 24 4.4699 -0.0422
4 0 25 2.3252 0.1051
4 0 26 -4.3161 0.0095
4 0 27 -1.9919 -0.0683
4 0 28 5.3490 0.0084
4 0 29 2.6975 0.0849
4 0 30 -1.0211 0.0245
4 0 31 3.1875 -0.2426
4 1 0 -5.3412 -1.0617
4 1 1 23.3176 -0.6976
4 1 2 -42.4530 0.6308
4 1 3 -18.8550 -0.4884
4 1 4 7.8852 0.3628
4 1 5 9.2236 -0.1526
4 1 6 -4.8886 0.0445
4 1 7 -17.0513 0.0857
4 1 8 4.5178 -0.1521
4 1 9 15.6967 0.0237
4 1 10 6.0462 -0.0393
4 1 11 -2.3320 -0.0389
4 1 12 -0.9279 0.0511
4 1 13 -5.7839 -0.1311
4 1 14 -1.0452 -0.0787
4 1 15 -1.0600 0.1314
4 1 16 5.3473 -0.0350
4 1 17 -0.5891 -0.0842
4 1 18 -7.2672 0.1202
4 1 19 -0.0630 0.0681
4 1 20 -0.9442 -0.0035
4 1 21 3.4972 -0.0302
4 1 22 0.7403 -0.0013
4 1 23 0.5861 0.0227
4 1 24 -0.1004 -0.1024
4 1 25 2.7406 -0.0249
4 1 26 5.6615 0.1120
4 1 27 1.4489 -0.0041
4 1 28 1.0589 -0.0778
4 1 29 2.0793 0.1238
4 1 30 -0.5976 0.0654
4 2 0 -21.5944 0.1535
4 2 1 -34.1628 -0.7257
4 2 2 21.5421 -0.8590
4 2 3 -10.0698 0.6584
4 2 4 -6.2876 -0.3993
4 2 5 11.8451 0.2305
4 2 6 -6.6481 0.1030
4 2 7 -13.3107 -0.0460
4 2 8 5.0978 0.1301
4 2 9 14.6330 -0.0473
4 2 10 5.3009 -0.0520
4 2 11 -4.0739 -0.0190
4 2 12 -3.7383 0.0283
4 2 13 6.1542 -0.0569
4 2 14 -1.0725 -0.1154
4 2 15 1.8266 -0.0584
4 2 16 -4.7035 0.0956
4 2 17 -5.2431 -0.0444
4 2 18 0.7003 -0.0503
4 2 19 0.7436 0.1647
4 2 20 3.6710 0.0208
4 2 21 -1.0032 -0.1207
4 2 22 1.8142 0.0319
4 2 23 -3.0003 0.0441
4 2 24 -1.8468 -0.0062
4 2 25 0.7968 -0.0537
4 2 26 2.6586 0.0153
4 2 27 8.4895 0.0503
4 2 28 3.2646 0.0254
4 2 29 -1.1700 -0.0299
4 2 30 -1.5123 0.1339
4 2 31 -2.5985 -0.0527
4 3 0 -17.6426 1.3122
4 3 1 -1.8186 -0.2984
4 3 2 -12.7002 -0.4603
4 3 3 25.0316 -0.5605
4 3 4 -2.6568 0.5988
4 3 5 -16.2347 -0.2586
4 3 6 11.8436 -0.0104
4 3 7 7.3100 0.2184
4 3 8 -8.1607 -0.0392
4 3 9 2.1663 0.1471
4 3 10 4.0416 0.0137
4 3 11 -3.2969 -0.1107
4 3 12 4.4081 -0.0400
4 3 13 2.3978 0.1009
4 3 14 4.6136 -0.1274
4 3 15 -4.2168 -0.1069
4 3 16 -1.2426 0.0274
4 3 17 -4.2934 0.0482
4 3 18 -6.8766 -0.0666
4 3 19 5.2339 -0.0223
4 3 20 5.2123 0.0894
4 3 21 0.6867 -0.0259
4 3 22 -5.1922 -0.1020
4 3 23 1.5837 0.1299
4 3 24 -2.7202 0.0644
4 3 25 -5.5235 -0.0634
4 3 26 0.9794 -0.0394
4 3 27 2.8424 0.0702
4 3 28 8.5249 -0.0241
4 3 29 2.4801 0.0468
4 3 30 -4.5381 -0.0003
4 3 31 -2.2471 0.0633
4 3 32 -0.6895 -0.0859
4 4 0 6.5313 0.8180
4 4 1 -8.5443 1.1122
4 4 2 4.2523 -0.4219
4 4 3 -15.5652 -0.1822
4 4 4 8.5409 -0.1627
4 4 5 14.9578 0.3017
4 4 6 1.8133 -0.1984
4 4 7 1.8633 -0.1266
4 4 8 -2.0765 0.1982
4 4 9 -12.5559 -0.0504
4 4 10 3.3765 0.1321
4 4 11 9.8493 0.0454
4 4 12 -7.0856 -0.0991
4 4 13 1.2296 -0.0534
4 4 14 0.7562 0.1091
4 4 15 3.5251 -0.1224
4 4 16 -1.0322 -0.0749
4 4 17 -1.5058 0.0705
4 4 18 -2.2486 -0.0216
4 4 19 -5.1400 -0.1198
4 4 20 4.1699 0.0312
4 4 21 3.0834 0.0422
4 4 22 -2.6579 -0.0130
4 4 23 -6.3811 -0.0211
4 4 24 1.7629 0.1444
4 4 25 -1.5093 -0.0004
4 4 26 -7.0730 -0.0678
4 4 27 3.2821 -0.0015
4 4 28 4.4023 0.0927
4 4 29 2.6208 -0.1189
4 4 30 -0.3802 0.0333
4 4 31 -2.6078 0.0832
4 5 0 13.6413 0.0533
4 5 1 0.2995 0.5908
4 5 2 -23.3820 0.7451
4 5 3 5.0898 -0.2646
4 5 4 7.8547 -0.0473
4 5 5 7.6585 -0.0152
4 5 6 3.6563 -0.0200
4 5 7 -9.7385 -0.1388
4 5 8 -7.1124 -0.0893
4 5 9 9.2571 0.1393
4 5 10 1.8284 -0.0353
4 5 11 -7.1491 0.1280
4 5 12 -2.7075 0.0221
4 5 13 -8.5210 -0.0888
4 5 14 6.6924 -0.0220
4 5 15 5.0812 0.0951
4 5 16 -0.2519 -0.0956
4 5 17 0.6064 -0.0408
4 5 18 1.3870 0.0475
4 5 19 1.4540 -0.0305
4 5 20 -4.6249 -0.1225
4 5 21 -1.1037 0.0720
4 5 22 0.8141 0.0110
4 5 23 -3.1133 -0.0064
4 5 24 -4.9781 0.0262
4 5 25 3.8309 0.1078
4 5 26 3.8772 -0.0623
4 5 27 -5.3180 -0.0210
4 5 28 0.1520 0.0239
4 5 29 2.1494 0.0478
4 5 30 -1.0493 -0.1211
4 5 31 1.2185 0.0535
4 6 0 -0.2063 -0.7430
4 6 1 -5.3955 0.2184
4 6 2 1.2067 0.4725
4 6 3 -9.1394 0.2962
4 6 4 5.8370 -0.1028
4 6 5 0.1268 0.0115
4 6 6 -12.2370 -0.0500
4 6 7 -4.6268 -0.1296
4 6 8 4.5286 0.0269
4 6 9 1.6158 0.0297
4 6 10 3.9716 0.0515
4 6 11 -2.5374 -0.0811
4 6 12 -13.9281 0.0831
4 6 13 -0.9893 0.0384
4 6 14 -1.0414 -0.0285
4 6 15 5.0712 0.0066
4 6 16 3.8757 0.0520
4 6 17 1.3856 -0.0912
4 6 18 5.9987 0.0213
4 6 19 2.3061 0.0092
4 6 20 -1.2139 -0.0296
4 6 21 -3.5774 -0.0914
4 6 22 -0.6166 0.0835
4 6 23 2.1129 -0.0151
4 6 24 -1.3703 -0.0339
4 6 25 -1.6069 0.0102
4 6 26 6.4908 0.0589
4 6 27 3.8168 -0.0532
4 6 28 -6.6243 0.0404
4 6 29 -3.1205 0.0397
4 6 30 3.3551 -0.0313
4 7 0 5.2575 -0.7200
4 7 1 9.2871 -0.3460
4 7 2 -4.3767 0.1337
4 7 3 -7.5158 0.2453
4 7 4 -16.3851 0.0333
4 7 5 -3.5441 0.0722
4 7 6 5.7053 0.1398
4 7 7 -4.5089 -0.0779
4 7 8 -6.7939 -0.1011
4 7 9 0.4588 0.1176
4 7 10 1.5965 0.0229
4 7 11 4.5384 -0.0626
4 7 12 2.9021 -0.0637
4 7 13 -13.2555 0.1043
4 7 14 -4.4886 0.0688
4 7 15 2.2313 -0.0197
4 7 16 5.9523 -0.0251
4 7 17 6.3615 0.0584
4 7 18 0.5493 -0.0710
4 7 19 3.7887 0.0377
4 7 20 2.5044 -0.0329
4 7 21 -0.2452 -0.0228
4 7 22 1.6675 -0.0309
4 7 23 1.9667 0.0460
4 7 24 2.1191 -0.0737
4 7 25 -0.4386 -0.0529
4 7 26 -1.2123 0.0346
4 7 27 4.5139 0.0425
4 7 28 0.1007 -0.0162
4 7 29 -5.3878 0.0181
4 7 30 -1.6687 0.0094
4 8 0 1.3674 0.1217
4 8 1 2.9669 -0.7357
4 8 2 2.0748 -0.1051
4 8 3 -10.9174 0.0703
4 8 4 -7.1110 0.0977
4 8 5 -1.2360 0.0309
4 8 6 2.1544 0.1446
4 8 7 0.8314 0.1886
4 8 8 -8.6600 -0.1114
4 8 9 -5.2866 -0.0958
4 8 10 8.2598 0.1023
4 8 11 8.6385 0.0017
4 8 12 -0.8131 -0.1115
4 8 13 -2.1986 -0.0194
4 8 14 -8.1271 0.0935
4 8 15 1.0218 0.0307
4 8 16 4.1132 0.0105
4 8 17 -0.8770 0.0061
4 8 18 2.8024 0.0848
4 8 19 2.0880 -0.0788
4 8 20 5.4207 -0.0159
4 8 21 3.7174 -0.0363
4 8 22 -2.3569 -0.0003
4 8 23 1.6908 0.0046
4 8 24 3.9042 0.0081
4 8 25 1.5809 -0.0565
4 8 26 -0.1535 -0.0121
4 8 27 -3.5474 0.0462
4 8 28 0.1538 -0.0264
4 8 29 -1.9975 0.0089
4 8 30 -1.9904 0.0180
4 9 0 -0.5984 -0.2470
4 9 1 -5.9939 0.1412
4 9 2 -5.1830 -0.5688
4 9 3 10.8571 0.0371
4 9 4 11.4758 0.1209
4 9 5 0.5075 -0.1007
4 9 6 -7.0513 -0.0319
4 9 7 -6.2838 0.1253
4 9 8 2.4867 0.2105
4 9 9 5.8770 -0.0896
4 9 10 5.1891 -0.0824
4 9 11 2.8915 0.0269
4 9 12 -0.1518 -0.0469
4 9 13 -3.6429 -0.1495
4 9 14 2.7079 0.0194
4 9 15 0.0852 0.1134
4 9 16 -1.8338 0.0121
4 9 17 -0.6037 0.0551
4 9 18 -3.2733 0.0466
4 9 19 5.2871 0.0371
4 9 20 4.4421 -0.0764
4 9 21 0.1079 -0.0283
4 9 22 -0.9091 -0.0018
4 9 23 -3.8424 0.0333
4 9 24 1.9941 0.0125
4 9 25 5.8466 -0.0090
4 9 26 0.3586 0.0062
4 9 27 -2.0365 0.0228
4 9 28 -5.2407 0.0338
4 9 29 -0.4442 -0.0460
4 9 30 2.2092 0.0641
4 10 0 -5.9268 0.4425
4 10 1 -1.1506 -0.3389
4 10 2 -0.6587 0.1575
4 10 3 6.7975 -0.3043
4 10 4 19.6474 -0.0537
4 10 5 11.0556 0.0991
4 10 6 -8.2594 -0.2188
4 10 7 -8.6872 -0.0609
4 10 8 4.8237 0.1480
4 10 9 9.4668 0.1911
4 10 10 4.9433 -0.1171
4 10 11 1.0604 -0.0683
4 10 12 -3.3857 -0.0306
4 10 13 -0.8642 -0.0565
4 10 14 -1.2643 -0.0910
4 10 15 2.2892 0.0574
4 10 16 1.8883 0.0671
4 10 17 -1.2943 -0.0327
4 10 18 2.3286 0.0553
4 10 19 -3.4332 0.0930
4 10 20 0.9944 0.0052
4 10 21 2.0437 -0.0229
4 10 22 -2.6634 0.0091
4 10 23 -0.8983 -0.0204
4 10 24 -2.0787 0.0248
4 10 25 -1.4471 0.0067
4 10 26 3.1429 0.0040
4 10 27 1.7474 0.0815
4 10 28 1.8350 0.0450
4 10 29 0.9680 -0.0093
4 10 30 1.8286 -0.0606
4 11 0 -0.7813 -0.5480
4 11 1 0.2661 0.3038
4 11 2 5.8364 -0.1781
4 11 3 1.1923 0.0280
4 11 4 5.3212 -0.1107
4 11 5 13.6024 -0.1187
4 11 6 2.4391 0.0912
4 11 7 -7.2068 -0.1583
4 11 8 -2.2088 -0.0834
4 11 9 6.4971 0.0805
4 11 10 4.5364 0.1156
4 11 11 -1.8402 -0.1040
4 11 12 -1.2871 0.0315
4 11 13 -4.8896 -0.0047
4 11 14 -0.1883 -0.0589
4 11 15 2.5215 -0.0555
4 11 16 1.2348 0.0198
4 11 17 3.5825 -0.0396
4 11 18 0.1819 -0.0113
4 11 19 3.0469 0.0480
4 11 20 -3.1227 0.0868
4 11 21 -1.0744 0.0061
4 11 22 3.7527 0.0152
4 11 23 -1.2785 0.0261
4 11 24 -2.4595 -0.0687
4 11 25 -4.0571 0.0312
4 11 26 -2.7680 0.0229
4 12 0 -3.8816 0.3580
4 12 1 2.6862 -0.5005
4 12 2 3.8774 0.0945
4 12 3 3.4467 0.0802
4 12 4 -2.5157 -0.0768
4 12 5 -0.9029 -0.0399
4 12 6 4.5347 -0.0810
4 12 7 -7.4737 0.0657
4 12 8 -4.8829 -0.0394
4 12 9 3.6887 -0.0951
4 12 10 1.9243 -0.0227
4 12 11 -1.5949 0.0861
4 12 12 -7.7319 -0.0148
4 12 13 -3.1687 0.0729
4 12 14 0.1003 -0.0191
4 12 15 4.7779 -0.0517
4 12 16 3.1494 -0.0278
4 12 17 -5.5302 0.0077
4 12 18 3.7728 -0.1141
4 12 19 5.7542 0.0112
4 12 20 5.0068 -0.0152
4 12 21 -1.6568 0.0114
4 12 22 -2.6812 0.0660
4 12 23 3.6535 0.0428
4 12 24 0.9202 0.0124
4 12 25 -1.0738 -0.0754
4 13 0 -3.3785 0.5517
4 13 1 -3.0981 0.2378
4 13 2 6.3926 -0.2964
4 13 3 1.6915 -0.0720
4 13 4 -4.8150 0.1962
4 13 5 -4.4229 -0.1190
4 13 6 -7.3677 -0.0935
4 13 7 -4.6834 0.0585
4 13 8 -7.4630 0.0800
4 13 9 0.0807 0.0066
4 13 10 6.2591 -0.1132
4 13 11 -4.8225 -0.0620
4 13 12 -5.2403 0.0686
4 13 13 -5.6094 0.0327
4 13 14 -2.0832 0.0408
4 13 15 3.9604 -0.0155
4 13 16 3.4139 0.0373
4 13 17 0.0553 -0.0264
4 13 18 -5.7500 -0.0092
4 13 19 6.9331 -0.1367
4 13 20 6.1724 -0.0063
4 13 21 -1.8507 -0.0844
4 13 22 -1.6336 -0.0462
4 13 23 2.1038 0.1396
4 13 24 8.8903 0.0538
4 14 0 -5.2710 0.0327
4 14 1 -2.1493 0.6670
4 14 2 0.3795 0.0891
4 14 3 3.0506 -0.1816
4 14 4 -3.6956 -0.1266
4 14 5 -6.1948 0.1896
4 14 6 -0.7079 -0.0477
4 14 7 -8.2505 -0.1558
4 14 8 -5.2963 0.1623
4 14 9 2.9268 0.0498
4 14 10 1.6879 -0.0517
4 14 11 2.0244 -0.0904
4 14 12 -4.6743 0.0106
4 14 13 -2.5781 0.0167
4 14 14 -1.7112 0.0262
4 14 15 -4.0195 0.0744
4 14 16 3.6472 -0.0146
4 14 17 3.4398 0.0701
4 14 18 -0.9097 -0.0657
4 14 19 -7.6765 -0.0204
4 14 20 -0.7018 -0.1148
4 14 21 0.8415 -0.0624
4 14 22 -0.7397 -0.1258
4 15 0 -4.7349 -0.1800
4 15 1 -9.8998 -0.1115
4 15 2 0.9466 0.6359
4 15 3 7.1747 0.0279
4 15 4 1.5852 -0.1370
4 15 5 -4.6610 0.0136
4 15 6 -0.7530 0.1377
4 15 7 5.3192 -0.0258
4 15 8 1.8477 -0.1848
4 15 9 2.6620 0.1928
4 15 10 7.2257 -0.0300
4 15 11 -4.1374 -0.1030
4 15 12 -2.2803 -0.0056
4 15 13 4.9904 0.0942
4 15 14 2.1544 -0.0538
4 15 15 -1.3396 0.0012
4 15 16 -5.4516 0.1545
4 15 17 0.7758 -0.0908
4 15 18 -1.4262 -0.0069
4 15 19 -7.9484 -0.0874
4 15 20 -10.0348 -0.0624
4 16 0 -1.8438 -0.5700
4 16 1 -11.2931 -0.0156
4 16 2 -4.7432 -0.1258
4 16 3 16.4438 0.4533
4 16 4 11.0080 0.0804
4 16 5 -4.2506 -0.0975
4 16 6 -2.0298 0.1777
4 16 7 14.0178 0.0928
4 16 8 15.7749 -0.0529
4 16 9 7.2456 -0.1651
4 16 10 -1.1251 0.1402
4 16 11 -0.3528 -0.1014
4 16 12 -1.5937 -0.0311
4 16 13 4.3545 0.0743
4 16 14 12.8716 -0.0216
4 16 15 0.8207 -0.1357
4 16 16 -7.3627 0.0396
4 16 17 -8.4826 0.2461
4 16 18 -4.6893 -0.1780
4 16 19 -5.1427 -0.1433
4 16 20 -5.7460 -0.1287
4 17 0 -1.8429 0.1838
4 17 1 -2.4127 -0.4764
4 17 2 -5.3095 0.1083
4 17 3 3.7262 -0.0400
4 17 4 19.8473 0.1737
4 17 5 7.4350 0.1245
4 17 6 2.5501 0.0320
4 17 7 11.1947 0.2841
4 17 8 16.8249 0.0317
4 17 9 5.0055 -0.1549
4 17 11 -1.2018 0.1602
4 17 12 4.7543 -0.0491
4 17 13 7.6157 -0.0392
4 17 14 3.4250 -0.0825
4 17 15 4.8254 -0.2421
4 17 16 -4.1618 0.0223
4 17 17 -9.2821 0.2611
4 17 18 -5.8328 0.2285
4 17 19 -2.5838 -0.2923
4 18 0 -0.1915 0.1318
4 18 1 5.3613 0.2616
4 18 2 -4.1221 -0.1386
4 18 3 -6.1967 0.0638
4 18 4 3.4462 -0.0572
4 18 5 25.2774 0.0008
4 18 6 17.8723 0.1931
4 18 7 6.2406 0.1981
4 18 8 -1.1537 0.2028
4 18 9 -4.2145 -0.1011
4 18 10 -2.2676 -0.1878
4 18 11 2.3846 -0.0180
4 18 13 4.8740 -0.0591
4 18 14 0.2731 -0.1893
4 18 15 -3.7276 -0.1695
4 18 16 0.9142 -0.1505
4 19 7 10.4053 0.1959
4 19 8 -12.7879 0.1615
4 19 9 -14.3557 -0.0155
4 19 10 -3.8116 -0.2062
4 19 11 5.3741 -0.1324
5 -16 0 0.8913 -0.5718
5 -16 1 -1.1197 -0.2282
5 -16 2 2.1427 -0.0478
5 -15 0 -1.4099 0.1168
5 -15 1 6.1446 -0.5491
5 -15 2 2.5958 0.0689
5 -15 3 2.8463 0.0580
5 -15 4 -6.0002 0.0668
5 -15 5 -6.5898 -0.1486
5 -15 6 -4.0898 0.0215
5 -14 0 7.2289 0.3286
5 -14 1 0.0446 0.5208
5 -14 2 7.2644 -0.3914
5 -14 3 0.6041 0.1166
5 -14 4 -5.3118 0.0137
5 -14 5 -8.5657 -0.1429
5 -14 6 -4.9341 -0.1407
5 -14 7 0.7154 0.0230
5 -14 8 -2.6638 -0.0262
5 -14 9 3.0725 -0.1421
5 -14 10 4.5611 0.0385
5 -13 0 4.6402 -0.0543
5 -13 1 9.2339 0.3299
5 -13 2 -2.6849 0.6293
5 -13 3 1.6260 -0.3275
5 -13 4 -2.4114 0.0345
5 -13 5 -8.4803 0.0994
5 -13 6 -1.2398 -0.2530
5 -13 7 0.4517 -0.1052
5 -13 8 2.5544 0.0517
5 -13 9 -2.1687 -0.0218
5 -13 10 3.3215 -0.0918
5 -13 11 4.3602 0.0035
5 -13 12 2.5112 -0.0239
5 -13 13 2.5399 0.0005
5 -12 0 12.0729 -1.1278
5 -12 1 -2.0475 0.0145
5 -12 2 1.1362 0.3164
5 -12 3 1.0678 0.3876
5 -12 4 3.1605 -0.2023
5 -12 5 1.1790 -0.0326
5 -12 6 -6.9234 0.1623
5 -12 7 2.7094 -0.2300
5 -12 8 -0.1730 -0.0431
5 -12 9 0.8686 0.0708
5 -12 10 0.1848 -0.0564
5 -12 11 4.2339 -0.0998
5 -12 12 4.4317 0.0379
5 -12 13 1.7924 -0.0386
5 -12 14 0.4906 0.0561
5 -12 15 -0.2530 0.0118
5 -12 16 -3.4152 0.0105
5 -11 0 -3.3581 -0.0848
5 -11 1 3.0292 -0.9836
5 -11 2 -3.7968 -0.0522
5 -11 3 4.4263 0.2723
5 -11 4 11.2036 0.0018
5 -11 5 0.8011 -0.0941
5 -11 6 -1.0778 0.0364
5 -11 7 -6.0556 0.2265
5 -11 8 2.7835 -0.1482
5 -11 9 -0.0951 -0.0634
5 -11 10 1.7768 0.0557
5 -11 11 4.8261 0.0247
5 -11 12 5.5258 -0.0399
5 -11 13 1.4722 0.0483
5 -11 14 -1.3152 -0.0572
5 -11 15 -1.6428 0.0317
5 -11 16 -2.1673 0.0545
5 -11 17 -2.9940 0.0503
5 -11 18 -0.3321 -0.0577
5 -10 0 6.2063 0.3849
5 -10 1 -3.0443 -0.0801
5 -10 2 -1.8181 -0.6002
5 -10 3 -0.3992 -0.2071
5 -10 4 4.7169 0.1996
5 -10 5 9.7052 -0.1860
5 -10 6 -3.8259 -0.0098
5 -10 7 -0.6324 0.1256
5 -10 8 -0.9327 0.1491
5 -10 9 3.4089 -0.1084
5 -10 10 1.4474 0.0259
5 -10 11 1.5069 0.0910
5 -10 12 4.9506 0.0272
5 -10 13 4.2751 -0.0734
5 -10 14 -1.7437 0.0575
5 -10 15 -1.6704 0.0362
5 -10 16 -1.1963 0.0285
5 -10 17 -5.7338 -0.0273
5 -10 18 -3.5755 0.0477
5 -10 19 1.3290 -0.0188
5 -10 20 7.2803 0.0101
5 -9 0 4.3858 0.9665
5 -9 1 2.0304 0.5575
5 -9 2 -11.7649 -0.1716
5 -9 3 -8.1349 -0.1964
5 -9 4 7.2780 -0.1959
5 -9 5 5.1861 0.1101
5 -9 6 2.9848 -0.2150
5 -9 7 -6.0578 -0.0525
5 -9 8 2.2858 0.1381
5 -9 9 6.7640 0.0825
5 -9 10 3.8044 -0.0817
5 -9 11 -2.1765 0.0978
5 -9 12 -2.7862 0.0402
5 -9 13 4.0641 -0.0258
5 -9 14 5.9205 -0.0137
5 -9 15 -2.6350 0.0519
5 -9 16 -4.2550 -0.0237
5 -9 17 -2.7975 -0.0114
5 -9 18 -7.8002 -0.0066
5 -9 19 0.6737 0.1562
5 -9 20 5.3488 -0.0049
5 -9 21 4.4366 -0.0773
5 -9 22 -4.0329 -0.0297
5 -8 0 -2.8091 -0.2677
5 -8 1 -10.7305 0.6958
5 -8 2 -7.9328 0.6743
5 -8 3 -5.5660 -0.2654
5 -8 4 0.5524 0.0394
5 -8 5 8.1434 -0.0182
5 -8 6 -5.1063 -0.0187
5 -8 7 -3.1467 -0.1668
5 -8 8 1.2678 -0.0825
5 -8 9 7.1163 0.0570
5 -8 10 7.7606 0.0185
5 -8 11 -1.6184 -0.0729
5 -8 12 -7.6292 0.1125
5 -8 13 -1.1840 -0.0056
5 -8 14 6.0431 -0.0892
5 -8 15 3.5297 0.0181
5 -8 16 -5.6463 0.0149
5 -8 17 -6.0876 -0.0393
5 -8 18 0.6990 0.0859
5 -8 19 -3.4569 -0.0004
5 -8 20 2.9658 0.0146
5 -8 21 2.7280 -0.0864
5 -8 22 -2.5141 -0.0877
5 -8 23 -4.6914 0.1484
5 -7 0 -7.8120 -0.8080
5 -7 1 -7.6740 -0.0342
5 -7 2 -5.8752 0.3731
5 -7 3 -3.5466 0.5090
5 -7 4 -1.5374 -0.2380
5 -7 5 -5.3142 0.1633
5 -7 6 2.7358 0.2022
5 -7 7 -1.2258 -0.1465
5 -7 8 0.9330 -0.1241
5 -7 9 1.5907 -0.0320
5 -7 10 -0.4138 -0.0285
5 -7 11 4.9721 -0.0194
5 -7 12 -0.0239 -0.0576
5 -7 13 -7.1000 0.0284
5 -7 14 1.4958 -0.0059
5 -7 15 5.2313 -0.0458
5 -7 16 -0.8785 0.0676
5 -7 17 -3.6025 -0.0064
5 -7 18 -3.6115 -0.0751
5 -7 19 2.7829 0.0771
5 -7 20 -0.5829 -0.0278
5 -7 21 1.2036 -0.0668
5 -7 22 0.9923 0.0278
5 -7 23 -3.9916 -0.0629
5 -7 24 -2.0303 0.0663
5 -7 25 -1.4045 -0.1690
5 -6 0 6.4375 -0.0262
5 -6 1 -6.8436 -0.8263
5 -6 2 -4.6087 0.0496
5 -6 3 -6.3164 0.1506
5 -6 4 -8.9941 0.2613
5 -6 5 4.5629 -0.0822
5 -6 6 -0.2483 0.1512
5 -6 7 2.1355 0.2666
5 -6 8 -1.5896 -0.1501
5 -6 9 -5.0727 -0.0007
5 -6 10 -1.5578 0.0417
5 -6 11 0.0965 -0.1267
5 -6 12 6.1972 -0.0618
5 -6 13 1.0986 0.0333
5 -6 14 -5.7885 -0.0118
5 -6 15 4.7889 0.0209
5 -6 16 7.1994 -0.0155
5 -6 17 -4.5515 0.0360
5 -6 18 -3.7205 -0.0091
5 -6 19 -1.8213 -0.0427
5 -6 20 3.0571 0.0449
5 -6 21 3.5330 -0.0015
5 -6 22 1.1461 -0.0730
5 -6 23 1.2840 0.1054
5 -6 24 -2.7417 -0.0932
5 -6 25 -0.1271 -0.0286
5 -6 26 -1.5750 -0.0535
5 -5 0 4.3408 0.2978
5 -5 1 3.4925 0.0960
5 -5 2 -14.4592 -0.7073
5 -5 3 -3.8924 0.0308
5 -5 4 8.6300 0.0786
5 -5 5 -4.3174 0.0209
5 -5 6 2.8397 0.0136
5 -5 7 -4.8456 0.1174
5 -5 8 -3.5146 0.2789
5 -5 9 3.4668 -0.0886
5 -5 10 -2.8375 0.0627
5 -5 11 -2.4796 0.0508
5 -5 12 -0.8316 -0.1062
5 -5 13 3.7004 -0.0313
5 -5 14 4.8677 0.0785
5 -5 15 0.9017 -0.1053
5 -5 16 4.4385 0.0071
5 -5 17 3.8458 0.0596
5 -5 18 -7.8485 0.0504
5 -5 19 -2.8537 -0.0263
5 -5 20 2.9937 -0.0525
5 -5 21 1.0776 -0.0212
5 -5 22 3.2632 0.0452
5 -5 23 2.6736 -0.0232
5 -5 24 3.3197 0.1197
5 -5 25 -0.5052 -0.0307
5 -5 26 -1.5121 0.0217
5 -5 27 -4.2113 0.1269
5 -4 0 -5.9197 0.5768
5 -4 1 -2.3886 0.2689
5 -4 2 9.9026 0.0674
5 -4 3 2.9242 -0.4997
5 -4 4 -1.4376 -0.0058
5 -4 5 5.2967 0.0440
5 -4 6 -13.0866 -0.1009
5 -4 7 1.6908 0.0558
5 -4 8 7.3957 0.0449
5 -4 9 -1.8175 0.2013
5 -4 10 0.7298 -0.0555
5 -4 11 -5.5689 0.1372
5 -4 12 -1.8171 0.0693
5 -4 13 3.6805 -0.1033
5 -4 14 4.5832 -0.0672
5 -4 15 3.9841 0.0895
5 -4 16 0.3878 -0.0893
5 -4 17 0.5299 0.0112
5 -4 18 3.0914 0.0545
5 -4 19 -3.3094 -0.0121
5 -4 20 -4.2030 -0.0591
5 -4 21 0.5838 -0.0188
5 -4 22 -2.9077 -0.0211
5 -4 23 4.4872 0.0429
5 -4 24 8.0597 0.0130
5 -4 25 2.7930 0.1003
5 -4 26 -2.6899 0.0689
5 -4 27 -3.2654 0.0061
5 -4 28 -3.1865 0.0537
5 -3 0 -13.4121 -0.2122
5 -3 1 11.8630 0.4045
5 -3 2 12.6484 0.2737
5 -3 3 4.1238 0.0102
5 -3 4 -3.2628 -0.3213
5 -3 5 -10.1052 0.0594
5 -3 6 12.1917 -0.0112
5 -3 7 2.0761 -0.1989
5 -3 8 0.4428 0.0475
5 -3 9 2.7023 -0.0199
5 -3 10 -8.9899 0.1479
5 -3 11 1.7526 -0.0313
5 -3 12 4.3319 0.1223
5 -3 13 1.3185 0.0420
5 -3 14 0.8035 -0.0879
5 -3 15 -0.5117 -0.0266
5 -3 16 0.1748 0.1081
5 -3 17 2.4544 -0.1150
5 -3 18 2.3679 -0.0618
5 -3 19 1.2533 0.0517
5 -3 20 -2.4307 -0.0057
5 -3 21 -8.0175 -0.0367
5 -3 22 -1.1269 -0.0126
5 -3 23 0.6905 -0.0204
5 -3 24 4.3842 0.0156
5 -3 25 5.8404 0.0068
5 -3 26 -0.3898 -0.0121
5 -3 27 -1.5326 0.0872
5 -3 28 -0.6006 0.0052
5 -3 29 -2.8507 0.0156
5 -2 0 7.5840 -0.7490
5 -2 1 -2.5251 -0.0102
5 -2 2 6.6694 0.2314
5 -2 3 0.3909 0.2085
5 -2 4 -3.6312 0.0655
5 -2 5 14.9214 -0.2357
5 -2 6 2.7421 0.1230
5 -2 7 4.0942 -0.0875
5 -2 8 -3.8996 -0.2414
5 -2 9 -8.6248 0.1281
5 -2 10 5.3247 -0.0524
5 -2 11 0.3122 0.0096
5 -2 12 3.0317 -0.0202
5 -2 13 2.7619 0.1101
5 -2 14 -1.6207 0.0599
5 -2 15 -0.2336 -0.0564
5 -2 16 -0.8530 -0.0249
5 -2 17 -0.4902 0.0784
5 -2 18 2.9173 -0.0905
5 -2 19 3.5200 -0.0642
5 -2 20 -1.6412 0.0685
5 -2 21 -0.6446 -0.0246
5 -2 22 -6.0409 -0.0144
5 -2 23 -3.4598 0.0032
5 -2 24 1.4385 -0.0277
5 -2 25 0.8412 -0.0499
5 -2 26 3.1082 -0.0525
5 -2 27 1.8369 -0.0479
5 -2 28 0.1179 0.2190
5 -2 29 -2.6547 0.0751
5 -2 30 -4.1262 -0.0775
5 -1 0 5.4206 0.3707
5 -1 1 -7.0107 -0.8546
5 -1 2 -4.7552 0.0973
5 -1 3 10.8249 0.2632
5 -1 4 17.2440 0.0390
5 -1 5 -0.6595 0.1342
5 -1 6 6.3962 -0.2413
5 -1 7 -8.2371 0.1628
5 -1 8 -5.5844 -0.0357
5 -1 9 7.0323 -0.2212
5 -1 10 -3.3556 0.1422
5 -1 11 0.2861 -0.0877
5 -1 12 0.0759 -0.1261
5 -1 13 0.7979 0.0574
5 -1 14 2.5129 0.0985
5 -1 15 0.9402 0.0089
5 -1 16 -1.0349 -0.0075
5 -1 17 -2.7238 0.0258
5 -1 18 1.3736 0.0642
5 -1 19 5.4645 -0.0517
5 -1 20 5.3950 -0.0953
5 -1 21 -4.1776 0.0506
5 -1 22 -2.6465 -0.0045
5 -1 23 -4.6497 0.0094
5 -1 24 -5.0749 -0.0072
5 -1 25 3.3508 -0.0473
5 -1 26 0.6921 -0.0272
5 -1 27 -1.1112 -0.0074
5 -1 28 0.9838 -0.0293
5 -1 29 -0.4205 0.2410
5 -1 30 -2.8042 0.0249
5 0 1 2.7435 0.4632
5 0 2 7.8290 -0.6677
5 0 3 14.0375 0.0656
5 0 4 4.0744 0.3872
5 0 5 2.4445 -0.2727
5 0 6 -11.0699 0.1317
5 0 7 2.6793 -0.1198
5 0 8 0.8917 0.1875
5 0 9 -5.4922 -0.0154
5 0 10 3.3769 -0.2166
5 0 11 -4.3626 0.0820
5 0 12 -1.3182 -0.0438
5 0 13 3.9372 -0.1935
5 0 14 -0.7380 0.0799
5 0 15 -1.4610 0.0924
5 0 16 1.9575 -0.0309
5 0 17 2.1062 0.0597
5 0 18 0.4718 0.0556
5 0 19 4.0550 -0.0151
5 0 20 2.9419 -0.0231
5 0 21 0.4634 -0.0749
5 0 22 -5.3156 0.0412
5 0 23 -1.1604 0.0280
5 0 24 0.7393 -0.0182
5 0 25 -4.9970 -0.0122
5 0 26 -0.4353 0.0010
5 0 27 -2.2988 0.0205
5 0 28 -3.5218 0.0053
5 0 29 2.9202 -0.0763
5 0 30 2.6443 0.2178
5 0 31 -0.9738 0.0651
5 1 0 -3.3811 1.1112
5 1 1 9.1632 -0.7652
5 1 2 14.5637 0.4321
5 1 3 -5.3991 -0.3291
5 1 4 -2.6678 -0.2228
5 1 5 -3.1615 0.4431
5 1 6 8.8277 -0.3950
5 1 7 -5.8593 0.1283
5 1 8 -8.5523 0.0197
5 1 9 -1.9957 0.0795
5 1 10 -3.2058 -0.0941
5 1 11 5.3509 -0.1081
5 1 12 1.6897 0.0540
5 1 13 -3.8891 -0.0033
5 1 14 -1.9416 -0.1873
5 1 15 -0.2037 0.0478
5 1 16 2.5744 0.0906
5 1 17 5.1341 -0.0781
5 1 18 2.5708 0.0466
5 1 19 -1.7973 0.0822
5 1 20 0.0663 -0.0350
5 1 21 -0.2335 0.0383
5 1 22 3.0581 -0.0068
5 1 23 2.0929 -0.0214
5 1 24 0.5063 -0.0156
5 1 25 -1.8488 -0.0525
5 1 26 -9.5166 0.0258
5 1 27 -3.9524 0.0779
5 1 28 0.8344 0.0002
5 1 29 0.5912 -0.0035
5 1 30 3.8868 -0.0590
5 2 0 27.9174 -0.4610
5 2 1 2.6589 1.0257
5 2 2 -15.8003 -0.5403
5 2 3 0.0989 0.0956
5 2 4 -3.2083 -0.0235
5 2 5 5.2732 -0.3456
5 2 6 -2.5094 0.4703
5 2 7 -2.5277 -0.3406
5 2 8 -13.2730 0.0289
5 2 9 -5.2377 0.0639
5 2 10 9.0467 0.0178
5 2 11 0.2406 -0.1369
5 2 12 -3.1083 0.0436
5 2 13 1.5426 0.0474
5 2 14 0.5033 -0.0343
5 2 15 0.5602 -0.1263
5 2 16 4.4107 -0.0025
5 2 17 1.7850 0.0508
5 2 18 -2.0964 -0.0783
5 2 19 -2.3788 0.0447
5 2 20 0.0266 0.1366
5 2 21 2.7478 -0.0154
5 2 22 3.4067 0.0303
5 2 23 8.0154 0.0048
5 2 24 3.3226 -0.1064
5 2 25 -3.7232 -0.0376
5 2 26 -4.4885 0.0335
5 2 27 -9.1467 0.0588
5 2 28 -3.4493 0.0301
5 2 29 4.1774 -0.0663
5 2 30 2.9661 0.0774
5 2 31 1.8504 0.0727
5 2 32 0.1987 0.2146
5 3 0 -9.4580 0.5819
5 3 1 1.7278 -0.5601
5 3 2 1.0747 0.6296
5 3 3 -12.4816 -0.2017
5 3 4 4.6451 -0.1563
5 3 5 -4.6470 0.2318
5 3 6 -6.5150 -0.2645
5 3 7 -5.2122 0.3356
5 3 8 4.8878 -0.2021
5 3 9 -2.8497 0.0338
5 3 10 -4.3675 0.0619
5 3 11 1.9588 -0.0094
5 3 12 -1.1480 -0.1553
5 3 13 1.4681 0.1123
5 3 14 8.0090 0.0490
5 3 15 4.2156 -0.0918
5 3 16 -0.3910 -0.0311
5 3 17 2.4353 0.0206
5 3 18 -4.0982 0.0032
5 3 19 -8.3516 -0.0454
5 3 20 0.7549 0.0351
5 3 21 8.5087 0.0994
5 3 22 5.7742 -0.0399
5 3 23 1.7269 0.0063
5 3 24 8.0691 0.0506
5 3 25 3.7790 -0.0821
5 3 26 -5.7479 -0.0270
5 3 27 -5.1613 0.0618
5 3 28 -8.9044 -0.0144
5 3 29 -2.7177 -0.0503
5 3 30 5.9390 0.0085
5 3 31 1.4288 0.1786
5 4 0 14.2037 0.1374
5 4 1 1.3620 0.3893
5 4 2 1.8212 -0.5118
5 4 3 4.6441 0.2982
5 4 4 -18.4102 0.0909
5 4 5 -7.6672 -0.2404
5 4 6 1.4093 0.2816
5 4 7 9.2291 -0.0791
5 4 8 0.9060 0.2173
5 4 9 -0.5074 -0.0735
5 4 10 -7.4562 0.0692
5 4 11 -1.7683 -0.0085
5 4 12 7.5040 -0.0318
5 4 13 3.1604 -0.1095
5 4 14 1.1737 0.0915
5 4 15 4.6493 0.0363
5 4 16 6.0613 -0.0803
5 4 17 0.5191 0.0605
5 4 18 -2.8683 0.0455
5 4 19 -9.0210 -0.0827
5 4 20 -4.5943 -0.0327
5 4 21 7.6581 0.0279
5 4 22 8.1897 0.0161
5 4 23 2.4975 -0.0361
5 4 24 0.3422 0.0532
5 4 25 7.4134 0.0873
5 4 26 2.5806 -0.0793
5 4 27 -8.6955 -0.0358
5 4 28 -3.9206 0.0467
5 4 29 -5.0574 -0.0387
5 4 30 -3.4511 -0.1032
5 4 31 2.2704 0.0526
5 5 0 -2.4092 0.1281
5 5 1 16.3725 0.3450
5 5 2 3.8972 0.1252
5 5 3 -12.4154 -0.3781
5 5 4 -0.6990 0.1813
5 5 5 -0.8616 0.1804
5 5 6 4.1753 -0.2212
5 5 7 2.2416 0.1907
5 5 8 3.4421 0.0269
5 5 9 -3.6196 0.1040
5 5 10 4.4242 -0.0403
5 5 11 3.1452 0.1292
5 5 12 -0.0634 -0.0088
5 5 13 1.7039 -0.0546
5 5 14 0.5355 -0.0663
5 5 15 3.1268 0.0397
5 5 16 3.4820 0.0053
5 5 17 2.5074 -0.0354
5 5 18 -1.4409 0.0755
5 5 19 -3.9019 0.0270
5 5 20 -4.9749 -0.1004
5 5 21 -0.1765 0.0043
5 5 22 3.5500 0.0265
5 5 23 0.1004 -0.0522
5 5 24 1.0051 0.0017
5 5 25 1.6277 0.0934
5 5 26 2.1859 0.0734
5 5 27 1.8111 -0.0953
5 5 28 -5.1130 -0.0001
5 5 29 -1.3157 0.0093
5 5 30 -3.7820 -0.0519
5 5 31 -6.7011 -0.1442
5 6 0 13.8343 -0.4496
5 6 1 -4.6238 0.1165
5 6 2 -3.8383 0.4054
5 6 3 7.1985 0.0523
5 6 4 5.6152 -0.2401
5 6 5 9.3862 0.1999
5 6 6 -0.5925 0.0487
5 6 7 -8.7767 -0.2881
5 6 8 -5.8028 0.0727
5 6 9 14.0615 0.0790
5 6 10 9.2730 0.0634
5 6 11 2.7257 -0.0293
5 6 12 -3.1001 0.1481
5 6 13 -3.3594 0.0069
5 6 14 3.4562 -0.0657
5 6 15 1.4185 -0.0137
5 6 16 -0.3646 0.0253
5 6 17 -1.4258 -0.0450
5 6 18 1.3020 -0.0220
5 6 19 2.3341 0.0638
5 6 20 -1.7795 0.0067
5 6 21 -4.5557 -0.0473
5 6 22 -3.4337 0.0404
5 6 23 -4.0241 0.0351
5 6 24 -3.7745 -0.0558
5 6 25 1.8490 0.0444
5 6 26 3.5003 0.0534
5 6 27 -0.3497 0.0331
5 6 28 3.7176 -0.0897
5 6 29 -0.1406 0.0651
5 6 30 -2.3935 -0.0146
5 7 0 -5.8469 -1.1658
5 7 1 3.9974 -0.3622
5 7 2 2.4757 0.2080
5 7 3 3.7599 0.2927
5 7 4 11.0208 0.0628
5 7 5 1.2031 -0.2226
5 7 6 -3.9500 0.1863
5 7 7 -2.3853 -0.0698
5 7 8 -0.9889 -0.2889
5 7 9 -0.6466 0.1012
5 7 10 12.8199 0.0730
5 7 11 6.0102 -0.0662
5 7 12 -1.6680 -0.0606
5 7 13 -1.5278 0.1649
5 7 14 -2.0879 0.0705
5 7 15 -0.1719 -0.0014
5 7 16 -0.6656 0.0331
5 7 17 1.2007 -0.0134
5 7 18 1.9999 -0.0950
5 7 19 -0.8047 -0.0314
5 7 20 -0.3478 0.0639
5 7 21 -0.3313 0.0030
5 7 22 -4.1009 0.0185
5 7 23 -5.8032 0.0587
5 7 24 -7.6186 0.0372
5 7 25 -1.3834 -0.0593
5 7 26 3.4290 0.0452
5 7 27 4.3447 0.0030
5 7 28 0.9545 0.0577
5 7 29 4.4731 -0.0379
5 7 30 2.1377 0.0538
5 8 0 0.4383 0.1239
5 8 1 5.6457 -0.9954
5 8 2 10.5394 -0.3139
5 8 3 2.6309 0.2934
5 8 4 -10.9318 -0.0100
5 8 5 -5.8365 0.0390
5 8 6 4.0223 -0.1111
5 8 7 5.3440 0.2359
5 8 8 0.1406 -0.0428
5 8 9 -4.9301 -0.2566
5 8 10 -4.3005 0.0752
5 8 11 11.9313 -0.0295
5 8 12 7.9139 -0.1668
5 8 13 -4.8320 0.0161
5 8 14 -4.8508 0.2095
5 8 15 -2.1608 0.0661
5 8 16 2.7892 0.0121
5 8 17 4.3878 0.0484
5 8 18 1.5855 -0.0457
5 8 19 -0.3748 -0.0597
5 8 20 -4.2365 -0.0076
5 8 21 0.4214 0.0294
5 8 22 4.6892 -0.0475
5 8 23 -5.1980 0.0163
5 8 24 -6.7639 0.0435
5 8 25 -4.6129 0.0437
5 8 26 2.7112 -0.0433
5 8 27 3.0016 0.0548
5 8 28 2.7335 0.0014
5 8 29 2.9814 0.0606
5 8 30 1.1020 -0.0528
5 9 0 -10.1087 0.6217
5 9 1 3.7095 -0.0281
5 9 2 7.2912 -0.6388
5 9 3 -3.5751 -0.2957
5 9 4 -10.3079 0.3377
5 9 5 -9.8541 -0.2116
5 9 6 -0.6218 0.0234
5 9 7 8.3324 0.0591
5 9 8 0.9572 0.1925
5 9 9 -5.1117 -0.0399
5 9 10 -0.2447 -0.1872
5 9 11 3.1305 0.0532
5 9 12 7.8121 -0.0647
5 9 13 -0.4777 -0.1547
5 9 14 -7.7417 0.0511
5 9 15 -0.5744 0.1200
5 9 16 2.4092 -0.0030
5 9 17 2.3654 0.0378
5 9 18 5.1357 0.1142
5 9 19 0.8733 -0.0268
5 9 20 -1.4339 -0.0283
5 9 21 -2.2039 -0.0238
5 9 22 1.1413 -0.0681
5 9 23 4.4732 -0.0911
5 9 24 -8.1015 0.0381
5 9 25 -3.3161 0.0422
5 9 26 2.8508 0.0191
5 9 27 1.8245 -0.0450
5 9 28 -2.6244 0.0556
5 9 29 -3.0793 0.0310
5 9 30 2.2792 0.0517
5 10 0 -0.8688 0.6013
5 10 1 -10.1206 0.6419
5 10 2 -5.3504 -0.2061
5 10 3 -0.3083 -0.2468
5 10 4 -4.4915 -0.1719
5 10 5 -6.1620 0.2831
5 10 6 -2.1750 -0.2869
5 10 7 -1.1283 -0.0467
5 10 8 3.4949 0.1289
5 10 9 2.9521 0.1015
5 10 10 0.5272 -0.0185
5 10 11 4.7704 -0.0620
5 10 12 3.0805 0.0283
5 10 13 0.5737 -0.0884
5 10 14 -3.3989 -0.1107
5 10 15 -6.9799 0.0332
5 10 16 0.2645 0.0041
5 10 17 3.3750 -0.0129
5 10 18 2.1954 0.0739
5 10 19 7.1065 0.1115
5 10 20 -1.3795 -0.0217
5 10 21 -5.3429 -0.0313
5 10 22 1.1779 0.0005
5 10 23 0.3227 -0.0746
5 10 24 -1.0001 -0.0777
5 10 25 -7.9488 0.0355
5 10 26 1.8446 -0.0118
5 10 27 4.3327 -0.0415
5 10 28 -8.2638 0.0013
5 10 29 -9.1050 0.1150
5 10 30 -2.0763 0.0682
5 11 0 -2.7212 -0.1622
5 11 1 -3.0537 0.2213
5 11 2 -11.0724 0.5779
5 11 3 -6.6969 -0.2669
5 11 4 -0.5697 -0.0298
5 11 5 -0.1090 -0.0120
5 11 6 -1.3757 0.1592
5 11 7 3.3024 -0.2567
5 11 8 2.3063 -0.0752
5 11 9 2.3808 0.1149
5 11 10 4.8799 0.0061
5 11 11 2.6466 -0.0422
5 11 12 6.2546 0.0113
5 11 13 4.0300 0.0459
5 11 14 -4.6640 -0.0357
5 11 15 -6.2572 -0.0502
5 11 16 -5.6729 -0.0099
5 11 17 1.2926 -0.1085
5 11 18 5.1547 -0.0211
5 11 19 -0.5755 0.1046
5 11 20 2.5615 0.0426
5 11 21 -3.5478 0.0007
5 11 22 -5.0896 0.0115
5 11 23 4.6403 0.0785
5 11 24 -4.4549 -0.0220
5 11 25 -9.5593 -0.0815
5 11 26 -5.8381 -0.0096
5 12 0 0.2881 -0.1097
5 12 1 -3.2049 0.0523
5 12 2 -2.8058 -0.0901
5 12 3 -9.2291 0.4109
5 12 4 -4.4068 -0.1331
5 12 5 -0.2435 -0.0030
5 12 6 4.0064 0.0903
5 12 7 8.0152 0.0804
5 12 8 5.7025 -0.1802
5 12 9 1.0385 -0.0448
5 12 10 -0.7489 0.0556
5 12 11 6.0376 -0.0950
5 12 12 5.7287 -0.0590
5 12 13 3.6860 0.1063
5 12 14 2.4337 0.0954
5 12 15 -6.1185 -0.0286
5 12 16 -3.0935 -0.0769
5 12 17 -1.6313 -0.0336
5 12 18 -3.9555 -0.1211
5 12 19 1.9370 -0.0397
5 12 20 -0.2069 0.1227
5 12 21 2.1918 -0.0458
5 12 22 -1.9737 0.0282
5 12 23 -6.1419 0.1164
5 12 24 -0.7922 0.1378
5 12 25 -10.3239 -0.0137
5 13 0 -0.6414 0.1790
5 13 1 2.9898 -0.1455
5 13 2 -3.5668 0.1032
5 13 3 -0.7543 -0.0974
5 13 4 -6.4467 0.2363
5 13 5 -4.7406 0.0145
5 13 6 2.0474 -0.1001
5 13 7 6.5228 0.0888
5 13 8 9.9563 0.0887
5 13 9 -0.4808 -0.0999
5 13 10 -3.0883 0.0180
5 13 11 1.5403 0.0384
5 13 12 7.4083 -0.1338
5 13 13 4.7890 -0.0546
5 13 14 -1.6635 0.1395
5 13 15 2.9712 0.0203
5 13 16 -1.3219 -0.0650
5 13 17 -1.9852 -0.0266
5 13 18 -1.4926 0.0075
5 13 19 -5.9589 -0.1165
5 13 20 6.1981 -0.1080
5 13 21 5.3585 0.1562
5 13 22 -2.9424 -0.0476
5 13 23 -7.1845 0.0357
5 14 0 4.3071 0.0879
5 14 1 3.9529 0.3600
5 14 2 5.6552 -0.0701
5 14 3 -4.3621 -0.0080
5 14 4 -2.3203 0.0734
5 14 5 -4.9451 0.0807
5 14 6 -7.0808 0.0362
5 14 7 2.2914 -0.1283
5 14 8 0.5825 0.0352
5 14 9 1.7424 0.0821
5 14 10 -3.1373 -0.0321
5 14 11 -1.6102 0.0893
5 14 12 5.6659 0.0352
5 14 13 4.9293 -0.1274
5 14 14 0.3305 -0.0673
5 14 15 -5.5212 0.1127
5 14 16 3.1673 -0.0629
5 14 17 4.3732 -0.0222
5 14 18 1.0450 0.0868
5 14 19 4.2406 -0.0343
5 14 20 -1.2320 -0.1421
5 14 21 4.5148 -0.0853
5 14 22 0.7938 0.2200
5 15 0 3.8025 -0.3597
5 15 1 12.7274 0.1344
5 15 2 3.7620 0.2686
5 15 3 -1.3076 -0.0138
5 15 4 -4.7344 -0.1273
5 15 5 -2.9570 0.2437
5 15 6 -4.2896 0.0159
5 15 7 -13.5558 -0.0396
5 15 8 -6.7711 -0.0800
5 15 9 -4.7485 -0.0458
5 15 10 0.8004 0.0080
5 15 11 2.8862 0.0015
5 15 12 -1.7415 0.0929
5 15 13 1.7352 -0.0024
5 15 14 0.6833 0.0079
5 15 15 -2.7434 -0.0013
5 15 16 -4.1867 0.0578
5 15 17 6.2807 -0.0884
5 15 18 11.3535 0.0441
5 15 19 4.2284 0.1075
5 15 20 3.7868 -0.1707
5 16 0 2.8756 -0.5383
5 16 1 5.1768 -0.4773
5 16 2 6.6072 0.1653
5 16 3 -3.2308 0.0729
5 16 4 -1.6874 0.0088
5 16 5 1.1454 -0.1167
5 16 6 -9.5749 0.2448
5 16 7 -13.7235 -0.0167
5 16 8 -15.6846 -0.0953
5 16 9 -5.4449 -0.0124
5 16 10 3.2970 -0.1295
5 16 11 2.1489 -0.1329
5 16 12 -2.2536 -0.0398
5 16 13 -7.6045 0.1139
5 16 14 0.7046 0.0776
5 16 15 4.7041 0.2277
5 16 16 -0.3822 0.0078
5 16 17 -1.4750 -0.1141
5 17 0 -0.2041 0.3202
5 17 1 -1.9538 -0.4065
5 17 2 -1.4189 -0.6762
5 17 3 1.1435 0.1761
5 17 4 1.6883 0.0617
5 17 5 -0.2686 -0.0347
5 17 6 -8.8662 -0.1170
5 17 7 -18.0591 0.0800
5 17 8 -6.6577 -0.0074
5 17 9 3.2294 -0.0361
5 17 10 -0.1760 -0.0116
5 17 11 -1.4250 -0.2093
5 17 12 -6.6349 -0.1956
5 17 13 -6.9724 -0.0347
5 17 14 0.4100 0.1956
5 17 15 7.9543 0.1522
5 17 16 5.0504 0.1877
5 17 17 -3.1309 -0.1475
5 18 0 -5.2716 0.4342
5 18 1 -3.8984 0.1233
5 18 2 -2.2993 -0.4539
5 18 3 -1.4143 -0.5751
5 18 4 -0.1265 0.2991
5 18 5 -0.6728 0.1188
5 18 6 -7.2728 -0.2886
5 18 7 -11.8655 -0.2273
5 18 8 -0.8134 0.0358
5 18 9 11.3015 0.1277
5 18 16 5.0188 0.0684
6 -15 0 -3.1418 0.1009
6 -15 1 0.3406 -0.3458
6 -15 2 2.1226 0.2391
6 -15 3 -2.2989 0.2049
6 -15 4 -5.2536 -0.4718
6 -14 0 -4.8337 -0.3177
6 -14 1 -9.7344 0.1404
6 -14 2 0.8228 -0.0905
6 -14 3 6.7316 0.0116
6 -14 4 -0.3066 0.1167
6 -14 5 0.2748 -0.4478
6 -14 6 1.2707 0.0511
6 -14 7 7.4580 0.1172
6 -14 8 1.6971 -0.0837
6 -14 9 -12.8958 -0.2517
6 -13 0 -6.7891 0.1706
6 -13 1 -8.4931 -0.1849
6 -13 2 -0.7795 0.0948
6 -13 3 0.8409 0.0606
6 -13 4 4.0481 -0.3145
6 -13 5 -4.6615 0.1367
6 -13 6 -2.0917 -0.1508
6 -13 7 0.2076 0.1372
6 -13 8 5.4825 -0.0229
6 -13 9 1.7603 -0.1949
6 -13 10 -12.0110 -0.1264
6 -13 11 -6.1514 0.1589
6 -13 12 5.5484 0.1308
6 -12 0 -10.1332 -0.3682
6 -12 1 -5.3994 0.0429
6 -12 2 -7.2672 -0.0251
6 -12 3 0.5572 -0.1736
6 -12 4 -5.5821 0.1304
6 -12 5 1.0432 -0.2412
6 -12 6 -4.0475 0.2227
6 -12 7 -3.6092 -0.0448
6 -12 8 3.4629 -0.0570
6 -12 9 4.3339 -0.0537
6 -12 10 -0.4133 -0.0077
6 -12 11 -9.9041 0.0114
6 -12 12 -1.2399 0.0314
6 -12 13 5.8882 -0.0532
6 -12 14 -2.9656 -0.0267
6 -12 15 -9.8514 0.1489
6 -11 0 -4.6654 0.4875
6 -11 1 -17.3358 -0.1239
6 -11 2 -5.8077 -0.1887
6 -11 3 -5.3698 0.0790
6 -11 4 3.0297 -0.2159
6 -11 5 -2.0492 0.1780
6 -11 6 0.7313 -0.1112
6 -11 7 -4.5987 0.0538
6 -11 8 -6.9272 -0.0528
6 -11 9 4.7990 -0.0409
6 -11 10 1.2065 0.0328
6 -11 11 -1.9666 0.0526
6 -11 12 -3.6718 -0.0055
6 -11 13 3.8014 -0.0320
6 -11 14 2.5814 -0.0640
6 -11 15 -7.1532 -0.0546
6 -11 16 -8.6128 0.0615
6 -11 17 3.7676 0.1772
6 -10 0 0.6168 0.7662
6 -10 1 -5.0598 0.2604
6 -10 2 -11.6224 0.0248
6 -10 3 2.4789 -0.1794
6 -10 4 -2.8459 0.1137
6 -10 5 1.3724 -0.1814
6 -10 6 1.9212 0.0503
6 -10 7 -2.2759 -0.0206
6 -10 8 -5.9985 -0.0322
6 -10 9 -8.4807 -0.0171
6 -10 10 4.5189 0.0301
6 -10 11 1.4746 0.0209
6 -10 12 0.3908 0.0079
6 -10 13 0.8163 0.0165
6 -10 14 2.7853 0.0023
6 -10 15 -2.4479 -0.0243
6 -10 16 -5.6352 -0.0027
6 -10 17 -1.7619 0.0288
6 -10 18 5.7133 0.1434
6 -10 19 2.9700 -0.0483
6 -9 0 5.9344 0.0480
6 -9 1 7.0060 0.8452
6 -9 2 3.6763 0.0601
6 -9 3 -7.4709 0.0541
6 -9 4 -3.3707 -0.0016
6 -9 5 -4.0628 0.0010
6 -9 6 3.3259 -0.1308
6 -9 7 5.9370 -0.0066
6 -9 8 -7.5670 0.0372
6 -9 9 -6.4674 -0.0303
6 -9 10 -4.0679 0.0092
6 -9 11 5.5504 0.0447
6 -9 12 2.1671 -0.0216
6 -9 13 0.0396 -0.0383
6 -9 14 0.1426 0.0800
6 -9 15 1.3931 0.0994
6 -9 16 -2.0412 -0.0068
6 -9 17 -1.3027 -0.0245
6 -9 18 1.9342 -0.0391
6 -9 19 2.5949 0.0429
6 -9 20 0.6007 0.0162
6 -9 21 -3.4971 -0.2483
6 -8 0 11.3842 -0.4032
6 -8 1 14.2451 -0.0002
6 -8 2 -0.3852 0.6693
6 -8 3 -4.4569 -0.0057
6 -8 4 -5.2005 -0.0475
6 -8 5 -0.3377 0.1717
6 -8 6 -0.0257 -0.0812
6 -8 7 -2.0084 -0.0696
6 -8 8 2.4307 0.0480
6 -8 9 -5.2511 0.0268
6 -8 10 0.7424 -0.0465
6 -8 11 0.8413 0.0250
6 -8 12 1.3634 0.0296
6 -8 13 0.6504 -0.0002
6 -8 14 1.1587 -0.0388
6 -8 15 -0.8896 0.0311
6 -8 16 -0.6365 0.0536
6 -8 17 -1.2424 -0.0198
6 -8 18 0.8657 0.0443
6 -8 19 3.2584 0.0698
6 -8 20 0.5110 -0.0539
6 -8 21 1.0410 0.0495
6 -8 22 -2.1957 -0.1464
6 -8 23 2.9045 0.1447
6 -7 0 3.3800 -0.8489
6 -7 1 7.1481 -0.2267
6 -7 2 5.9720 0.0623
6 -7 3 -3.8530 0.2950
6 -7 4 -0.7241 -0.0251
6 -7 5 0.7968 -0.1223
6 -7 6 -4.8125 0.2891
6 -7 7 -3.3887 -0.0373
6 -7 8 -2.9519 -0.0654
6 -7 9 7.4422 0.0597
6 -7 10 1.3692 -0.0197
6 -7 11 -0.7483 -0.0611
6 -7 12 0.0512 0.0948
6 -7 13 1.8203 -0.0022
6 -7 14 1.8364 -0.0664
6 -7 15 -0.2799 -0.0720
6 -7 16 -5.5064 -0.0020
6 -7 17 -2.2429 0.0733
6 -7 18 3.1139 0.0514
6 -7 19 2.2252 0.0288
6 -7 20 1.1282 0.0353
6 -7 21 -2.1716 -0.1570
6 -7 22 0.3292 0.1534
6 -7 23 -2.1550 0.0240
6 -7 24 2.0202 0.0152
6 -6 0 -4.6824 -0.1501
6 -6 1 3.3307 -0.7441
6 -6 2 8.5775 -0.2057
6 -6 3 6.7309 0.1503
6 -6 4 -6.9152 -0.0284
6 -6 5 -5.9851 -0.0032
6 -6 6 3.7911 -0.0663
6 -6 7 -2.5508 0.2621
6 -6 8 0.7299 -0.0201
6 -6 9 -2.3858 -0.0836
6 -6 10 4.0345 0.0666
6 -6 11 2.2728 -0.0072
6 -6 12 -1.5255 -0.1045
6 -6 13 2.5322 0.0707
6 -6 14 3.4584 -0.0383
6 -6 15 -1.4400 -0.0575
6 -6 16 -3.1505 0.0412
6 -6 17 -3.9678 0.0101
6 -6 18 0.1343 -0.0385
6 -6 19 4.4950 0.0039
6 -6 20 -2.0723 -0.0113
6 -6 21 -2.5448 0.0541
6 -6 22 -1.4926 -0.0853
6 -6 23 0.2210 0.1460
6 -6 24 -1.2595 -0.0019
6 -6 25 2.9703 -0.2171
6 -6 26 6.2007 -0.1044
6 -5 0 -1.9667 0.5663
6 -5 1 -2.3487 -0.3896
6 -5 2 4.7066 -0.5073
6 -5 3 -1.6369 -0.0984
6 -5 4 -1.6200 0.1715
6 -5 5 -1.0466 -0.2411
6 -5 6 0.3856 -0.0135
6 -5 7 7.1029 0.0425
6 -5 8 -7.5608 0.1705
6 -5 9 -2.4315 -0.0195
6 -5 10 0.8419 -0.0443
6 -5 11 2.5944 0.0381
6 -5 12 1.9718 -0.0313
6 -5 13 -2.9639 -0.1086
6 -5 14 1.3303 0.0745
6 -5 15 5.6258 0.0091
6 -5 16 -0.1302 -0.0285
6 -5 17 -3.5808 0.0699
6 -5 18 -1.4561 -0.0305
6 -5 19 -0.0872 -0.0843
6 -5 20 2.2205 0.0302
6 -5 21 -3.6339 -0.0170
6 -5 22 -2.5977 -0.0080
6 -5 23 -0.3857 -0.0339
6 -5 24 -0.5600 0.0352
6 -5 25 1.5908 0.0078
6 -5 26 5.7053 -0.1892
6 -5 27 4.3048 0.0356
6 -4 0 5.4801 0.5319
6 -4 1 -3.6886 0.5762
6 -4 2 -15.9568 -0.4113
6 -4 3 0.9458 -0.2813
6 -4 4 3.3854 -0.0248
6 -4 5 1.4495 0.0146
6 -4 6 1.9266 -0.2745
6 -4 7 -8.5766 0.0990
6 -4 8 2.2080 0.1112
6 -4 9 -1.5590 -0.0022
6 -4 10 2.3132 -0.0512
6 -4 11 1.7257 0.0544
6 -4 12 -6.6117 0.0596
6 -4 13 -1.0097 -0.0558
6 -4 14 1.6062 -0.0814
6 -4 15 3.0547 0.0306
6 -4 16 6.0257 0.0155
6 -4 17 -0.2169 0.0059
6 -4 18 -5.4351 0.0935
6 -4 19 2.0819 -0.0393
6 -4 20 3.1781 -0.0574
6 -4 21 -0.7966 -0.0070
6 -4 22 -5.7952 -0.0536
6 -4 23 -3.7678 -0.0306
6 -4 24 1.9173 0.0551
6 -4 25 3.2429 -0.0405
6 -4 26 4.3162 0.0930
6 -4 27 3.2512 0.0183
6 -4 28 -1.9051 0.0603
6 -3 0 -6.6759 0.2645
6 -3 1 -4.4911 0.4639
6 -3 2 -0.1542 0.4389
6 -3 3 -9.3494 -0.3121
6 -3 4 1.8711 -0.2132
6 -3 5 -1.9927 0.0773
6 -3 6 -11.1690 -0.0215
6 -3 7 3.8693 -0.2182
6 -3 8 -1.1123 0.1228
6 -3 9 6.3592 0.0216
6 -3 10 1.3682 -0.1071
6 -3 11 -5.0716 0.0608
6 -3 12 -1.4732 0.1285
6 -3 13 -4.9288 0.0039
6 -3 14 1.6253 -0.1154
6 -3 15 3.0166 -0.0245
6 -3 16 -0.1074 0.0278
6 -3 17 2.5508 0.0141
6 -3 18 2.1892 -0.0219
6 -3 19 -2.5742 0.0510
6 -3 20 3.9270 -0.0576
6 -3 21 3.0272 0.0113
6 -3 22 -7.3181 -0.0062
6 -3 23 -6.4112 -0.0311
6 -3 24 1.5143 -0.0015
6 -3 25 6.5882 0.0764
6 -3 26 3.2275 -0.0862
6 -3 27 -0.6486 0.1421
6 -3 28 -1.3915 0.1565
6 -3 29 -2.4855 -0.0963
6 -2 0 0.5536 -0.6260
6 -2 1 2.4626 0.2431
6 -2 2 -4.4665 0.4093
6 -2 3 -2.0449 0.1248
6 -2 4 -17.3596 -0.0443
6 -2 5 -8.7606 -0.0769
6 -2 6 6.9280 0.1043
6 -2 7 -2.0004 -0.0534
6 -2 8 6.3186 -0.2420
6 -2 9 -1.4306 0.1147
6 -2 10 1.3638 0.0324
6 -2 11 4.9082 -0.1338
6 -2 12 -5.3117 0.0932
6 -2 13 -1.2595 0.0759
6 -2 14 -2.7385 -0.0105
6 -2 15 -0.8492 -0.0375
6 -2 16 2.2719 0.0227
6 -2 17 -0.1576 -0.0427
6 -2 18 -0.5642 -0.0420
6 -2 19 1.7384 -0.0786
6 -2 20 0.0997 0.0443
6 -2 21 2.1853 -0.0075
6 -2 22 3.1089 0.0633
6 -2 23 -7.3504 0.0206
6 -2 24 -4.2943 -0.0157
6 -2 25 4.6910 -0.0358
6 -2 26 4.1544 0.0275
6 -2 27 -0.4660 -0.0709
6 -2 28 -2.7410 0.1137
6 -2 29 -1.0528 0.1840
6 -2 30 -1.5118 -0.2290
6 -1 0 7.2516 -0.1082
6 -1 1 0.2234 -0.4920
6 -1 2 -9.5346 -0.0519
6 -1 3 -21.9812 0.4899
6 -1 4 -2.1690 -0.0741
6 -1 5 1.3310 0.1427
6 -1 6 -0.7800 0.0115
6 -1 7 10.4879 -0.0144
6 -1 8 -6.6130 0.0016
6 -1 9 -0.3330 -0.1608
6 -1 10 9.2678 0.0773
6 -1 11 5.4681 0.0394
6 -1 12 1.0260 -0.1680
6 -1 13 -10.5391 0.0756
6 -1 14 -0.0580 0.0878
6 -1 15 3.6511 0.0149
6 -1 16 -0.9666 0.0095
6 -1 17 -1.6647 0.0086
6 -1 18 -4.2337 -0.0819
6 -1 19 -3.4323 -0.0240
6 -1 20 3.4718 -0.0777
6 -1 21 8.0490 0.0377
6 -1 22 1.2926 0.0293
6 -1 23 0.0627 0.0149
6 -1 24 -6.8407 -0.0046
6 -1 25 -4.7715 -0.0102
6 -1 26 5.7286 -0.0601
6 -1 27 3.3598 0.0681
6 -1 28 -1.9769 0.0214
6 -1 29 -3.7752 -0.0367
6 -1 30 -2.5757 0.0704
6 0 0 9.9358 0.4786
6 0 1 -8.8962 -0.2431
6 0 2 -20.5804 -0.1359
6 0 3 -2.8051 -0.3022
6 0 4 -1.7126 0.5648
6 0 5 5.5475 -0.1771
6 0 6 3.0664 0.0587
6 0 7 -7.2925 0.1225
6 0 8 11.3967 -0.0299
6 0 9 3.1978 0.0856
6 0 10 -0.1820 -0.0802
6 0 11 10.4428 -0.0141
6 0 12 -1.6142 0.0498
6 0 13 -5.2584 -0.1215
6 0 14 -3.2708 0.0095
6 0 15 5.2892 0.0984
6 0 16 2.3545 0.0324
6 0 17 -6.8344 0.0381
6 0 18 -4.1965 0.0422
6 0 19 -2.0193 -0.0578
6 0 20 2.3879 0.0044
6 0 21 6.0515 -0.0555
6 0 22 7.5387 -0.0437
6 0 23 -5.1994 -0.0199
6 0 24 -3.6543 -0.0257
6 0 25 0.8668 -0.0004
6 0 26 -1.6857 0.0577
6 0 27 3.4987 -0.0527
6 0 28 0.0162 0.0837
6 0 29 -4.6640 0.0565
6 1 0 4.7212 0.4705
6 1 1 -1.0216 0.7634
6 1 2 -1.0491 -0.3998
6 1 3 -8.1974 0.2201
6 1 4 6.0216 -0.4059
6 1 5 0.3913 0.4144
6 1 6 -3.5356 -0.1611
6 1 7 10.2510 -0.0465
6 1 8 3.6229 0.2525
6 1 9 6.4389 0.0033
6 1 10 -0.1981 0.0398
6 1 11 -4.1332 -0.0503
6 1 12 10.3103 -0.0355
6 1 13 -2.6947 0.0368
6 1 14 -7.3808 -0.0385
6 1 15 0.6265 -0.0471
6 1 16 2.9088 0.0961
6 1 17 -0.1069 0.0442
6 1 18 -3.6708 0.0265
6 1 19 1.9414 0.0671
6 1 20 -0.9597 -0.0164
6 1 21 0.4853 0.0002
6 1 22 -0.1462 -0.0407
6 1 23 2.9397 -0.1058
6 1 24 -1.6242 -0.0406
6 1 25 0.8787 0.0223
6 1 26 5.5467 -0.0679
6 1 27 -5.3688 0.0341
6 1 28 -2.4728 -0.0050
6 1 29 0.3865 0.0764
6 1 30 -2.5385 0.0480
6 1 31 -2.7510 -0.4198
6 2 0 -3.3106 -0.9456
6 2 1 14.8644 0.0466
6 2 2 3.5579 1.0233
6 2 3 -1.0574 -0.5472
6 2 4 -9.1659 0.2313
6 2 5 10.1068 -0.3113
6 2 6 14.0157 0.2731
6 2 7 -5.2188 -0.0235
6 2 8 4.2955 -0.1144
6 2 9 0.7990 0.1969
6 2 10 -0.8997 -0.0323
6 2 11 4.3842 -0.0305
6 2 12 -1.6350 -0.0188
6 2 13 0.0008 0.0459
6 2 14 -7.1440 0.0110
6 2 15 -4.6381 0.0266
6 2 16 5.2495 -0.0887
6 2 17 1.0150 0.0147
6 2 18 1.7684 0.0410
6 2 19 2.3080 0.0301
6 2 20 -0.1145 0.0584
6 2 21 -9.6778 0.0244
6 2 22 -3.5837 0.0236
6 2 23 1.8260 -0.0106
6 2 24 5.0949 -0.1122
6 2 25 2.4608 -0.0908
6 2 26 -0.8746 0.0401
6 2 27 3.4050 -0.1126
6 2 28 -4.6105 0.0201
6 2 29 -1.6193 0.0600
6 2 30 2.6900 -0.0653
6 2 31 -0.9265 -0.0183
6 3 0 13.7439 -0.1233
6 3 1 -3.7724 -0.5908
6 3 2 4.1453 -0.3485
6 3 3 0.4944 0.9065
6 3 4 9.6062 -0.5486
6 3 5 6.0058 0.1324
6 3 6 6.9288 -0.0410
6 3 7 4.1511 0.1741
6 3 8 -13.9061 -0.0460
6 3 9 5.2869 -0.1750
6 3 10 9.7733 0.1124
6 3 11 -6.3186 -0.0425
6 3 12 -4.1911 -0.0080
6 3 13 -4.8755 0.0003
6 3 14 -4.0367 0.1008
6 3 15 -1.6606 -0.0485
6 3 16 -0.2249 0.0165
6 3 17 4.5980 -0.0864
6 3 18 -0.4110 -0.0192
6 3 19 3.5185 0.0756
6 3 20 0.3778 0.0403
6 3 21 -8.5322 -0.0063
6 3 22 -10.6466 0.0493
6 3 23 2.6137 0.0634
6 3 24 4.7497 -0.0270
6 3 25 0.7185 -0.0739
6 3 26 2.1363 -0.0454
6 3 27 0.7821 0.0703
6 3 28 5.0764 -0.1295
6 3 29 -1.6032 -0.1046
6 3 30 -0.7864 0.0437
6 3 31 3.6494 -0.1052
6 4 0 -9.2661 -0.0220
6 4 1 8.8522 -0.2779
6 4 2 -2.7494 -0.3734
6 4 3 10.3135 -0.4402
6 4 4 8.4341 0.6609
6 4 5 4.1557 -0.4059
6 4 6 -3.6316 -0.0144
6 4 7 -1.8309 0.0779
6 4 8 10.8233 0.1096
6 4 9 -3.9193 -0.0833
6 4 10 -0.9449 -0.1037
6 4 11 0.5500 0.1196
6 4 12 -10.2755 -0.0840
6 4 13 -3.1259 0.0098
6 4 14 -0.6852 -0.0222
6 4 15 -6.7333 0.0774
6 4 16 -0.3067 -0.0566
6 4 17 4.1660 0.0410
6 4 18 4.6302 -0.0289
6 4 19 -2.7090 -0.0128
6 4 20 -1.3618 0.0539
6 4 21 -1.9563 0.0045
6 4 22 -6.3636 -0.0662
6 4 23 -4.1910 0.0669
6 4 24 5.7068 0.1014
6 4 25 2.0455 -0.0065
6 4 26 -1.8455 0.0137
6 4 27 4.7428 0.0191
6 4 28 2.4730 -0.0145
6 4 29 4.1900 -0.1503
6 4 30 0.4390 -0.1337
6 4 31 0.4421 0.1032
6 5 0 -0.9936 0.8458
6 5 1 5.7175 0.1395
6 5 2 19.8172 -0.2095
6 5 3 -3.5897 -0.2030
6 5 4 -5.4466 -0.2809
6 5 5 -2.9104 0.3419
6 5 6 4.6462 -0.3521
6 5 7 8.5990 -0.0375
6 5 8 1.4341 0.1289
6 5 9 3.9085 0.0831
6 5 10 -8.8144 -0.0834
6 5 11 -5.4383 -0.0294
6 5 12 3.8468 0.1360
6 5 13 -3.8411 -0.1225
6 5 14 -6.7183 0.0288
6 5 15 -2.1250 -0.0203
6 5 16 -3.5222 0.0369
6 5 17 3.9920 -0.0338
6 5 18 3.5542 0.0555
6 5 19 -0.3145 -0.0272
6 5 20 -3.0362 -0.0156
6 5 21 -1.0576 0.0151
6 5 22 0.3799 -0.0141
6 5 23 -1.5741 -0.0690
6 5 24 -1.0588 0.0723
6 5 25 6.2535 0.0939
6 5 26 1.1219 0.0317
6 5 27 -4.4639 0.0485
6 5 28 3.7171 0.0260
6 5 29 1.7895 -0.0767
6 5 30 3.1780 -0.0930
6 5 31 1.4465 -0.0317
6 6 0 -8.8702 -0.4783
6 6 1 17.8425 0.7703
6 6 2 11.8424 0.1180
6 6 3 -3.1290 -0.0585
6 6 5 2.0446 -0.1068
6 6 6 13.9177 0.1699
6 6 7 7.0862 -0.3049
6 6 8 -0.2657 0.0224
6 6 9 -8.2141 0.0593
6 6 10 3.0296 -0.0281
6 6 11 0.1069 -0.0206
6 6 12 -4.2786 0.0607
6 6 13 -0.4010 0.1421
6 6 14 -0.8604 -0.1092
6 6 15 -3.1763 0.0313
6 6 16 0.4293 -0.0490
6 6 17 -3.7572 -0.0169
6 6 18 -1.2190 -0.0209
6 6 19 1.7899 0.0674
6 6 20 2.8201 -0.0500
6 6 21 0.3681 -0.0381
6 6 22 -1.8091 -0.0161
6 6 23 -0.1815 0.0058
6 6 24 2.6606 -0.0344
6 6 25 0.2327 0.0640
6 6 26 3.3384 0.0392
6 6 27 -0.4893 0.0414
6 6 28 -8.0995 0.0337
6 6 29 1.3491 -0.0080
6 6 30 1.7123 -0.0236
6 7 0 -0.8149 -0.5000
6 7 1 -5.6315 -0.6232
6 7 2 6.3601 0.7305
6 7 3 1.7773 -0.0294
6 7 4 -3.6650 0.0266
6 7 5 -2.7761 0.0793
6 7 6 11.2714 -0.0331
6 7 7 6.7100 0.0762
6 7 8 -4.8404 -0.2785
6 7 9 -1.0157 0.0368
6 7 10 -1.2806 0.0022
6 7 11 2.2597 -0.0879
6 7 12 -2.2580 0.0622
6 7 13 -3.3164 0.0941
6 7 14 2.6762 0.0684
6 7 15 4.3282 -0.0894
6 7 16 -4.2036 0.0487
6 7 17 -3.6789 -0.0523
6 7 18 -4.9420 -0.0139
6 7 19 -1.7835 -0.0218
6 7 20 2.6971 0.0185
6 7 21 3.6636 -0.0900
6 7 22 -0.4110 -0.0360
6 7 23 -1.5824 0.0257
6 7 24 0.2295 0.0761
6 7 25 2.1621 -0.0251
6 7 26 -1.5502 -0.0013
6 7 27 -1.5002 -0.0384
6 7 28 -0.8584 0.0287
6 7 29 -8.1601 0.0737
6 7 30 1.3422 0.0040
6 8 0 -5.4903 0.0993
6 8 1 -5.8245 -0.2848
6 8 2 -4.2557 -0.6979
6 8 3 7.0763 0.6573
6 8 4 6.6479 -0.1118
6 8 5 -1.8078 -0.0527
6 8 6 -5.0711 0.2101
6 8 7 6.3374 -0.0679
6 8 8 6.2263 0.0395
6 8 9 -3.0501 -0.1336
6 8 10 -2.6789 0.0388
6 8 11 -3.2426 -0.0421
6 8 12 0.5480 -0.1148
6 8 13 1.1831 0.0509
6 8 14 0.7664 0.0728
6 8 15 0.2370 0.0234
6 8 16 1.4732 -0.0265
6 8 17 -2.5481 0.1064
6 8 18 -2.0008 -0.0511
6 8 19 -6.9121 -0.0508
6 8 20 -4.0315 -0.0441
6 8 21 2.0589 0.0026
6 8 22 4.0835 -0.0291
6 8 23 -0.3362 0.0129
6 8 24 -0.6188 0.0247
6 8 25 0.3392 0.0714
6 8 26 -2.2292 -0.0458
6 8 27 -3.0410 -0.0436
6 8 28 -2.6935 -0.0253
6 8 29 2.9259 0.0484
6 8 30 -2.1063 0.1260
6 9 0 -3.5376 0.8774
6 9 1 -5.8918 -0.0964
6 9 2 0.2268 -0.0924
6 9 3 5.0151 -0.5672
6 9 4 1.3553 0.4895
6 9 5 -2.5248 -0.0936
6 9 6 -4.1055 -0.2105
6 9 7 -2.9024 0.2632
6 9 8 6.9647 -0.0279
6 9 9 2.5898 0.0302
6 9 10 -5.5946 -0.0029
6 9 11 -2.7826 0.0055
6 9 12 -0.4545 -0.0939
6 9 13 1.0968 -0.0641
6 9 14 -1.0175 0.0411
6 9 15 0.2244 0.0405
6 9 16 0.5231 0.0000
6 9 17 2.1423 0.0002
6 9 18 -1.8899 0.1190
6 9 19 -2.1413 -0.0335
6 9 20 -6.8430 -0.0562
6 9 21 -1.6710 -0.0023
6 9 22 2.0604 0.0235
6 9 23 1.4184 0.0009
6 9 24 1.7826 -0.0019
6 9 25 2.0328 -0.0281
6 9 26 1.5624 0.0700
6 9 27 -5.2193 -0.0033
6 9 28 -0.8021 -0.0607
6 9 29 2.0864 -0.0148
6 9 30 4.9284 0.0338
6 10 0 -5.3992 0.3463
6 10 1 -1.2711 0.9057
6 10 2 2.1606 -0.2240
6 10 3 0.0336 0.0175
6 10 4 -0.3459 -0.2257
6 10 5 -6.1234 0.2933
6 10 6 -4.5894 -0.0469
6 10 7 -0.6737 -0.2922
6 10 8 -4.2245 0.2310
6 10 9 1.5596 0.0419
6 10 10 0.6274 -0.0186
6 10 11 -1.7553 0.0424
6 10 12 -0.3330 0.0566
6 10 13 -2.6760 -0.0970
6 10 14 -1.0813 -0.0186
6 10 15 0.3653 0.0111
6 10 16 0.3991 -0.0256
6 10 17 -1.1562 -0.0101
6 10 18 2.6440 0.0463
6 10 19 0.8782 0.1031
6 10 20 2.9179 -0.0129
6 10 21 -3.8060 -0.0340
6 10 22 -2.6265 0.0230
6 10 23 1.0626 0.0079
6 10 24 1.8500 -0.0121
6 10 25 7.7852 -0.0118
6 10 26 4.7398 -0.0592
6 10 27 3.2503 0.0626
6 11 0 2.8744 -0.4944
6 11 1 -1.1882 0.1827
6 11 2 2.6755 0.7179
6 11 3 2.4921 -0.1712
6 11 4 -7.0200 0.0282
6 11 5 -4.8181 0.0716
6 11 6 -4.6658 0.1137
6 11 7 -5.6733 -0.0472
6 11 8 0.5771 -0.2243
6 11 9 -3.6848 0.1704
6 11 10 -0.0649 0.0461
6 11 11 1.7985 -0.0515
6 11 12 -1.6348 0.0409
6 11 13 -0.7902 0.1194
6 11 14 -3.0522 -0.1062
6 11 15 -2.0304 -0.0145
6 11 16 -0.0421 0.0276
6 11 17 -1.0187 -0.0362
6 11 18 1.1763 -0.0216
6 11 19 9.0015 0.0538
6 11 20 2.2229 0.0412
6 11 21 1.9421 0.0063
6 11 22 -1.6419 0.0427
6 11 23 -1.8222 0.0052
6 11 24 4.8533 -0.0516
6 11 25 4.1895 -0.0059
6 12 0 -5.9044 -0.6888
6 12 1 2.6154 -0.4245
6 12 2 7.0920 0.1384
6 12 3 3.0025 0.4104
6 12 4 -4.9272 -0.0994
6 12 5 -10.9826 -0.0317
6 12 6 -5.0116 0.1713
6 12 7 -1.4649 0.0159
6 12 8 -3.0645 -0.0462
6 12 9 5.6807 -0.0569
6 12 10 0.5748 0.1132
6 12 11 -4.2290 -0.0732
6 12 12 0.1012 -0.0571
6 12 13 -2.7044 0.0526
6 12 14 -3.1128 0.1515
6 12 15 -1.9134 -0.0562
6 12 16 -2.7321 0.0022
6 12 17 1.0774 0.0046
6 12 18 2.9825 -0.0495
6 12 19 2.3771 -0.0201
6 12 20 7.1323 0.0414
6 12 21 -1.1065 0.0024
6 12 22 2.3008 0.0284
6 12 23 4.8122 0.1197
6 12 24 -0.4191 -0.0204
6 13 0 -5.6816 0.3427
6 13 1 -10.3014 -0.5135
6 13 2 6.1744 -0.4819
6 13 3 11.4787 0.2013
6 13 4 -1.4755 0.1643
6 13 5 -13.0780 -0.1504
6 13 6 -9.1143 -0.0820
6 13 7 -0.4904 0.1190
6 13 8 4.1663 -0.0106
6 13 9 4.4913 -0.0000
6 13 10 7.9720 0.0583
6 13 11 0.8793 0.0336
6 13 12 -9.4965 -0.1792
6 13 13 -2.2336 0.0444
6 13 14 -2.8031 0.1261
6 13 15 -5.7947 0.0907
6 13 16 2.3286 -0.0463
6 13 17 0.0526 -0.0017
6 13 18 -0.6919 -0.0584
6 13 19 2.6728 -0.0163
6 13 20 -1.5446 0.0357
6 13 21 3.2870 -0.0359
6 13 22 1.6397 -0.0164
6 13 23 3.5201 0.1249
6 14 0 -0.2293 0.3082
6 14 1 -10.6441 0.2205
6 14 2 -9.7132 -0.2705
6 14 3 11.6863 -0.4189
6 14 4 9.2912 0.2043
6 14 5 -7.4852 -0.0167
6 14 6 -13.8504 -0.2867
6 14 7 -2.5192 -0.0484
6 14 8 7.5896 0.0572
6 14 9 7.9118 -0.0389
6 14 10 7.4815 0.0476
6 14 11 3.4923 0.0916
6 14 12 -0.8798 0.0190
6 14 13 -7.9811 -0.1142
6 14 14 -3.1092 0.1379
6 14 15 -1.7757 0.0786
6 14 16 -6.9892 -0.0638
6 14 17 3.9038 -0.0451
6 14 18 0.7708 0.0394
6 14 19 -5.6089 -0.0938
6 14 20 2.0627 0.0267
6 14 21 -1.9936 0.1060
6 14 22 0.4559 -0.1132
6 15 0 3.5831 -0.1519
6 15 1 -5.9466 0.4019
6 15 2 -5.3114 0.0796
6 15 3 -1.7266 -0.0697
6 15 4 10.2110 -0.2250
6 15 5 0.9951 0.0398
6 15 6 -8.8807 -0.1056
6 15 7 -3.6394 -0.3078
6 15 8 4.2975 0.0167
6 15 9 9.4110 0.0386
6 15 10 3.4873 -0.0577
6 15 11 4.1897 0.0679
6 15 12 2.0148 0.0883
6 15 13 2.2069 0.0599
6 15 14 -1.9271 0.0154
6 15 15 -6.3438 0.1035
6 15 16 -4.4229 -0.0784
6 15 17 -6.1265 -0.1261
6 15 18 3.6124 0.0347
6 15 19 1.9067 0.1276
6 15 20 -7.6276 -0.0694
6 16 0 0.8082 -0.2646
6 16 1 4.2974 -0.2263
6 16 2 0.2889 0.3873
6 16 3 5.5922 0.1106
6 16 4 -2.5889 0.0722
6 16 5 -2.4582 -0.0563
6 16 6 1.3071 -0.1995
6 16 7 0.6673 -0.0897
6 16 8 4.1508 -0.1275
6 16 9 -0.9744 0.0588
6 16 10 1.9565 0.0246
6 16 11 1.9424 -0.0939
6 16 12 5.9815 0.0004
6 16 13 5.0197 0.1113
6 16 14 1.5418 0.1751
6 16 15 -1.6745 0.0964
6 16 16 -8.8127 0.0031
6 16 17 -4.2155 -0.1470
6 16 18 -0.7647 0.0181
6 16 19 1.5005 0.1537
6 17 0 4.9048 -0.2906
6 17 1 4.7513 -0.2875
6 17 2 8.4545 -0.1384
6 17 3 5.1148 0.3362
6 17 4 4.2926 0.2466
6 17 5 -6.5425 0.0801
6 17 6 -5.4397 -0.0157
6 17 7 8.2986 -0.2093
6 17 8 0.7903 0.0274
6 17 9 -3.3268 -0.0129
6 17 10 -4.2753 -0.0854
6 17 11 3.7422 -0.0358
6 17 12 6.3454 -0.0147
6 17 13 3.5219 0.0353
6 17 14 0.7132 0.1924
6 17 15 -0.4680 0.2527
6 17 16 0.5356 0.0821
6 17 17 -5.4050 0.0013
6 18 0 2.9705 0.5261
6 18 1 10.5092 -0.4031
6 18 2 2.6061 -0.3336
6 18 3 4.8524 0.0190
6 18 4 7.5092 0.2683
6 18 5 2.4343 0.3740
6 18 6 -5.1158 0.1428
6 18 7 -6.5075 -0.0306
6 18 8 2.8342 -0.1686
6 18 9 -3.9649 -0.1100
6 18 10 -2.7840 -0.1164
6 18 11 3.3395 -0.0511
7 -15 0 4.7310 -0.3398
7 -15 1 11.2048 0.0593
7 -15 2 0.9758 -0.0907
7 -15 3 -4.9522 0.0225
7 -15 4 -1.2242 -0.0693
7 -14 0 2.4596 0.2656
7 -14 1 8.1242 -0.7199
7 -14 2 0.1517 -0.0296
7 -14 3 -1.5646 -0.1084
7 -14 4 -3.2515 0.2364
7 -14 5 0.2801 0.1571
7 -14 6 4.0861 0.1904
7 -14 7 6.9570 0.2575
7 -13 0 3.3947 0.2909
7 -13 1 2.9950 0.2192
7 -13 2 3.4447 -0.8198
7 -13 3 -1.5534 0.2060
7 -13 4 2.2350 0.0498
7 -13 5 0.8697 -0.0222
7 -13 6 0.2958 -0.0197
7 -13 7 6.4434 0.0538
7 -13 8 0.9378 0.2673
7 -13 9 -5.9434 -0.0374
7 -13 10 3.2209 -0.0803
7 -13 11 9.3115 0.0709
7 -12 0 8.2301 0.5151
7 -12 1 11.6848 0.0313
7 -12 2 3.6391 0.3973
7 -12 3 -0.1985 -0.5607
7 -12 4 -0.7709 0.0932
7 -12 5 -2.0245 -0.0557
7 -12 6 0.8566 -0.2539
7 -12 7 0.5625 0.0857
7 -12 8 3.8720 0.1181
7 -12 9 -4.7012 0.1178
7 -12 10 -5.4808 -0.1070
7 -12 11 9.5550 -0.0110
7 -12 12 11.2060 0.0912
7 -12 13 2.8518 -0.0018
7 -12 14 -3.8402 -0.0641
7 -11 0 10.0219 -0.0036
7 -11 1 12.1371 0.6253
7 -11 2 5.4398 -0.0521
7 -11 3 -7.2259 0.3117
7 -11 4 -5.2789 -0.3642
7 -11 5 4.8196 -0.0525
7 -11 6 -3.2967 0.0902
7 -11 7 1.6269 -0.1829
7 -11 8 -0.2977 0.0347
7 -11 9 -1.6194 -0.0292
7 -11 10 -4.1669 -0.0347
7 -11 11 -0.9848 -0.0441
7 -11 12 9.6623 0.1262
7 -11 13 5.7082 0.0801
7 -11 14 -0.1911 -0.0820
7 -11 15 -1.9208 -0.1501
7 -11 16 -4.3493 0.0369
7 -11 17 -4.6235 0.0610
7 -10 0 2.0799 -0.3151
7 -10 1 2.8763 -0.0956
7 -10 2 -1.6601 0.4332
7 -10 3 -6.6145 -0.0719
7 -10 4 -2.8087 0.1506
7 -10 5 1.6754 -0.0819
7 -10 6 8.4586 -0.0171
7 -10 7 -6.2009 0.1606
7 -10 8 -0.7937 -0.1626
7 -10 9 -1.6508 -0.0995
7 -10 10 -4.4620 -0.0636
7 -10 11 0.7960 0.0104
7 -10 12 2.4959 -0.0179
7 -10 13 5.3555 0.1007
7 -10 14 -0.7232 -0.0051
7 -10 15 -0.8089 -0.1286
7 -10 16 0.5418 -0.0967
7 -10 17 -1.9558 0.2221
7 -10 18 -3.5174 0.1339
7 -10 19 1.4321 -0.0730
7 -9 0 -2.8799 -0.3434
7 -9 1 -4.0936 -0.3032
7 -9 2 0.5208 -0.0754
7 -9 3 -0.3232 0.1750
7 -9 4 -5.1030 0.0069
7 -9 5 1.6515 0.0379
7 -9 6 0.5958 0.0350
7 -9 7 7.3928 0.0479
7 -9 8 -4.2659 0.1167
7 -9 9 -4.5204 -0.1518
7 -9 10 -2.7455 -0.0714
7 -9 11 -2.2956 0.0353
7 -9 12 7.0528 0.0218
7 -9 13 2.1744 -0.1687
7 -9 14 -1.7042 -0.0088
7 -9 15 -4.9550 0.0652
7 -9 16 0.4727 0.0782
7 -9 17 2.9784 0.0466
7 -9 18 0.0771 0.1816
7 -9 19 -2.1240 -0.1296
7 -9 20 1.1217 -0.1687
7 -9 21 -1.4183 -0.2397
7 -8 0 -8.8447 -0.2049
7 -8 1 1.0994 -0.1187
7 -8 2 5.5517 -0.2818
7 -8 3 2.4242 0.0290
7 -8 4 -3.2549 0.0124
7 -8 5 -6.1543 -0.0039
7 -8 6 4.9603 -0.0267
7 -8 7 0.9479 0.0114
7 -8 8 2.6938 0.0768
7 -8 9 -4.4886 0.0642
7 -8 10 -5.6229 -0.0990
7 -8 11 2.8491 0.0607
7 -8 12 1.3266 0.0552
7 -8 13 4.7195 -0.0922
7 -8 14 -1.9724 -0.1815
7 -8 15 -3.6853 0.1032
7 -8 16 -3.5535 0.1509
7 -8 17 0.9345 0.0723
7 -8 18 2.5892 -0.0840
7 -8 19 1.8701 0.0581
7 -8 20 0.0054 -0.1121
7 -8 21 0.5502 -0.0124
7 -8 22 -1.7333 -0.0598
7 -8 23 -4.5907 -0.1161
7 -7 0 -0.1768 -0.4037
7 -7 1 -3.4544 -0.2501
7 -7 2 2.1758 0.2775
7 -7 3 2.5334 -0.2604
7 -7 4 1.9790 -0.0204
7 -7 5 2.5414 -0.0073
7 -7 6 -3.8358 -0.0470
7 -7 7 -0.3561 -0.0383
7 -7 8 -4.2009 -0.0232
7 -7 9 -0.5542 0.0460
7 -7 10 3.0226 0.0305
7 -7 11 -0.2095 -0.0625
7 -7 12 3.0385 0.1123
7 -7 13 -3.1528 0.0611
7 -7 14 0.7115 -0.0740
7 -7 15 0.3214 -0.0629
7 -7 16 -2.1427 0.0539
7 -7 17 -4.5721 -0.0310
7 -7 18 -0.0555 0.0420
7 -7 19 3.9280 -0.0138
7 -7 20 5.0022 0.0662
7 -7 21 0.3700 -0.0390
7 -7 22 -1.5868 -0.0217
7 -7 23 -0.3476 0.0766
7 -7 24 -1.6616 -0.0367
7 -6 0 5.7654 -0.1347
7 -6 1 -5.8423 -0.3087
7 -6 2 -6.9569 -0.1693
7 -6 3 6.0691 0.3397
7 -6 4 8.3892 -0.3016
7 -6 5 1.2607 -0.0747
7 -6 6 -1.3813 0.1768
7 -6 7 -6.3611 -0.0413
7 -6 8 -1.3568 -0.0975
7 -6 9 1.0702 -0.0316
7 -6 10 -0.4171 -0.0095
7 -6 11 5.1590 -0.0153
7 -6 12 2.0856 -0.0186
7 -6 13 0.3304 0.0852
7 -6 14 -5.6525 0.0403
7 -6 15 -0.2281 -0.0483
7 -6 16 1.4632 -0.0023
7 -6 17 -2.7050 -0.0156
7 -6 18 -3.7317 -0.0815
7 -6 19 3.3181 0.0681
7 -6 20 4.6524 -0.0127
7 -6 21 2.2274 -0.0334
7 -6 22 -1.8272 0.0967
7 -6 23 -1.2549 0.0579
7 -6 24 2.3760 0.1722
7 -6 25 -0.8001 -0.0416
7 -6 26 0.6040 0.1569
7 -5 0 3.0517 0.6509
7 -5 1 3.3887 -0.3019
7 -5 2 -1.2742 -0.3488
7 -5 3 -1.9187 -0.1198
7 -5 4 3.8530 0.2359
7 -5 5 3.4550 -0.1775
7 -5 6 -1.8100 -0.0483
7 -5 7 4.0223 0.2433
7 -5 8 1.9510 -0.0489
7 -5 9 -4.5268 -0.1112
7 -5 10 -1.0339 0.0345
7 -5 11 0.5331 -0.0373
7 -5 12 9.2087 -0.1151
7 -5 13 4.1893 -0.0113
7 -5 14 -4.9423 0.0137
7 -5 15 -7.9705 0.0250
7 -5 16 1.7012 0.0295
7 -5 17 3.2309 0.0748
7 -5 18 -2.3522 -0.0693
7 -5 19 -2.2004 -0.1110
7 -5 20 4.0339 0.0400
7 -5 21 1.4588 0.0266
7 -5 22 -0.7218 -0.0272
7 -5 23 1.4013 0.1665
7 -5 24 0.8369 0.0165
7 -5 25 0.3763 0.0387
7 -5 26 -2.5335 -0.0442
7 -5 27 1.9885 0.0088
7 -4 0 1.8484 0.9299
7 -4 1 16.0619 0.4188
7 -4 2 7.3252 -0.3571
7 -4 3 -9.5163 -0.2860
7 -4 4 -5.0060 0.0833
7 -4 5 7.9197 0.0825
7 -4 6 10.0558 -0.1900
7 -4 7 -0.0847 -0.0278
7 -4 8 -0.6204 0.2529
7 -4 9 1.5975 0.0076
7 -4 10 -4.8676 -0.0697
7 -4 11 3.2530 0.0363
7 -4 12 5.4202 -0.0316
7 -4 13 4.6297 -0.1393
7 -4 14 -0.3693 0.0143
7 -4 15 -3.4888 -0.0283
7 -4 16 -2.6231 0.0084
7 -4 17 3.3944 0.0507
7 -4 18 -0.0029 0.1070
7 -4 19 -3.9876 -0.0754
7 -4 20 0.6435 -0.0530
7 -4 21 5.5184 0.0848
7 -4 22 0.6773 0.0227
7 -4 23 -0.4957 -0.1169
7 -4 24 3.2913 0.0542
7 -4 25 -1.5575 0.0519
7 -4 26 -2.1768 -0.0197
7 -4 27 0.3348 0.0283
7 -3 0 -5.6621 0.2548
7 -3 1 4.8118 0.9479
7 -3 2 19.2994 0.1595
7 -3 3 6.7198 -0.1635
7 -3 4 -6.3771 -0.1653
7 -3 5 6.5106 0.0816
7 -3 6 6.2602 -0.0517
7 -3 7 -3.8678 -0.1549
7 -3 8 -3.8566 0.0637
7 -3 9 3.1676 0.1634
7 -3 10 8.7782 -0.0584
7 -3 11 -5.0501 0.0311
7 -3 12 -2.0010 0.1155
7 -3 13 5.4182 0.0168
7 -3 14 4.0343 -0.1333
7 -3 15 0.9784 -0.0017
7 -3 16 0.1313 -0.0445
7 -3 17 -2.1420 0.0130
7 -3 18 0.1276 0.0258
7 -3 19 0.4325 0.1070
7 -3 20 0.2897 -0.0183
7 -3 21 3.8110 -0.0200
7 -3 22 3.0467 0.0687
7 -3 23 -1.6443 -0.0745
7 -3 24 0.1926 -0.1207
7 -3 25 4.3770 0.0623
7 -3 26 -1.3485 0.1807
7 -3 27 -0.1511 -0.0898
7 -2 0 -18.9520 -0.9361
7 -2 1 -3.2358 0.0824
7 -2 2 22.6471 0.9635
7 -2 3 29.8450 -0.1127
7 -2 4 6.1902 -0.1044
7 -2 5 -13.7177 0.0515
7 -2 6 -1.4421 0.0687
7 -2 7 -0.5078 -0.0520
7 -2 8 -5.7603 -0.1338
7 -2 9 4.6122 0.0075
7 -2 10 2.9193 0.0682
7 -2 11 0.6414 -0.0563
7 -2 12 -4.7358 0.1393
7 -2 13 0.8654 0.1281
7 -2 14 7.6617 -0.0313
7 -2 15 1.2941 -0.0557
7 -2 16 -3.6046 0.0686
7 -2 17 1.4852 -0.0731
7 -2 18 2.8903 -0.0382
7 -2 19 1.4605 -0.0127
7 -2 20 1.2621 0.0467
7 -2 21 -0.9815 0.0056
7 -2 22 -0.7525 -0.0547
7 -2 23 1.0061 0.0705
7 -2 24 2.3950 -0.0164
7 -2 25 3.7481 0.0345
7 -2 26 3.2395 0.0043
7 -2 27 -2.3322 0.0705
7 -1 0 -7.8243 -0.4269
7 -1 1 -6.5876 -0.4421
7 -1 2 19.9482 -0.1706
7 -1 3 26.3690 0.7085
7 -1 4 5.0740 -0.1727
7 -1 5 -7.2280 -0.0470
7 -1 6 -6.5564 0.3174
7 -1 7 1.7165 -0.0297
7 -1 8 -4.6823 -0.1176
7 -1 9 -12.7733 -0.0449
7 -1 10 4.6910 -0.0233
7 -1 11 5.8101 -0.0074
7 -1 12 0.6599 -0.0732
7 -1 13 -0.2314 0.1079
7 -1 14 -3.0090 0.1367
7 -1 15 0.6534 -0.0186
7 -1 16 0.6997 0.0235
7 -1 17 0.1206 0.0859
7 -1 18 4.6142 -0.1449
7 -1 19 3.4356 -0.0774
7 -1 20 -4.1173 -0.0013
7 -1 21 -3.9932 -0.0743
7 -1 22 -0.3817 0.0169
7 -1 23 0.7619 0.0243
7 -1 24 4.3618 0.1152
7 -1 25 4.0439 0.0115
7 -1 26 -0.3060 0.0299
7 -1 27 -0.4445 -0.1641
7 -1 28 0.8500 0.0246
7 0 0 1.2132 0.3092
7 0 1 8.7157 -0.5451
7 0 2 -3.0081 -0.1005
7 0 3 6.6097 -0.2541
7 0 4 12.8884 0.3852
7 0 5 -1.7568 0.0159
7 0 6 0.1101 -0.0933
7 0 7 -1.9032 0.3468
7 0 8 -12.6979 -0.0862
7 0 9 -9.7585 -0.1275
7 0 10 -1.9031 0.0785
7 0 11 11.2082 -0.0516
7 0 12 5.4146 -0.1067
7 0 13 -6.4046 -0.0096
7 0 14 -2.3292 0.0621
7 0 15 -3.0309 0.0734
7 0 16 1.2099 -0.0219
7 0 17 3.8764 0.0488
7 0 18 0.3255 0.0966
7 0 19 -2.2427 -0.1391
7 0 20 -2.1399 -0.0886
7 0 21 -3.4144 0.0414
7 0 22 -1.2140 -0.0969
7 0 23 3.8775 0.0280
7 0 24 -0.8938 0.0423
7 0 25 0.4759 0.0210
7 0 26 3.2602 -0.0169
7 0 27 -0.7817 0.0706
7 0 28 0.7334 -0.1646
7 0 29 3.2332 0.1026
7 1 0 2.1500 -0.1340
7 1 1 -6.6429 0.3963
7 1 2 0.8995 -0.4908
7 1 3 0.4978 0.0861
7 1 4 2.4937 -0.0818
7 1 5 7.5221 0.0475
7 1 6 -7.2054 0.1377
7 1 7 -4.3719 -0.1838
7 1 8 1.7315 0.2376
7 1 9 -9.6401 -0.0206
7 1 10 -3.5540 -0.0768
7 1 11 4.3628 0.1303
7 1 12 3.9886 -0.0091
7 1 13 2.7664 -0.1662
7 1 14 -6.2851 0.0327
7 1 15 -1.3089 -0.0009
7 1 16 -0.7276 -0.0212
7 1 17 1.2958 0.0417
7 1 18 2.4111 0.0710
7 1 19 -3.1501 0.0548
7 1 20 -4.4165 -0.0713
7 1 21 -0.4601 -0.0267
7 1 22 2.9799 0.0665
7 1 23 -3.0239 -0.0944
7 1 24 -0.5950 -0.0527
7 1 25 -1.1239 0.0211
7 1 26 2.6315 0.0406
7 1 27 6.0156 -0.0366
7 1 28 -3.2679 0.0439
7 1 29 -3.2801 -0.0863
7 1 30 1.7301 0.2578
7 2 0 -6.9547 0.0592
7 2 1 1.9134 -0.4358
7 2 2 -3.5980 0.4087
7 2 3 -2.8200 -0.1702
7 2 4 -0.9773 0.0369
7 2 5 -10.6607 0.0152
7 2 6 3.0479 -0.2181
7 2 7 6.3446 0.1765
7 2 8 -0.0771 -0.1367
7 2 9 -0.8992 0.1478
7 2 10 -10.0070 0.0363
7 2 11 -1.0153 -0.0207
7 2 12 10.5841 0.0674
7 2 13 0.1312 0.0280
7 2 14 -1.9552 -0.1543
7 2 15 -6.3765 0.0667
7 2 16 1.4895 0.0219
7 2 17 3.8935 -0.0916
7 2 18 0.2979 0.0460
7 2 19 0.6030 0.0463
7 2 20 -1.0843 0.0127
7 2 21 0.0313 0.0175
7 2 22 -2.5667 0.0357
7 2 23 0.9093 0.0267
7 2 24 -4.1317 -0.0548
7 2 25 1.3783 -0.0690
7 2 26 4.9832 -0.0276
7 2 27 0.7196 0.0496
7 2 28 -0.0427 -0.1329
7 2 29 -6.6652 0.0379
7 2 30 -3.5380 0.1603
7 3 0 -5.9698 -0.7117
7 3 1 0.8709 0.1127
7 3 2 -1.6640 -0.3311
7 3 3 -14.4764 0.2722
7 3 4 -18.5959 -0.0404
7 3 5 6.6108 -0.1713
7 3 6 4.8583 0.0876
7 3 7 6.2321 -0.1875
7 3 8 4.3677 0.2051
7 3 9 -11.5018 -0.0908
7 3 10 -2.5272 0.0278
7 3 11 5.9252 -0.0370
7 3 12 2.0042 0.0317
7 3 13 2.6326 0.0309
7 3 14 -7.4938 0.0783
7 3 15 -0.9969 -0.0636
7 3 16 2.3001 0.0292
7 3 17 3.5566 0.0005
7 3 18 3.3009 -0.1383
7 3 19 -1.1930 0.0317
7 3 20 3.6516 0.0463
7 3 21 1.0252 -0.0009
7 3 22 -1.8924 0.0339
7 3 23 -6.1335 0.0667
7 3 24 3.0129 0.0035
7 3 25 1.4862 -0.0551
7 3 26 -0.0521 -0.0664
7 3 27 2.4966 -0.0655
7 3 28 -3.8183 0.0808
7 3 29 -2.2089 -0.1733
7 4 0 -4.3041 0.7919
7 4 1 -8.3417 -0.6263
7 4 2 -10.7322 0.0243
7 4 3 -15.4203 -0.1901
7 4 4 -4.9317 0.0464
7 4 5 -4.6861 -0.0241
7 4 6 12.3927 -0.1490
7 4 7 1.1838 0.1689
7 4 8 -7.7409 -0.1504
7 4 9 5.3851 0.1141
7 4 10 -2.8117 -0.1272
7 4 11 -0.9909 -0.0068
7 4 12 5.9987 -0.0564
7 4 13 -5.0063 0.1103
7 4 14 -0.8214 0.0158
7 4 15 -1.6410 0.0082
7 4 16 1.0323 -0.0404
7 4 17 2.9102 -0.0175
7 4 18 2.3169 0.0261
7 4 19 4.3653 -0.0743
7 4 20 -1.7968 0.0273
7 4 21 1.4272 0.0076
7 4 22 -0.1090 -0.0338
7 4 23 -0.4291 0.0006
7 4 24 -2.6674 0.0687
7 4 25 2.6967 0.0195
7 4 26 -0.3574 -0.0611
7 4 27 -3.9826 0.0001
7 4 28 2.5466 -0.0333
7 4 29 -1.6135 -0.0011
7 4 30 -0.9844 -0.2520
7 5 0 -3.2039 0.6408
7 5 1 -11.9346 0.6148
7 5 2 -9.4149 -0.5772
7 5 3 2.5474 -0.0247
7 5 4 -8.8126 -0.0025
7 5 5 -3.2647 0.0092
7 5 6 -9.6894 -0.0643
7 5 7 2.8671 -0.0940
7 5 8 7.8062 0.1373
7 5 9 -3.2811 -0.1938
7 5 10 1.9736 0.0878
7 5 11 -4.6992 -0.0812
7 5 12 -4.5696 0.0547
7 5 13 8.3530 -0.0634
7 5 14 -2.9634 0.0479
7 5 15 -5.0353 -0.0470
7 5 16 0.0677 -0.0416
7 5 17 2.0482 0.0464
7 5 18 5.0781 0.0246
7 5 19 0.7623 0.0327
7 5 20 -0.5772 -0.0572
7 5 21 -4.1423 0.0065
7 5 22 1.0696 -0.0153
7 5 23 3.6117 -0.0328
7 5 24 2.4346 -0.0003
7 5 25 -2.7776 0.0627
7 5 26 -1.6156 0.0373
7 5 27 -1.4183 -0.0353
7 5 28 -1.1852 0.0375
7 5 29 5.8953 -0.0140
7 5 30 0.9635 -0.1504
7 6 0 -6.5817 -0.0343
7 6 1 -3.9123 0.6023
7 6 2 5.9825 0.3588
7 6 3 5.5783 -0.4625
7 6 4 -0.8612 0.1544
7 6 6 -5.7924 -0.0304
7 6 7 6.3743 -0.1176
7 6 8 5.3343 -0.0436
7 6 9 4.7944 0.1414
7 6 10 -8.9172 -0.2064
7 6 11 -3.6300 0.1082
7 6 12 2.2984 -0.0230
7 6 13 -1.7796 0.0545
7 6 14 2.0817 -0.0941
7 6 15 -4.7454 -0.0097
7 6 16 -2.7741 -0.0095
7 6 17 6.7558 -0.0025
7 6 18 1.4494 0.0669
7 6 19 -0.7090 -0.0183
7 6 20 -1.9063 0.0004
7 6 21 -0.8320 -0.0150
7 6 22 -1.5043 0.0456
7 6 23 1.3666 -0.0072
7 6 24 4.8488 -0.0373
7 6 25 4.6790 -0.0041
7 6 26 -3.7702 0.0596
7 6 27 -3.5394 0.0250
7 6 28 1.1781 0.0260
7 6 29 3.4535 0.0039
7 6 30 6.0063 -0.0508
7 7 0 -2.4095 -0.1346
7 7 1 3.9474 -0.0410
7 7 2 6.8022 0.4752
7 7 3 10.5866 0.2861
7 7 4 -3.3520 -0.3669
7 7 5 -10.3207 0.3129
7 7 6 -16.5357 0.0011
7 7 7 7.8139 -0.0764
7 7 8 12.0038 -0.0540
7 7 9 -5.9880 0.0061
7 7 10 -0.7477 0.1284
7 7 11 -1.6171 -0.2027
7 7 12 -4.7418 0.0989
7 7 13 -0.2344 0.0276
7 7 14 -1.2916 0.0484
7 7 15 0.7735 -0.0778
7 7 16 0.6446 -0.0126
7 7 17 0.1963 0.0052
7 7 18 5.4189 -0.0216
7 7 19 -0.9488 0.0347
7 7 20 -2.6553 -0.0509
7 7 21 0.5765 0.0068
7 7 22 -0.1301 0.0232
7 7 23 -0.8426 0.0359
7 7 24 3.3169 -0.0134
7 7 25 5.5503 0.0061
7 7 26 4.8418 -0.0053
7 7 27 -5.1254 0.0510
7 7 28 -3.5360 -0.0488
7 7 29 3.0739 0.0369
7 8 0 0.3213 -0.8417
7 8 1 3.4365 -0.0272
7 8 2 4.0606 0.0741
7 8 3 5.2003 0.2521
7 8 4 11.5862 0.3356
7 8 5 -1.8837 -0.3295
7 8 6 -7.4244 0.2954
7 8 7 -4.5211 -0.0364
7 8 8 8.5148 -0.0852
7 8 9 8.4219 0.0349
7 8 10 -7.3170 0.0307
7 8 11 -2.3912 0.0673
7 8 12 -0.5540 -0.1464
7 8 13 -6.9196 0.1014
7 8 14 2.0057 0.0289
7 8 15 4.5433 0.0173
7 8 16 -2.0747 -0.0466
7 8 17 -0.0271 0.0151
7 8 18 4.5282 0.0040
7 8 19 6.7005 -0.0683
7 8 20 -3.7229 -0.0014
7 8 21 -6.3738 -0.0725
7 8 22 2.1954 0.0043
7 8 23 4.0365 0.0499
7 8 24 0.0808 0.0166
7 8 25 3.7987 -0.0171
7 8 26 2.5271 0.0787
7 8 27 1.3120 -0.0646
7 8 28 -6.1173 -0.0023
7 8 29 -4.9677 -0.0739
7 9 0 -5.3529 0.7543
7 9 1 4.2894 -0.7053
7 9 2 0.4195 -0.0486
7 9 3 3.9205 0.2274
7 9 4 13.5240 -0.0278
7 9 5 13.5182 0.3069
7 9 6 -3.5971 -0.2754
7 9 7 -6.6335 0.1931
7 9 8 4.3862 0.0083
7 9 9 7.3701 -0.0387
7 9 10 0.5329 0.0401
7 9 11 -7.3510 0.0367
7 9 12 -2.1417 0.0095
7 9 13 1.5553 -0.0848
7 9 14 -3.7366 0.0938
7 9 15 1.9267 -0.0192
7 9 16 4.4023 0.0277
7 9 17 -2.6294 0.0364
7 9 18 2.4856 0.0154
7 9 19 6.5030 -0.0457
7 9 20 1.1941 -0.1054
7 9 21 -8.9758 0.0093
7 9 22 -4.4489 -0.0333
7 9 23 5.2778 -0.0100
7 9 24 5.0179 0.0304
7 9 25 -2.3511 -0.0028
7 9 26 1.7443 -0.0301
7 9 27 -1.3289 0.1420
7 9 28 -4.8130 -0.0994
7 9 29 -5.7426 -0.0219
7 9 30 -2.7552 0.0014
7 10 0 0.3561 -0.4736
7 10 1 -4.8234 0.5561
7 10 2 1.9331 -0.4104
7 10 3 2.1336 -0.2193
7 10 4 10.0209 0.2502
7 10 5 17.6262 -0.1895
7 10 6 4.3309 0.2122
7 10 7 -5.3320 -0.1416
7 10 8 -1.5045 0.1310
7 10 9 5.9019 0.0289
7 10 10 1.1296 0.0218
7 10 11 -5.7997 -0.0274
7 10 12 -2.2725 0.0096
7 10 13 0.9219 0.0177
7 10 14 0.2036 -0.0237
7 10 15 -1.8464 0.0967
7 10 16 3.6810 -0.0731
7 10 17 3.6556 0.0234
7 10 18 -5.0194 0.0836
7 10 19 0.4967 0.0018
7 10 20 4.2960 -0.0390
7 10 21 -1.1289 -0.0628
7 10 22 -10.3293 0.0158
7 10 23 -3.0356 -0.0091
7 10 24 3.5398 -0.0425
7 10 25 3.6260 -0.0249
7 10 26 -2.2353 0.0029
7 10 28 -4.6346 0.1856
7 11 0 -4.5932 -0.0773
7 11 1 2.5286 -0.4110
7 11 2 -6.5036 0.3150
7 11 3 -0.8640 -0.1252
7 11 4 9.4829 -0.3521
7 11 5 11.2243 0.1617
7 11 6 11.2142 -0.1698
7 11 7 -4.3443 0.1069
7 11 8 -3.9890 -0.0261
7 11 9 3.4931 0.1395
7 11 10 1.1931 -0.0293
7 11 11 -3.8280 0.0446
7 11 12 -5.8283 -0.0356
7 11 13 1.2274 -0.0012
7 11 14 3.6156 0.0802
7 11 15 0.4697 -0.0305
7 11 16 -0.9682 0.0303
7 11 17 2.0361 -0.1058
7 11 18 -1.0823 0.0413
7 11 19 -6.5924 0.1178
7 11 20 2.6405 -0.0057
7 11 21 2.4184 -0.0201
7 11 22 -4.1413 -0.0013
7 11 23 -10.8014 0.0208
7 11 24 -1.4749 -0.0188
7 11 25 3.9036 -0.1171
7 12 0 5.3968 -0.2148
7 12 1 -5.8775 -0.2030
7 12 2 -0.2836 -0.1794
7 12 3 -6.5237 0.1710
7 12 4 0.3881 -0.0139
7 12 5 15.9570 -0.3319
7 12 6 4.7704 0.0431
7 12 7 1.0554 -0.0948
7 12 8 -3.7898 0.0601
7 12 9 -0.7644 0.0117
7 12 10 5.1975 0.1668
7 12 11 -3.3824 -0.0872
7 12 12 -6.4292 0.0306
7 12 13 -1.5673 0.0577
7 12 14 4.1985 -0.0368
7 12 15 3.6053 0.0580
7 12 16 -1.1780 -0.0645
7 12 17 -3.5523 0.0090
7 12 18 1.0231 -0.0747
7 12 19 -0.1550 0.0215
7 12 20 -5.3912 0.0844
7 12 21 3.4218 0.0032
7 12 22 -0.5449 0.0324
7 12 23 -3.8188 0.0276
7 13 0 0.0122 0.4070
7 13 1 4.0211 -0.1193
7 13 2 -6.3211 -0.2471
7 13 3 -3.9333 0.0057
7 13 4 -2.3877 0.1490
7 13 5 2.7180 -0.0266
7 13 6 14.0499 -0.2110
7 13 7 -0.7438 -0.0394
7 13 8 -1.8549 -0.0621
7 13 9 4.0001 0.1066
7 13 10 -0.1953 -0.0007
7 13 11 1.4206 0.1182
7 13 12 -2.1808 -0.0770
7 13 13 -5.6706 -0.0012
7 13 14 1.4240 0.1595
7 13 15 4.2795 -0.0808
7 13 16 -0.6788 -0.0241
7 13 17 -1.6879 -0.0359
7 13 18 -2.1093 0.0543
7 13 19 1.9865 -0.0620
7 13 20 2.3726 -0.0505
7 13 21 -3.6463 0.0480
7 13 22 4.5834 -0.0037
7 14 0 8.1979 0.6252
7 14 1 -0.3170 0.1982
7 14 2 1.5651 -0.0906
7 14 3 -8.2915 -0.0570
7 14 4 -8.3127 0.0625
7 14 5 0.8480 0.1083
7 14 6 5.6512 -0.0963
7 14 7 10.9876 -0.0847
7 14 8 1.2424 0.0262
7 14 9 -0.1255 -0.0525
7 14 10 7.1072 0.0889
7 14 11 -0.4162 -0.0563
7 14 12 -1.7044 0.0537
7 14 13 2.0014 0.0733
7 14 14 -5.2630 -0.0208
7 14 15 -0.4936 0.1057
7 14 16 4.9701 -0.1295
7 14 17 -3.5678 -0.0569
7 14 18 -1.1652 0.0638
7 14 19 2.1897 0.0838
7 14 20 3.5701 -0.1403
7 14 21 6.2838 -0.1589
7 15 0 4.5591 -0.0898
7 15 1 10.0866 0.5739
7 15 2 -5.0289 0.1413
7 15 3 -8.5261 -0.0830
7 15 4 -10.9488 0.0788
7 15 5 -4.6687 -0.0849
7 15 6 5.8202 0.0252
7 15 7 6.9565 -0.0100
7 15 8 5.6063 0.0367
7 15 9 4.2714 0.0848
7 15 10 5.3541 -0.1152
7 15 11 7.4685 0.0118
7 15 12 0.3611 0.0281
7 15 13 -5.6884 0.0644
7 15 14 1.8866 0.1296
7 15 15 -2.7746 -0.1298
7 15 16 -1.6849 -0.0582
7 15 17 5.7458 -0.0996
7 15 18 -4.2050 -0.0387
7 15 19 0.1960 0.0508
7 15 20 8.5169 0.0210
7 16 0 2.5259 -0.1971
7 16 1 1.1117 0.0843
7 16 2 1.6978 0.3601
7 16 3 -13.0039 0.1026
7 16 4 -7.9953 -0.2035
7 16 5 -2.7363 0.0569
7 16 6 -1.8539 -0.1363
7 16 7 0.0069 -0.0637
7 16 8 3.6962 0.0746
7 16 9 7.5860 0.1413
7 16 10 10.9743 0.1702
7 16 11 10.3324 -0.1034
7 16 12 1.5692 -0.1080
7 16 13 -2.6845 0.0486
7 16 14 -6.3545 0.0336
7 16 15 1.3389 0.0646
7 16 16 1.8994 -0.1987
7 16 17 -1.5194 -0.2219
7 16 18 4.9555 -0.1223
7 17 0 -1.6816 -0.2027
7 17 1 -2.7785 0.0278
7 17 2 -4.7010 0.1579
7 17 3 0.3276 0.0644
7 17 4 -7.2617 0.0286
7 17 5 -1.1085 -0.2925
7 17 6 -3.4318 -0.0977
7 17 7 -9.6994 -0.1384
7 17 8 -2.2192 -0.0636
7 17 9 9.4976 0.3143
7 17 10 12.9180 0.3824
7 17 11 8.8770 0.0525
7 17 12 7.3531 -0.3404
7 17 13 -3.0812 -0.2599
7 17 14 -3.6765 0.1318
7 17 15 -2.8947 0.1070
7 17 16 0.9839 -0.0609
7 17 17 4.8462 -0.2883
7 18 5 -2.2235 -0.1752
7 18 6 -2.5272 -0.3098
7 18 7 -8.2795 -0.0947
7 18 8 -10.4954 0.1010
7 18 9 4.6119 0.1710
7 18 10 11.6856 0.3699
7 18 11 8.3835 0.2120
7 18 12 2.3274 -0.3220
8 -14 0 3.9147 0.1491
8 -14 1 -8.6100 -0.5682
8 -14 2 -8.1358 -0.2552
8 -14 3 2.9808 0.3416
8 -14 4 1.5498 0.0803
8 -14 5 -3.5169 -0.0875
8 -13 0 17.9803 0.3495
8 -13 1 -1.8338 0.1510
8 -13 2 -16.5816 -0.4828
8 -13 3 -5.5513 -0.3705
8 -13 4 6.8143 0.2581
8 -13 5 7.8168 0.1061
8 -13 6 -0.2914 0.1940
8 -13 7 -8.5140 0.1476
8 -13 8 -1.8107 -0.0183
8 -13 9 4.8483 -0.1702
8 -13 10 -3.4045 -0.0059
8 -12 0 0.0785 0.5472
8 -12 1 8.1148 0.1828
8 -12 2 -3.5845 0.0290
8 -12 3 -8.9900 -0.1138
8 -12 4 6.5561 -0.2481
8 -12 5 11.3084 0.2751
8 -12 6 6.7085 -0.0474
8 -12 7 -1.2603 0.0286
8 -12 8 -5.7050 0.0157
8 -12 9 4.0810 0.0581
8 -12 10 4.7797 0.0523
8 -12 11 -9.3573 0.1314
8 -12 12 -3.4353 0.0524
8 -12 13 4.2448 -0.1487
8 -11 0 -16.1047 -1.1408
8 -11 1 3.9723 0.3211
8 -11 2 9.0787 0.3097
8 -11 3 6.7820 0.0185
8 -11 4 -3.2042 0.1191
8 -11 5 4.8588 -0.2667
8 -11 6 8.7095 0.1552
8 -11 7 2.7538 -0.1338
8 -11 8 2.1004 -0.0300
8 -11 9 2.4290 0.0526
8 -11 10 7.4124 0.1335
8 -11 11 0.1329 0.0154
8 -11 12 -11.9015 0.0316
8 -11 13 -0.3825 -0.0628
8 -11 14 6.3838 -0.0832
8 -11 15 1.1066 0.0975
8 -11 16 -4.0505 0.4541
8 -10 0 -4.5470 -0.2691
8 -10 1 -3.0712 -0.9135
8 -10 2 5.6054 0.1528
8 -10 3 0.0908 0.3646
8 -10 4 4.7400 -0.1379
8 -10 5 -0.0105 0.1212
8 -10 6 4.2303 -0.1395
8 -10 7 7.5713 0.1293
8 -10 8 -1.8614 -0.1594
8 -10 9 6.3237 -0.0282
8 -10 10 7.9678 0.0570
8 -10 11 4.7925 0.0439
8 -10 12 -4.2561 -0.1124
8 -10 13 -8.8830 0.0303
8 -10 14 3.0144 0.0470
8 -10 15 2.7554 -0.0417
8 -10 16 -5.8760 -0.0176
8 -10 17 -4.0185 0.0659
8 -10 18 5.9728 0.0004
8 -9 0 6.9833 0.1719
8 -9 1 -0.1974 -0.1416
8 -9 2 -10.0128 -0.6292
8 -9 3 -2.1745 0.0062
8 -9 4 -1.8057 0.2795
8 -9 5 7.5431 -0.1907
8 -9 6 4.7206 0.0790
8 -9 7 -0.1965 -0.0113
8 -9 8 4.4831 0.1131
8 -9 9 -3.0495 -0.1433
8 -9 10 8.3740 0.0063
8 -9 11 6.6704 -0.0027
8 -9 12 0.3981 -0.0509
8 -9 13 -1.7942 -0.0673
8 -9 14 -3.4780 0.0429
8 -9 15 1.0351 -0.0269
8 -9 16 -3.6843 -0.1705
8 -9 17 -7.6447 -0.0766
8 -9 18 -0.1897 0.0641
8 -9 19 8.0369 0.1885
8 -9 20 4.3277 0.0842
8 -9 21 -0.4872 -0.1040
8 -8 0 4.0368 0.4950
8 -8 1 2.2054 0.2939
8 -8 2 -0.2955 -0.0669
8 -8 3 -8.9327 -0.4269
8 -8 4 -0.6003 0.0351
8 -8 5 -1.9575 0.1679
8 -8 6 4.9178 -0.1945
8 -8 7 8.6605 0.0410
8 -8 8 -1.7125 0.0614
8 -8 9 1.7015 0.0912
8 -8 10 -5.0234 -0.1323
8 -8 11 5.8775 0.0307
8 -8 12 6.1747 0.0206
8 -8 13 -0.0326 -0.0691
8 -8 14 1.1913 -0.0643
8 -8 15 -3.1622 -0.0525
8 -8 16 -2.7338 -0.0089
8 -8 17 -4.2517 -0.0104
8 -8 18 -4.4704 0.0109
8 -8 19 0.7647 -0.0457
8 -8 20 5.3320 0.1253
8 -8 21 0.3975 0.0169
8 -8 22 -0.2265 -0.0747
8 -7 0 -0.0110 0.0713
8 -7 1 4.4337 0.1943
8 -7 2 5.9579 0.1789
8 -7 3 1.1132 0.1306
8 -7 4 -12.5251 -0.2421
8 -7 5 -0.1858 0.1094
8 -7 6 5.2082 0.0746
8 -7 7 5.1351 -0.1886
8 -7 8 5.5650 0.0239
8 -7 9 -8.4195 0.0548
8 -7 10 -0.5005 0.0399
8 -7 11 -0.2992 -0.0607
8 -7 12 5.1294 0.0595
8 -7 13 4.1762 0.0303
8 -7 14 -3.0864 -0.0849
8 -7 15 1.0853 0.0068
8 -7 16 -2.0821 0.0286
8 -7 17 -3.6028 0.0568
8 -7 18 -2.4264 -0.0050
8 -7 19 -1.2404 -0.0170
8 -7 20 0.2095 -0.1048
8 -7 21 4.1681 0.1480
8 -7 22 -0.8549 -0.0213
8 -7 23 -1.6313 -0.0715
8 -6 0 -3.0801 -0.6276
8 -6 1 2.4926 -0.1927
8 -6 2 -0.6247 0.1347
8 -6 3 -0.8811 0.1309
8 -6 4 4.9762 0.2604
8 -6 5 -4.5244 -0.2135
8 -6 6 2.3625 0.1001
8 -6 7 2.5671 0.0881
8 -6 8 -5.1649 -0.1503
8 -6 9 1.2695 -0.0128
8 -6 10 -4.2226 0.0565
8 -6 11 1.7335 0.0071
8 -6 12 0.8233 -0.0001
8 -6 13 0.5816 0.0412
8 -6 14 2.5195 0.0268
8 -6 15 -3.8174 -0.0287
8 -6 16 -1.6139 0.0836
8 -6 17 -2.4296 0.0317
8 -6 18 -2.8508 0.0011
8 -6 19 1.6410 0.0143
8 -6 20 4.0685 0.0934
8 -6 21 -0.1821 -0.1346
8 -6 22 2.1182 0.0091
8 -6 23 -4.0819 -0.0015
8 -6 24 -5.8660 0.0599
8 -5 0 8.5573 0.5986
8 -5 1 -10.4701 -0.4443
8 -5 2 -10.3952 -0.2784
8 -5 3 3.2058 0.2130
8 -5 4 7.1112 -0.0607
8 -5 5 6.4676 0.1216
8 -5 6 -10.2500 -0.1059
8 -5 7 -6.6491 0.1419
8 -5 8 4.1207 0.0814
8 -5 9 -1.7342 -0.1083
8 -5 10 -0.8940 -0.0197
8 -5 11 -6.1751 0.0867
8 -5 12 -0.9170 -0.0533
8 -5 13 4.5495 -0.0182
8 -5 14 1.2053 0.0263
8 -5 15 -1.9191 0.0014
8 -5 16 -8.0360 -0.0156
8 -5 17 -4.2316 0.0848
8 -5 18 1.1035 0.0235
8 -5 19 2.0948 -0.0129
8 -5 20 2.6046 0.0456
8 -5 21 3.8295 0.0688
8 -5 22 -3.3881 -0.1643
8 -5 23 -0.6226 0.0154
8 -5 24 -4.8244 0.2069
8 -5 25 -7.3986 0.0844
8 -4 0 4.5021 0.5979
8 -4 1 5.0377 0.5619
8 -4 2 -11.8438 -0.2919
8 -4 3 -12.8445 -0.3503
8 -4 4 4.9075 0.2082
8 -4 5 0.6595 -0.1254
8 -4 6 -0.6913 -0.0093
8 -4 7 -3.6643 0.0130
8 -4 8 -1.4569 0.1270
8 -4 9 3.0590 0.0044
8 -4 10 -6.1697 0.0002
8 -4 11 -5.1576 -0.0086
8 -4 12 -2.0336 -0.0008
8 -4 13 2.4692 -0.1018
8 -4 14 2.8789 0.0187
8 -4 15 -5.1179 0.0349
8 -4 16 -5.1093 -0.0852
8 -4 17 -2.7234 -0.0321
8 -4 18 -0.6620 0.0708
8 -4 19 -0.9277 0.0217
8 -4 20 -0.6881 -0.0563
8 -4 21 -2.0676 0.0557
8 -4 22 3.3313 0.0588
8 -4 23 -1.1759 -0.0146
8 -4 24 0.2734 0.0633
8 -4 25 -4.5179 0.0986
8 -3 0 14.9562 -0.1579
8 -3 1 8.3811 0.7216
8 -3 2 -4.6161 0.2897
8 -3 3 -19.4953 -0.2311
8 -3 4 -17.2193 -0.1467
8 -3 5 8.6708 0.1599
8 -3 6 7.8166 -0.1595
8 -3 7 0.1775 -0.0885
8 -3 8 -3.3388 0.0853
8 -3 9 -4.5997 0.1056
8 -3 10 1.5787 -0.1289
8 -3 11 0.9026 0.0312
8 -3 12 -2.2687 0.0535
8 -3 13 -5.2414 -0.0377
8 -3 14 -2.7251 -0.0623
8 -3 15 0.7592 0.0380
8 -3 16 -1.3636 -0.0209
8 -3 17 0.9253 -0.1337
8 -3 18 -0.9795 0.0384
8 -3 19 -6.1989 0.0157
8 -3 20 -8.0567 -0.0122
8 -3 21 0.7233 -0.0429
8 -3 22 1.3389 0.1386
8 -3 23 4.4341 0.0730
8 -3 24 -0.2240 -0.0097
8 -3 25 -2.1051 -0.0421
8 -2 0 -3.7681 -0.6256
8 -2 1 1.5481 -0.1778
8 -2 2 -4.7031 0.6287
8 -2 3 -12.0260 0.1635
8 -2 4 -3.4303 -0.2379
8 -2 5 -1.8552 0.0565
8 -2 6 5.1764 0.0707
8 -2 7 -0.4030 -0.1412
8 -2 8 -4.1492 -0.0411
8 -2 9 3.0704 0.0203
8 -2 10 4.2003 -0.0155
8 -2 11 2.0600 -0.1314
8 -2 12 -2.4316 0.1344
8 -2 13 -5.2294 0.1450
8 -2 14 -4.1296 -0.1267
8 -2 15 0.8939 -0.0912
8 -2 16 3.4318 0.0946
8 -2 17 -1.5930 0.0444
8 -2 18 -0.1690 -0.1264
8 -2 19 -2.7296 0.0540
8 -2 20 -5.0677 -0.0608
8 -2 21 -4.1723 0.0241
8 -2 22 5.0524 0.0272
8 -2 23 1.1505 0.0786
8 -2 24 -0.8015 0.0038
8 -2 25 0.5210 -0.0440
8 -2 26 -1.0964 0.0660
8 -1 0 -4.5105 -1.2072
8 -1 1 -15.5604 -0.3913
8 -1 2 -5.6790 -0.0018
8 -1 3 7.4002 0.2861
8 -1 4 0.0982 0.0954
8 -1 5 1.4966 -0.2336
8 -1 6 -6.1977 0.2143
8 -1 7 -2.5160 0.0433
8 -1 8 3.7872 -0.2238
8 -1 9 2.8206 -0.0249
8 -1 10 1.5626 0.0456
8 -1 11 0.0441 -0.0235
8 -1 12 0.0627 -0.0381
8 -1 13 0.5346 0.0845
8 -1 14 2.2265 0.0646
8 -1 15 -0.7751 -0.1092
8 -1 16 -3.0613 0.0039
8 -1 17 0.1020 0.1443
8 -1 18 -1.1040 0.0478
8 -1 19 4.0903 -0.1748
8 -1 20 2.3068 0.0659
8 -1 21 -2.0666 -0.0278
8 -1 22 -3.6490 -0.0119
8 -1 23 3.2421 -0.0106
8 -1 24 2.2461 0.0174
8 -1 25 0.6800 0.1225
8 -1 26 2.7471 0.0054
8 0 0 -10.0117 0.6174
8 0 1 -3.6550 -1.1058
8 0 2 -0.3711 -0.3134
8 0 3 -5.7830 0.1952
8 0 4 3.3113 -0.0898
8 0 5 -0.4522 0.1006
8 0 6 5.4601 -0.1146
8 0 7 2.2127 0.1779
8 0 8 -2.8821 -0.0135
8 0 9 -4.1091 -0.2258
8 0 10 -3.3635 0.0575
8 0 11 1.3948 0.1285
8 0 12 5.4422 -0.1268
8 0 13 4.6366 -0.0555
8 0 14 1.7097 0.0764
8 0 15 2.9272 0.0448
8 0 16 -1.6143 -0.0230
8 0 17 -5.9679 0.0190
8 0 18 1.5763 0.0442
8 0 19 4.1234 0.0272
8 0 20 4.9078 -0.1496
8 0 21 0.2815 0.0427
8 0 22 -3.5667 0.0181
8 0 23 -0.0369 -0.0514
8 0 24 8.1369 0.0173
8 0 25 5.6269 0.0236
8 0 26 -2.9830 0.1287
8 0 27 -3.6296 -0.0597
8 0 28 -6.4327 0.0972
8 0 29 -3.0953 -0.1411
8 1 0 13.4406 0.5084
8 1 1 4.7980 0.5113
8 1 2 -5.7595 -0.7693
8 1 3 -1.4007 -0.3702
8 1 4 -8.3596 0.3738
8 1 5 6.1829 -0.2607
8 1 6 7.1955 0.0415
8 1 7 2.5051 0.0397
8 1 8 -4.3066 0.0931
8 1 9 -5.3249 -0.0661
8 1 10 -4.0759 -0.1442
8 1 11 -0.6676 0.0376
8 1 12 4.4358 0.1240
8 1 13 4.5640 -0.1370
8 1 14 5.4490 -0.0395
8 1 15 2.9286 0.1049
8 1 16 1.6710 -0.0291
8 1 17 -3.2631 -0.0238
8 1 18 -5.2783 0.0241
8 1 19 2.8849 -0.0314
8 1 20 3.3353 -0.0055
8 1 21 -0.7231 -0.0655
8 1 22 -1.0976 0.0383
8 1 23 2.3215 0.0690
8 1 24 5.0743 -0.0764
8 1 25 6.4543 -0.0374
8 1 26 0.4671 -0.0163
8 1 27 -7.1981 0.1217
8 1 28 -3.4909 0.0096
8 1 29 -1.8013 0.0615
8 2 0 0.0892 0.3279
8 2 1 6.4670 0.4448
8 2 2 11.0406 0.2499
8 2 3 -1.3147 -0.3548
8 2 4 3.4497 -0.2959
8 2 5 -6.6203 0.4620
8 2 6 -5.5412 -0.2776
8 2 7 -0.0685 -0.0889
8 2 8 4.3000 0.1258
8 2 9 2.6204 0.0451
8 2 10 -0.8845 -0.1274
8 2 11 -7.7558 -0.0099
8 2 12 -2.5183 0.0378
8 2 13 9.9998 0.0490
8 2 14 6.4595 -0.0891
8 2 15 2.4490 -0.0620
8 2 16 -2.4232 0.1065
8 2 17 -0.4424 -0.0367
8 2 18 -1.2891 -0.0193
8 2 19 -2.6869 0.0239
8 2 20 -0.3311 -0.0472
8 2 21 -0.2621 -0.0110
8 2 22 -0.6505 0.0455
8 2 23 -0.3458 0.0102
8 2 24 3.0411 -0.0018
8 2 25 2.6591 -0.0487
8 2 26 3.9491 -0.0292
8 2 27 0.7599 -0.0148
8 2 28 -6.5172 0.1144
8 2 29 -2.9267 0.0475
8 3 0 -0.0496 -0.6028
8 3 1 5.0537 0.0425
8 3 2 13.2790 0.4718
8 3 3 20.8872 0.1243
8 3 4 -5.7499 0.0129
8 3 5 -15.9866 -0.1529
8 3 6 -8.8466 0.3234
8 3 7 1.9618 -0.2860
8 3 8 6.6624 -0.1348
8 3 9 5.2551 0.1687
8 3 10 -3.2313 0.0979
8 3 11 -2.8362 -0.1210
8 3 12 0.0574 0.0344
8 3 13 3.6522 0.0058
8 3 14 8.9961 -0.0829
8 3 15 -2.1471 0.0179
8 3 16 -2.7136 0.0052
8 3 17 -0.3006 0.0955
8 3 18 3.0434 -0.0520
8 3 19 -0.9733 -0.0382
8 3 20 -3.8729 0.0195
8 3 21 -0.6743 0.0197
8 3 22 -0.9992 0.0206
8 3 23 -1.4270 0.0610
8 3 24 -4.3466 -0.0368
8 3 25 2.7236 -0.0597
8 3 26 6.0746 0.0378
8 3 27 4.0389 -0.0260
8 3 28 -1.4656 -0.0714
8 4 0 2.6829 0.1993
8 4 1 6.0507 -0.4964
8 4 2 14.3042 -0.0851
8 4 3 3.3560 0.4869
8 4 4 0.4997 0.0243
8 4 5 -7.1423 0.0889
8 4 6 -10.1175 -0.0786
8 4 7 5.2493 0.2013
8 4 8 6.0404 -0.1997
8 4 9 -5.5467 -0.0290
8 4 10 0.9154 0.1381
8 4 11 2.9008 0.0604
8 4 12 1.9745 -0.1149
8 4 13 1.3770 -0.0091
8 4 14 -0.7790 0.0574
8 4 15 6.9009 -0.0908
8 4 16 -1.4886 0.0912
8 4 17 -1.3546 0.0045
8 4 18 1.0813 -0.0129
8 4 19 3.4832 -0.0778
8 4 20 0.4092 0.0320
8 4 21 -4.2371 0.0653
8 4 22 -0.8164 0.0613
8 4 23 -3.3954 0.0057
8 4 24 -1.7584 -0.0347
8 4 25 -2.6059 -0.0634
8 4 26 4.6183 -0.0197
8 4 27 7.1674 0.0858
8 4 28 -1.1830 -0.0560
8 5 0 4.7319 0.5970
8 5 1 8.2920 0.1745
8 5 2 -2.5640 -0.3797
8 5 3 -1.2443 -0.1356
8 5 4 0.7970 0.2872
8 5 5 3.2699 -0.0995
8 5 6 4.2137 0.1039
8 5 7 -10.6660 0.0076
8 5 8 -0.9165 0.2029
8 5 9 9.2499 -0.1373
8 5 10 -3.6119 0.0064
8 5 11 -0.4392 0.0478
8 5 12 0.9764 -0.0336
8 5 13 -2.8783 -0.0018
8 5 14 3.2154 0.0152
8 5 15 4.4022 0.0846
8 5 16 7.2830 -0.1381
8 5 17 -2.9587 0.0291
8 5 18 -1.0561 -0.0230
8 5 19 5.7294 -0.0216
8 5 20 3.5462 -0.0215
8 5 21 -2.5025 0.0953
8 5 22 -6.9647 0.0188
8 5 23 0.5109 -0.0240
8 5 24 -0.4255 -0.0287
8 5 25 -0.3095 -0.0460
8 5 26 -0.5302 0.0164
8 5 27 2.0289 0.0603
8 5 28 3.3349 -0.0159
8 5 29 -5.4734 -0.1581
8 5 30 -5.6345 -0.0631
8 6 0 1.6533 0.4296
8 6 1 -3.2226 0.6364
8 6 2 4.5546 0.1592
8 6 3 -1.5945 -0.3585
8 6 4 -2.6768 -0.1121
8 6 5 7.9379 0.1058
8 6 6 -2.8784 -0.1886
8 6 7 -3.2455 0.1462
8 6 8 -6.2806 0.0239
8 6 9 2.7511 0.1695
8 6 10 12.1800 -0.1195
8 6 11 -7.7674 0.0031
8 6 12 -7.4517 0.0646
8 6 13 3.4657 -0.0785
8 6 14 -1.6354 0.0803
8 6 15 1.7950 -0.0025
8 6 16 5.0195 0.0072
8 6 17 7.6207 -0.1487
8 6 18 0.5651 0.0577
8 6 19 -0.2888 -0.0004
8 6 20 3.8924 -0.0128
8 6 21 -1.7463 -0.0212
8 6 22 -4.5023 0.0454
8 6 23 -3.8409 -0.0536
8 6 24 2.3245 -0.0333
8 6 25 2.1151 0.0272
8 6 26 0.1594 0.0253
8 6 27 -0.9425 0.0586
8 6 28 -2.5927 0.0132
8 6 29 0.2300 -0.1555
8 7 0 -3.2060 -0.8697
8 7 1 -3.7503 0.5306
8 7 2 -0.2477 0.4638
8 7 3 9.6249 0.1739
8 7 4 1.0163 -0.2888
8 7 5 -13.2967 -0.0268
8 7 6 3.9762 0.0416
8 7 7 -3.0804 -0.2827
8 7 8 -3.8566 0.1477
8 7 9 -0.0288 -0.0119
8 7 10 0.1431 0.0885
8 7 11 7.5252 -0.0409
8 7 12 -4.0938 0.0233
8 7 13 -7.4400 0.0772
8 7 14 -0.7732 -0.1187
8 7 15 -5.1120 0.0946
8 7 16 2.5114 0.0129
8 7 17 10.9341 -0.0241
8 7 18 6.1910 -0.1141
8 7 19 -3.5093 0.1010
8 7 20 -3.3901 -0.0148
8 7 21 2.2661 -0.0388
8 7 22 -2.0072 -0.0285
8 7 23 -5.1867 0.0079
8 7 24 -0.8973 -0.0580
8 7 25 3.7023 0.0416
8 7 26 4.4275 0.0714
8 7 27 -0.1595 0.0367
8 7 28 -3.5777 0.0616
8 7 29 -2.9290 -0.0994
8 8 0 -1.5571 -0.9741
8 8 1 -3.1008 -0.8934
8 8 2 -0.7263 0.6193
8 8 3 3.1860 0.1914
8 8 4 1.9406 0.1720
8 8 5 -1.9543 -0.0890
8 8 6 -14.6712 0.0478
8 8 7 3.6910 0.0070
8 8 8 1.4965 -0.3423
8 8 9 -5.6305 0.1283
8 8 10 2.6368 -0.0227
8 8 11 0.1904 -0.0147
8 8 12 1.6425 0.0202
8 8 13 -3.4987 0.0548
8 8 14 -8.2525 0.0555
8 8 15 -2.3098 -0.0962
8 8 16 -0.6218 0.0847
8 8 17 3.5241 -0.0022
8 8 18 7.0327 -0.0174
8 8 19 0.2015 -0.0619
8 8 20 -4.4504 0.1020
8 8 21 -2.1820 -0.0490
8 8 22 -0.8494 -0.0576
8 8 23 -1.1961 -0.0162
8 8 24 -1.5444 0.0210
8 8 25 3.0834 -0.0386
8 8 26 4.1960 0.0745
8 8 27 3.0258 0.0767
8 8 28 0.0746 -0.0277
8 8 29 -3.3668 0.0364
8 9 0 -8.0028 -0.1196
8 9 1 -3.3904 -0.7175
8 9 2 1.2901 -0.8317
8 9 3 -2.2189 0.6034
8 9 4 -0.4057 -0.0322
8 9 5 -2.7845 0.0988
8 9 6 3.4878 0.1031
8 9 7 -6.7707 0.0734
8 9 8 1.8769 -0.0034
8 9 9 6.3086 -0.2693
8 9 10 -3.8138 0.0958
8 9 11 -1.1061 -0.0695
8 9 12 -4.6584 -0.0760
8 9 13 -2.2033 0.0628
8 9 14 1.3958 0.0960
8 9 15 -3.5896 -0.0439
8 9 16 -3.5981 -0.1053
8 9 17 0.9768 0.0993
8 9 18 3.6067 0.0136
8 9 19 3.3025 0.0165
8 9 20 -2.7809 -0.0551
8 9 21 -6.6158 0.0162
8 9 22 -1.9840 -0.0493
8 9 23 0.9369 0.0114
8 9 24 4.9324 -0.0195
8 9 25 2.3532 -0.0169
8 9 26 0.9934 -0.0362
8 9 27 3.5795 0.0490
8 9 28 2.4808 0.0763
8 10 0 -13.5211 0.6801
8 10 1 -10.8498 -0.2791
8 10 2 -2.0569 -0.3434
8 10 3 6.1519 -0.6445
8 10 4 -7.2077 0.4056
8 10 5 -1.8438 -0.2071
8 10 6 5.4000 -0.0034
8 10 7 11.5999 0.2249
8 10 8 0.7194 0.1177
8 10 9 -2.2552 0.0057
8 10 10 5.4019 -0.1578
8 10 11 -3.3310 0.0895
8 10 12 -5.4006 -0.1070
8 10 13 -4.2504 -0.0639
8 10 14 -0.1530 0.0073
8 10 15 2.6897 0.0594
8 10 16 -2.3124 -0.1066
8 10 17 -0.8053 -0.0665
8 10 18 5.7129 0.1459
8 10 19 3.0484 -0.0160
8 10 20 -3.3933 -0.0066
8 10 21 -5.2607 -0.0174
8 10 22 -4.7401 -0.0192
8 10 23 1.0568 -0.0494
8 10 24 4.3735 0.0661
8 10 25 5.6762 -0.0394
8 10 27 0.0042 -0.0099
8 10 28 3.5524 -0.0352
8 11 0 -6.1775 0.7558
8 11 1 -16.7462 0.7205
8 11 2 -4.6479 -0.3329
8 11 3 0.8045 -0.0671
8 11 4 5.5675 -0.3663
8 11 5 -8.6529 0.1457
8 11 6 3.1146 -0.3111
8 11 7 17.1084 -0.0264
8 11 8 10.4144 0.2500
8 11 9 -1.7956 0.1238
8 11 10 -5.5120 0.0340
8 11 11 5.0251 -0.0655
8 11 12 -0.0001 0.1299
8 11 13 -6.5721 -0.1558
8 11 14 -4.8889 -0.0524
8 11 15 1.1066 -0.0498
8 11 16 4.1658 0.0353
8 11 17 0.4491 -0.0771
8 11 18 2.6627 -0.0589
8 11 19 5.9635 0.1304
8 11 20 1.0362 -0.0319
8 11 21 -5.3971 -0.0034
8 11 22 -5.7095 0.0373
8 11 23 -4.7371 -0.0331
8 11 24 0.3001 -0.0374
8 12 0 -6.2665 -0.1930
8 12 1 -3.3456 0.4623
8 12 2 -11.8635 0.5613
8 12 3 3.1127 -0.2180
8 12 4 -2.0997 0.0808
8 12 5 0.8278 -0.1375
8 12 6 -0.0187 -0.0196
8 12 7 4.7997 -0.3149
8 12 8 12.8709 0.0289
8 12 9 2.0212 0.1968
8 12 10 -2.3197 0.0255
8 12 11 -1.0635 0.0637
8 12 12 3.6843 -0.0163
8 12 13 -1.2195 0.1658
8 12 14 -6.2751 -0.1745
8 12 15 -3.0763 -0.0428
8 12 16 2.6860 -0.0474
8 12 17 4.1391 0.0114
8 12 18 -0.0584 -0.0025
8 12 19 4.2978 -0.0691
8 12 20 6.2761 0.0351
8 12 21 -1.8257 -0.0441
8 12 22 -8.6112 0.0551
8 13 0 -4.5431 -0.0787
8 13 1 -10.6274 -0.0930
8 13 2 1.4305 0.2728
8 13 3 -4.2834 0.2373
8 13 4 5.4119 -0.1126
8 13 5 -4.2065 0.1407
8 13 6 -3.3650 0.0275
8 13 7 3.8139 0.0233
8 13 8 -5.3715 -0.2597
8 13 9 2.0204 0.0031
8 13 10 6.0706 0.1237
8 13 11 1.4041 -0.0951
8 13 12 -4.0600 0.0650
8 13 13 -1.0707 -0.0152
8 13 14 -0.2537 0.1347
8 13 15 -1.6403 -0.1326
8 13 16 -1.6287 -0.0205
8 13 17 0.1695 -0.0027
8 13 18 2.8231 -0.0255
8 13 19 -0.5963 0.0536
8 13 20 2.6138 -0.0703
8 13 21 2.0415 -0.0643
8 14 0 4.6649 0.1735
8 14 1 -5.9397 0.1301
8 14 2 -13.6766 -0.2390
8 14 3 13.4468 0.0599
8 14 4 8.8543 0.0229
8 14 5 -3.4059 0.0103
8 14 6 -13.0878 0.1671
8 14 7 -8.7075 0.0472
8 14 8 4.5541 0.1205
8 14 9 -7.3907 -0.1326
8 14 10 -1.9422 -0.0527
8 14 11 8.8005 0.0729
8 14 12 -4.2969 -0.2199
8 14 13 -10.8615 -0.0290
8 14 14 4.6008 0.0384
8 14 15 5.9602 0.1324
8 14 16 -2.9667 -0.0771
8 14 17 -4.6474 -0.0604
8 14 18 -3.1074 0.0376
8 14 19 0.8490 0.0213
8 14 20 -2.3013 0.1460
8 15 0 6.9150 0.0202
8 15 1 1.3121 0.2800
8 15 2 0.0175 0.2147
8 15 3 -0.6451 -0.4160
8 15 4 19.8732 0.0725
8 15 5 1.8017 0.0619
8 15 6 -23.4253 -0.1330
8 15 7 -11.2327 0.0329
8 15 8 4.3307 0.1608
8 15 9 4.2964 0.3106
8 15 10 -11.6610 -0.0547
8 15 11 -9.1646 -0.2374
8 15 12 4.2582 0.0153
8 15 13 -4.3703 -0.1283
8 15 14 -6.5003 -0.0257
8 15 15 12.4242 0.1158
8 15 16 3.4135 0.0465
8 15 17 -12.8211 -0.0985
8 15 18 -6.2429 -0.0235
8 15 19 -2.2816 0.1730
8 16 0 3.6336 -0.3113
8 16 1 13.3970 0.3673
8 16 2 6.8188 0.3142
8 16 3 5.3145 0.1337
8 16 4 0.6193 -0.3930
8 16 5 5.5098 0.1639
8 16 6 -7.1723 0.0718
8 16 7 -18.4088 -0.3770
8 16 8 3.4491 -0.0126
8 16 9 9.3726 0.3404
8 16 10 -10.8382 0.2573
8 16 11 -16.2671 -0.1118
8 16 12 -4.9999 -0.1711
8 16 13 3.6374 0.1586
8 16 14 0.2001 0.0407
8 16 15 -1.8787 -0.1039
8 16 16 7.6680 0.0947
8 16 17 -5.1807 0.0089
8 17 5 -1.7285 -0.0963
8 17 6 -0.1003 0.2883
8 17 7 -2.9958 -0.1353
8 17 8 -6.0936 -0.6472
8 17 9 2.5749 -0.0316
8 17 10 0.8957 0.5156
8 17 11 -15.8244 0.2783
8 17 12 -8.4929 -0.0268
8 17 16 -0.8490 -0.0734
9 -14 0 3.4195 -0.1157
9 -14 1 -2.2720 -0.5442
9 -14 2 -1.1198 -0.1369
9 -14 3 6.2927 0.2473
9 -14 4 7.7398 0.3393
9 -14 5 -0.7688 0.0416
9 -13 0 9.5553 0.2639
9 -13 1 2.1428 0.0361
9 -13 2 -5.8700 -0.1980
9 -13 3 -3.6450 -0.1953
9 -13 4 4.0240 0.1677
9 -13 5 2.0757 0.0429
9 -13 6 -6.7951 -0.0329
9 -13 7 -1.4046 -0.0832
9 -12 0 17.1592 0.0376
9 -12 1 5.3798 0.4520
9 -12 2 -9.3466 -0.0698
9 -12 3 -13.5571 -0.1144
9 -12 4 -4.4229 -0.2493
9 -12 5 4.7720 0.1873
9 -12 6 -0.6763 0.0453
9 -12 7 -6.9608 0.0180
9 -12 8 1.3513 0.1335
9 -12 9 -1.4585 0.1657
9 -12 10 -2.7298 0.0322
9 -12 11 -2.7400 -0.1256
9 -12 12 -4.2068 -0.4111
9 -11 0 -2.3723 -0.2225
9 -11 1 4.2801 -0.1637
9 -11 2 -2.7394 0.4518
9 -11 3 -10.3963 -0.1700
9 -11 4 -3.6081 0.0266
9 -11 5 -0.2305 -0.1379
9 -11 6 -0.3103 0.0822
9 -11 7 -5.5606 0.0472
9 -11 8 -5.0740 0.0775
9 -11 9 2.2418 0.2066
9 -11 10 -2.2582 0.0637
9 -11 11 -3.8738 0.0120
9 -11 12 -0.8951 0.0382
9 -11 13 -5.2433 -0.2202
9 -11 14 -0.6824 -0.2911
9 -11 15 -2.9288 0.0906
9 -10 0 -7.4548 -0.1225
9 -10 1 -7.5441 -0.0345
9 -10 2 3.0451 -0.2533
9 -10 3 3.6521 0.3807
9 -10 4 -7.3583 -0.1812
9 -10 5 1.0454 0.0421
9 -10 6 -2.5676 -0.0411
9 -10 7 -4.8799 0.0097
9 -10 8 -4.7091 0.0916
9 -10 9 -2.8198 0.0452
9 -10 10 2.5988 0.1351
9 -10 11 -0.3295 0.0415
9 -10 12 -3.3007 0.1439
9 -10 13 -1.9533 0.0837
9 -10 14 -4.7676 -0.1460
9 -10 15 2.5078 -0.2427
9 -10 16 1.8644 0.2106
9 -10 17 -0.6663 0.4576
9 -10 18 -0.1225 0.4107
9 -9 0 4.9175 0.2341
9 -9 1 0.2331 -0.2053
9 -9 2 -4.1365 0.0734
9 -9 3 -4.5473 -0.2528
9 -9 4 0.9999 0.2419
9 -9 5 -5.3503 -0.0811
9 -9 6 5.4151 0.0787
9 -9 7 -3.3364 -0.0002
9 -9 8 -7.4915 -0.1116
9 -9 9 -3.1185 0.0589
9 -9 10 -1.5748 0.0200
9 -9 11 4.6332 0.1387
9 -9 12 1.1899 -0.0026
9 -9 13 -4.0796 0.1248
9 -9 14 -2.7362 0.0957
9 -9 15 -0.4256 0.0324
9 -9 16 5.6749 -0.1400
9 -9 17 3.7585 0.0544
9 -9 18 -2.4261 0.2469
9 -9 19 -1.0828 0.3209
9 -8 0 6.9747 0.4563
9 -8 1 4.5163 0.2196
9 -8 2 -3.1079 -0.1349
9 -8 3 -6.1039 0.0934
9 -8 4 -9.2756 -0.1714
9 -8 5 1.7708 0.1625
9 -8 6 -5.0690 -0.0222
9 -8 7 2.4824 0.0251
9 -8 8 -1.8893 -0.0009
9 -8 9 -4.8834 -0.1022
9 -8 10 -0.7161 0.0834
9 -8 11 -2.7164 -0.0577
9 -8 12 6.0865 0.0517
9 -8 13 3.1097 -0.0804
9 -8 14 -4.1941 0.0953
9 -8 15 -2.5675 0.1152
9 -8 16 2.6952 0.0300
9 -8 17 5.9693 -0.1730
9 -8 18 3.7908 0.0073
9 -8 19 -2.6011 0.1744
9 -7 0 -9.5815 -0.4328
9 -7 1 0.4845 0.5288
9 -7 2 5.7148 0.1765
9 -7 3 1.6377 -0.1274
9 -7 4 -6.3141 0.0437
9 -7 5 -17.8183 -0.1033
9 -7 6 -1.7305 0.1057
9 -7 7 -0.7045 -0.0099
9 -7 8 5.4531 0.0523
9 -7 9 0.8436 0.0885
9 -7 10 -7.7959 -0.1046
9 -7 11 -0.1602 -0.0147
9 -7 12 1.4594 -0.1327
9 -7 13 9.1573 0.0286
9 -7 14 2.1081 -0.0946
9 -7 15 -6.1448 -0.0078
9 -7 16 -0.6833 0.0575
9 -7 17 5.1951 0.0547
9 -7 18 2.7314 -0.0730
9 -7 19 -0.0277 0.0156
9 -7 20 -2.2614 -0.0333
9 -7 21 -1.6164 -0.0068
9 -6 0 -7.8690 -0.1776
9 -6 1 -9.0161 -0.4275
9 -6 2 9.6726 0.4821
9 -6 3 6.7803 0.0003
9 -6 4 -9.4805 -0.1574
9 -6 5 -9.9904 0.1216
9 -6 6 -9.1032 -0.0342
9 -6 7 7.5354 0.0480
9 -6 8 -0.1530 -0.0022
9 -6 9 -3.9285 0.0704
9 -6 10 -0.6431 0.0781
9 -6 11 -2.3549 -0.1265
9 -6 12 7.3650 -0.0124
9 -6 13 3.2639 -0.0497
9 -6 14 2.8869 -0.0133
9 -6 15 1.2304 -0.1195
9 -6 16 -0.5930 -0.0334
9 -6 17 1.1776 0.0568
9 -6 18 -0.0072 0.0709
9 -6 19 -5.0436 -0.0474
9 -6 20 -1.0482 -0.0444
9 -6 21 4.3637 -0.0931
9 -6 22 2.8027 -0.0494
9 -6 23 5.8032 0.0638
9 -5 0 -1.9442 -0.3961
9 -5 1 0.9193 -0.0610
9 -5 2 -7.9120 -0.4300
9 -5 3 4.0412 0.3499
9 -5 4 3.4477 -0.0175
9 -5 5 -6.0015 -0.1442
9 -5 6 1.9416 0.1809
9 -5 7 -3.2612 -0.0207
9 -5 8 -0.6612 -0.0509
9 -5 9 -5.3550 -0.0464
9 -5 10 -1.9455 0.0767
9 -5 11 6.4281 0.0846
9 -5 12 -0.2025 -0.0092
9 -5 13 3.5083 0.0411
9 -5 14 2.2811 -0.0298
9 -5 15 2.8186 -0.0808
9 -5 16 4.7109 -0.0363
9 -5 17 1.0998 0.0389
9 -5 18 -5.5788 -0.0110
9 -5 19 -4.6577 -0.0028
9 -5 20 -1.8619 0.0120
9 -5 21 4.9170 -0.0298
9 -5 22 8.5284 -0.0717
9 -5 23 1.8004 -0.0627
9 -5 24 3.9065 0.0425
9 -5 25 0.8743 -0.1505
9 -4 0 1.7012 0.5003
9 -4 1 -5.1362 -0.4738
9 -4 2 3.2079 0.0275
9 -4 3 -0.9194 -0.2876
9 -4 4 6.0966 0.1439
9 -4 5 4.6281 0.0101
9 -4 6 -9.2739 -0.1115
9 -4 7 -0.0613 0.1368
9 -4 8 -0.1275 -0.0538
9 -4 9 1.1851 -0.0919
9 -4 10 -3.0505 -0.0161
9 -4 11 -4.3760 0.1664
9 -4 12 3.0412 0.0337
9 -4 13 0.9462 -0.0097
9 -4 14 4.5478 0.0189
9 -4 15 2.9968 0.0153
9 -4 16 -0.5816 -0.0194
9 -4 17 0.8224 0.0448
9 -4 18 2.5675 0.0065
9 -4 19 -3.8140 -0.0969
9 -4 20 -0.6884 -0.0122
9 -4 21 3.1965 0.0767
9 -4 22 1.1434 -0.0479
9 -4 23 3.1142 -0.0853
9 -4 24 0.5779 0.0676
9 -4 25 6.3899 0.0679
9 -3 0 -7.2377 0.1145
9 -3 1 8.8124 0.5479
9 -3 2 6.8010 -0.3834
9 -3 3 10.3338 -0.0648
9 -3 4 -3.0107 -0.1103
9 -3 5 -7.2864 0.0362
9 -3 6 1.0604 -0.0240
9 -3 7 -2.7770 -0.1253
9 -3 8 5.2049 0.0866
9 -3 9 -0.3345 0.0234
9 -3 10 -5.2966 0.0229
9 -3 11 -5.5247 -0.0576
9 -3 12 -1.0142 0.0698
9 -3 13 6.9008 -0.0954
9 -3 14 0.8646 0.0161
9 -3 15 -2.6719 0.0860
9 -3 16 -3.0710 0.0446
9 -3 17 0.6499 -0.0451
9 -3 18 4.2975 0.0207
9 -3 19 6.2012 0.0003
9 -3 20 -3.0814 -0.0745
9 -3 21 -3.6364 0.0009
9 -3 22 1.5346 0.0145
9 -3 23 -4.2949 -0.0090
9 -3 24 1.5062 -0.0027
9 -3 25 3.5315 0.1657
9 -3 26 7.4357 -0.1094
9 -2 0 6.2688 -0.4146
9 -2 1 1.7351 0.1465
9 -2 2 14.9641 0.4137
9 -2 3 3.3513 -0.1957
9 -2 4 -2.2230 -0.1264
9 -2 5 -1.5240 0.0155
9 -2 6 0.3589 -0.0402
9 -2 7 4.9731 -0.1212
9 -2 8 -7.8792 -0.0137
9 -2 9 -4.3207 0.1771
9 -2 10 -0.3658 -0.0339
9 -2 11 1.0845 -0.0351
9 -2 12 0.5108 -0.1164
9 -2 13 -1.7449 0.0696
9 -2 14 0.4787 -0.0571
9 -2 15 -4.1971 0.0003
9 -2 16 -3.6754 0.0203
9 -2 17 -0.4651 0.0059
9 -2 18 4.1608 -0.0286
9 -2 19 1.8718 0.0292
9 -2 20 -1.4459 0.0160
9 -2 21 -4.0109 -0.0640
9 -2 22 -3.0954 0.0714
9 -2 23 2.7026 -0.0287
9 -2 24 -6.8646 0.0325
9 -2 25 -2.4765 0.0030
9 -2 26 2.9255 0.0071
9 -1 0 -2.5394 -0.4300
9 -1 1 3.8071 -0.5238
9 -1 2 -8.4756 0.3252
9 -1 3 6.8890 0.2695
9 -1 4 10.5614 -0.1061
9 -1 5 5.6654 -0.1343
9 -1 6 5.3793 0.0835
9 -1 7 -5.9486 0.0136
9 -1 8 -6.7901 -0.1346
9 -1 9 -8.3171 -0.0221
9 -1 10 4.4704 0.1045
9 -1 11 6.2424 -0.1403
9 -1 12 -2.8874 0.0382
9 -1 13 -4.6767 0.0368
9 -1 14 -3.9499 0.0323
9 -1 15 1.7696 -0.1080
9 -1 16 -1.6002 -0.0243
9 -1 17 -3.1503 0.0284
9 -1 18 -1.9204 0.0110
9 -1 19 -0.3260 -0.0244
9 -1 20 -2.0618 -0.0098
9 -1 21 -4.5133 0.0759
9 -1 22 1.1561 -0.0033
9 -1 23 -2.2181 0.1076
9 -1 24 -2.8787 -0.1431
9 -1 25 -9.8306 0.0136
9 -1 26 -2.4504 0.1709
9 -1 27 6.3112 -0.0927
9 0 0 -0.4569 0.5741
9 0 1 -17.8316 -0.2300
9 0 2 -1.8974 -0.6263
9 0 3 1.5746 0.4088
9 0 4 10.6059 0.1304
9 0 5 11.0798 -0.0879
9 0 6 0.8157 0.0367
9 0 7 5.4506 0.1123
9 0 8 -3.4049 -0.0770
9 0 9 -5.2430 -0.1894
9 0 10 -5.2958 -0.0364
9 0 11 3.1411 0.1262
9 0 12 1.5635 -0.0763
9 0 13 -6.9311 0.0358
9 0 14 -2.7207 0.0658
9 0 15 -0.5500 -0.0190
9 0 16 2.8083 -0.0356
9 0 17 -1.3708 0.0702
9 0 18 -5.1692 0.0091
9 0 19 -1.9133 -0.0721
9 0 20 -1.1384 0.0014
9 0 21 -0.5925 -0.0144
9 0 22 -5.2185 0.0676
9 0 23 -0.9917 -0.0215
9 0 24 -4.4874 0.0790
9 0 25 -3.8369 -0.0530
9 0 26 -2.4640 0.1393
9 0 27 1.0978 0.3196
9 1 0 -15.8340 0.6090
9 1 1 0.5179 0.3414
9 1 2 -9.4134 -0.0270
9 1 3 -0.5315 -0.5933
9 1 4 1.7029 0.3550
9 1 5 0.3249 0.1070
9 1 6 13.0148 -0.1112
9 1 7 11.2851 0.0774
9 1 8 9.2792 0.0593
9 1 9 -10.5497 -0.1118
9 1 10 -11.0876 -0.0750
9 1 11 -1.2644 0.0266
9 1 12 3.4072 0.0276
9 1 13 -2.3730 -0.0738
9 1 14 -9.6615 -0.0159
9 1 15 0.6762 0.1092
9 1 16 5.2492 0.0346
9 1 17 2.3608 0.0322
9 1 18 -2.9735 0.0719
9 1 19 -4.7748 -0.0472
9 1 20 3.0109 -0.1181
9 1 21 0.1504 0.0199
9 1 22 -3.1091 -0.0544
9 1 23 -7.0896 -0.0051
9 1 24 -1.2626 0.0378
9 1 25 0.5297 0.0793
9 1 26 -0.1255 0.0671
9 1 27 1.1609 0.1508
9 2 0 7.9415 -0.0678
9 2 1 -10.1462 0.7390
9 2 2 -2.6388 0.1337
9 2 3 -6.8742 0.0756
9 2 4 -1.0602 -0.3931
9 2 5 9.4678 0.1980
9 2 6 3.4042 0.0581
9 2 7 10.9075 -0.1353
9 2 8 5.3285 0.0730
9 2 9 2.0171 0.1103
9 2 10 -9.7475 -0.0430
9 2 11 -4.3961 -0.0641
9 2 12 0.2530 0.0202
9 2 13 -4.8108 -0.0891
9 2 14 -4.7703 -0.0207
9 2 15 -1.4879 0.0017
9 2 16 7.1724 0.0885
9 2 17 3.5583 0.0161
9 2 18 -4.2392 0.0180
9 2 19 -2.7668 0.0246
9 2 20 1.8556 -0.0485
9 2 21 6.4730 -0.0542
9 2 22 -1.6980 0.0027
9 2 23 -4.9136 -0.0834
9 2 24 -3.0325 -0.0748
9 2 25 0.8775 0.0561
9 2 26 1.3461 0.0210
9 2 27 -0.1237 0.1137
9 2 28 2.3798 0.1547
9 3 0 -7.1852 -0.8168
9 3 1 5.0286 -0.2574
9 3 2 -8.5888 0.6505
9 3 3 -0.1816 0.0020
9 3 4 12.4253 0.0699
9 3 5 4.7293 -0.1309
9 3 6 -0.2397 0.1021
9 3 7 -7.7215 -0.0056
9 3 8 7.8846 -0.1086
9 3 9 8.4439 0.0794
9 3 10 2.0182 0.1031
9 3 11 -9.7656 0.0110
9 3 12 -5.4372 -0.1020
9 3 13 0.5783 0.0592
9 3 14 -1.9637 -0.1116
9 3 15 -0.3020 0.0003
9 3 16 0.9617 0.0000
9 3 17 3.1007 0.0046
9 3 18 -2.1772 -0.0445
9 3 19 -5.2478 0.0153
9 3 20 0.9579 0.0480
9 3 21 6.6913 -0.0019
9 3 22 6.2085 0.0326
9 3 23 -2.8276 -0.0787
9 3 24 -4.0002 -0.0771
9 3 25 -1.0451 -0.0465
9 3 26 -0.1547 0.0085
9 3 27 0.0157 -0.0575
9 3 28 0.7028 0.0814
9 4 0 -0.1292 -0.2642
9 4 1 -7.6622 -0.6763
9 4 2 7.1495 -0.3077
9 4 3 10.2906 0.4305
9 4 4 4.4607 -0.0466
9 4 5 4.8638 0.0415
9 4 6 -6.3745 0.0540
9 4 7 -4.4838 0.0786
9 4 8 1.1899 -0.0680
9 4 9 11.7202 -0.0910
9 4 10 0.3576 0.1315
9 4 11 -4.4757 0.0227
9 4 12 -4.1635 0.0444
9 4 13 0.7467 -0.0808
9 4 14 1.0896 0.0893
9 4 15 -3.0785 -0.1005
9 4 16 -0.0542 -0.0021
9 4 17 -0.0465 -0.0037
9 4 18 -0.1717 -0.0472
9 4 19 -6.4680 -0.0552
9 4 20 -3.8495 0.0204
9 4 21 5.5567 0.0817
9 4 22 8.3641 0.0032
9 4 23 3.5926 0.1106
9 4 24 -5.0379 -0.0627
9 4 25 -2.6467 -0.0222
9 4 26 -0.9038 -0.0241
9 4 27 -1.8242 -0.1474
9 4 28 -0.6022 -0.0793
9 5 0 -6.8868 0.8681
9 5 1 0.6027 -0.1384
9 5 2 2.8871 -0.5187
9 5 3 5.6870 -0.1990
9 5 4 7.6179 0.1963
9 5 5 -3.1918 -0.1632
9 5 6 -1.8806 0.0065
9 5 7 -0.0074 0.1429
9 5 8 0.8706 0.0651
9 5 9 1.4709 -0.0514
9 5 10 7.5950 -0.0810
9 5 11 -1.0567 0.1771
9 5 12 -2.6519 -0.0930
9 5 13 -2.9139 0.0319
9 5 14 -1.4203 0.0137
9 5 15 1.3783 0.1063
9 5 16 1.2809 -0.0905
9 5 17 0.5515 -0.0102
9 5 18 -6.9344 -0.0209
9 5 19 -3.7780 -0.0715
9 5 20 -2.9892 -0.0043
9 5 21 1.3167 0.0170
9 5 22 6.8534 0.1086
9 5 23 3.7848 -0.0038
9 5 24 1.2366 0.1127
9 5 25 -4.5231 -0.0338
9 5 26 -2.3206 -0.0032
9 5 27 -2.1347 0.0217
9 5 28 -2.7143 -0.1837
9 6 0 1.0177 0.2815
9 6 1 -4.8275 0.8702
9 6 2 -5.8918 0.0236
9 6 3 3.3557 -0.3871
9 6 4 3.9680 -0.0836
9 6 5 4.1168 0.0535
9 6 6 -2.0053 -0.3036
9 6 7 -4.7803 -0.0142
9 6 8 1.9969 0.1957
9 6 9 5.7589 0.0011
9 6 10 3.4295 0.0097
9 6 11 5.7854 -0.0851
9 6 12 -4.0667 0.1454
9 6 13 -5.6843 -0.1208
9 6 14 -0.2146 0.0441
9 6 15 3.5008 0.0784
9 6 16 2.7619 0.0459
9 6 17 -2.2855 -0.1289
9 6 18 -2.6911 -0.0050
9 6 19 -6.5823 0.0188
9 6 20 0.4856 -0.0497
9 6 21 2.7732 0.0707
9 6 22 0.5614 -0.0284
9 6 23 4.7242 0.0317
9 6 24 1.1889 -0.0708
9 6 25 0.0230 0.0719
9 6 26 -4.3139 0.0698
9 6 27 -2.9746 0.0776
9 6 28 -0.8964 0.0524
9 6 29 -3.1536 -0.1890
9 7 0 -1.9321 -0.9638
9 7 1 -4.2942 0.3641
9 7 2 -4.0742 0.6718
9 7 3 -5.3350 0.0453
9 7 4 9.2136 -0.1884
9 7 5 6.8607 0.0114
9 7 6 -6.8676 0.0199
9 7 7 -4.2410 -0.3453
9 7 8 -0.2260 -0.0333
9 7 9 6.2131 0.1982
9 7 10 5.7219 -0.1289
9 7 11 -0.7536 0.0430
9 7 12 3.4176 -0.0019
9 7 13 0.4009 0.1012
9 7 14 -0.6383 -0.1079
9 7 15 0.8424 0.0095
9 7 16 0.1285 0.0226
9 7 17 -0.2880 0.0047
9 7 18 -0.7258 -0.0648
9 7 19 0.6488 0.0399
9 7 20 -3.3824 0.0589
9 7 21 1.6217 -0.0718
9 7 22 6.3262 0.0622
9 7 23 -0.2039 -0.1084
9 7 24 0.7090 -0.0543
9 7 25 -0.9035 -0.0493
9 7 26 -1.0730 0.1268
9 7 27 -1.1660 0.1519
9 7 28 -2.5538 0.0735
9 7 29 -1.0331 0.0051
9 8 0 1.0923 -0.8177
9 8 1 -0.0441 -1.0330
9 8 2 -3.6006 0.3738
9 8 3 1.4790 0.4247
9 8 4 1.5756 -0.0617
9 8 5 7.1450 0.0700
9 8 6 1.2191 0.1045
9 8 7 -15.8763 0.0333
9 8 8 -2.3080 -0.2818
9 8 9 6.0000 -0.0813
9 8 10 2.8218 0.1386
9 8 11 2.7574 -0.1600
9 8 12 3.6700 0.0594
9 8 13 5.6078 0.0674
9 8 14 0.2551 -0.0117
9 8 15 -0.4091 -0.1202
9 8 16 0.8598 0.0673
9 8 17 -0.4858 0.0074
9 8 18 -0.7684 -0.0111
9 8 19 0.9224 0.0308
9 8 20 1.5477 0.0519
9 8 21 0.6064 0.0398
9 8 22 3.2874 -0.1226
9 8 23 4.2042 0.0283
9 8 24 -3.8829 -0.1039
9 8 25 -2.0143 -0.0058
9 8 26 2.4691 0.0484
9 8 27 -0.4353 0.1447
9 8 28 -0.1302 0.0888
9 9 0 3.5620 0.2385
9 9 1 4.2898 -0.6326
9 9 2 4.6497 -0.8959
9 9 3 -3.7730 0.2786
9 9 4 1.6353 0.2639
9 9 5 5.9903 -0.1905
9 9 6 -1.8133 0.2475
9 9 7 -9.1413 0.1343
9 9 8 -18.3974 0.0088
9 9 9 3.0695 -0.1401
9 9 10 12.2504 -0.0238
9 9 11 1.3323 0.0281
9 9 12 0.3825 -0.1547
9 9 13 2.7295 0.0025
9 9 14 1.8155 0.0671
9 9 15 1.0388 -0.0226
9 9 16 5.7575 -0.0949
9 9 17 0.2435 0.1388
9 9 18 -5.4237 -0.0056
9 9 19 -1.5974 -0.0365
9 9 20 4.8998 0.1200
9 9 21 2.6695 0.0267
9 9 22 -0.5671 -0.0391
9 9 23 0.5607 -0.1031
9 9 24 0.2219 0.1084
9 9 25 -0.9078 -0.0492
9 9 26 0.3038 0.0125
9 9 27 2.7183 0.0706
9 10 0 7.6150 1.6837
9 10 1 9.5389 0.0882
9 10 2 3.7467 -0.4177
9 10 3 0.4763 -0.5250
9 10 4 -4.7036 0.1177
9 10 5 -0.8875 0.1151
9 10 6 4.0154 -0.3162
9 10 7 -11.9543 0.2713
9 10 8 -12.6863 0.1422
9 10 9 -6.5382 0.0285
9 10 10 10.4451 -0.0351
9 10 11 7.5490 0.0440
9 10 12 -6.4419 -0.1409
9 10 13 -1.3190 -0.1032
9 10 14 3.9722 0.0451
9 10 15 2.1160 -0.0151
9 10 16 1.9714 -0.0244
9 10 17 5.5481 -0.0840
9 10 18 -3.1285 0.1775
9 10 19 -5.0849 0.0216
9 10 20 1.3670 -0.0879
9 10 21 3.3753 0.1065
9 10 22 -0.7024 0.0383
9 10 23 -1.1596 -0.0063
9 10 24 2.3172 -0.0415
9 10 25 -0.5236 0.0915
9 10 26 0.8886 -0.1185
9 11 0 7.2721 0.0745
9 11 1 6.0038 1.5117
9 11 2 7.4386 0.0473
9 11 3 -0.0492 -0.3022
9 11 4 -4.3080 -0.1703
9 11 5 -2.3501 -0.0313
9 11 6 -5.0539 -0.0057
9 11 7 0.9213 -0.3211
9 11 8 -8.0151 0.2287
9 11 9 -4.2619 0.0679
9 11 10 0.7467 0.0374
9 11 11 2.8830 -0.0275
9 11 12 -2.6164 0.1330
9 11 13 -4.8163 -0.1911
9 11 14 5.7404 -0.0820
9 11 15 3.5301 0.1066
9 11 16 -1.3443 -0.1538
9 11 17 0.7900 -0.0085
9 11 18 3.9936 -0.0344
9 11 19 -2.7828 0.1284
9 11 20 -2.2897 0.0223
9 11 21 2.8114 -0.0847
9 11 22 1.1159 0.0917
9 11 23 0.7370 0.0574
9 12 0 0.9677 -0.4597
9 12 1 1.8388 0.0042
9 12 2 3.3046 1.0174
9 12 3 4.0845 -0.0006
9 12 4 1.0531 -0.1898
9 12 5 -6.6908 0.1173
9 12 6 -0.0153 -0.0786
9 12 7 -1.4682 -0.1124
9 12 8 5.4208 -0.2501
9 12 9 -0.4567 0.2148
9 12 10 -4.1516 -0.0452
9 12 11 -3.5654 0.0414
9 12 12 -2.4299 -0.0523
9 12 13 -0.7169 0.1852
9 12 14 1.2615 -0.1201
9 12 15 7.5494 -0.1349
9 12 16 0.7669 0.1753
9 12 17 -3.2412 -0.1910
9 12 18 0.1336 -0.0098
9 12 19 2.3893 0.0149
9 12 20 1.9164 0.0630
9 12 21 3.9121 0.0114
9 13 0 3.9917 -0.4115
9 13 1 -4.2145 -0.3804
9 13 2 1.3346 -0.0945
9 13 3 3.0555 0.5815
9 13 4 -5.6048 -0.0111
9 13 5 3.4087 -0.0973
9 13 6 2.8116 0.1913
9 13 7 7.9086 -0.0502
9 13 8 3.5612 -0.0745
9 13 9 0.8581 -0.1003
9 13 10 -4.0397 0.2053
9 13 11 -3.6901 -0.2038
9 13 12 0.9176 0.0191
9 13 13 -0.3833 0.0119
9 13 14 -0.4062 0.1990
9 13 15 -0.0765 -0.0433
9 13 16 6.6599 -0.2378
9 13 17 3.1456 0.2554
9 13 18 -2.0180 -0.0391
9 13 19 1.0141 -0.0482
9 13 20 4.2970 -0.0336
9 14 0 -2.4672 0.0656
9 14 1 2.0832 -0.1736
9 14 2 -5.0015 -0.3235
9 14 3 -8.1452 -0.1192
9 14 4 -2.4557 0.2701
9 14 5 -3.2812 -0.1586
9 14 6 18.3306 0.0195
9 14 7 14.9170 0.2839
9 14 8 -0.2941 0.0124
9 14 9 -4.8685 -0.0600
9 14 10 -2.4680 -0.0348
9 14 11 0.4689 0.1945
9 14 12 4.9792 -0.2464
9 14 13 3.5774 0.0134
9 14 14 -7.1682 0.0825
9 14 15 -5.0286 0.0858
9 14 16 2.7989 -0.0378
9 14 17 11.5191 -0.2161
9 14 18 7.6873 0.3359
9 14 19 -1.9430 0.1018
9 15 0 -0.4103 0.3430
9 15 1 -5.3830 -0.0305
9 15 2 -8.3258 -0.1799
9 15 3 -6.9623 -0.2331
9 15 4 -8.2960 -0.0879
9 15 5 5.8927 0.1450
9 15 6 8.6629 -0.2549
9 15 7 15.9855 0.1380
9 15 8 7.4572 0.2928
9 15 9 -8.3703 -0.0404
9 15 10 -2.0107 -0.0509
9 15 11 5.3283 0.0364
9 15 12 2.2998 0.1084
9 15 13 2.0625 -0.2849
9 15 14 -1.4535 0.0199
9 15 15 -10.4289 0.1445
9 15 16 0.5743 -0.0690
9 15 17 11.4053 -0.1002
9 15 18 10.4809 -0.0855
9 16 5 -0.3860 -0.0186
9 16 6 3.9903 -0.0355
9 16 7 6.6323 -0.3053
9 16 8 6.1900 0.3193
9 16 9 7.0550 0.3623
9 16 10 0.3684 -0.1555
9 16 11 0.2284 -0.2348
9 16 15 0.7951 0.1308
9 16 16 -3.7801 0.0498
10 -13 0 0.3593 0.2988
10 -13 1 -3.9198 -0.2351
10 -13 2 -3.5764 -0.0893
10 -13 3 2.3083 -0.2257
10 -13 4 -1.4983 0.2074
10 -12 0 0.0878 0.3231
10 -12 1 9.3038 0.3314
10 -12 2 -0.3950 -0.4877
10 -12 3 -3.4158 -0.0861
10 -12 4 -1.5587 -0.0007
10 -12 5 -4.4218 0.0820
10 -12 6 -2.1531 0.1906
10 -12 7 6.9638 0.1849
10 -12 8 5.6860 0.0269
10 -12 9 5.1314 -0.2403
10 -12 10 1.3982 -0.2402
10 -11 0 0.9216 0.2961
10 -11 1 6.3289 0.2937
10 -11 2 4.6675 0.1789
10 -11 3 -8.8040 -0.4289
10 -11 4 -5.1071 0.0306
10 -11 5 0.8760 0.2201
10 -11 6 -0.9698 -0.1525
10 -11 7 -0.5254 0.0236
10 -11 8 6.3734 0.1314
10 -11 9 3.8204 0.0749
10 -11 10 4.9010 -0.1023
10 -11 11 1.7470 -0.0564
10 -11 12 2.1192 -0.0642
10 -11 13 1.8528 -0.0571
10 -11 14 -1.8933 -0.6314
10 -10 0 -7.4304 -0.7188
10 -10 1 0.0651 0.3034
10 -10 2 0.3386 0.3350
10 -10 3 -0.1333 0.1276
10 -10 4 -3.4739 -0.1331
10 -10 5 0.7995 -0.0071
10 -10 6 2.4213 0.1236
10 -10 7 -2.3039 -0.3068
10 -10 8 -0.9757 0.0621
10 -10 9 6.7023 0.2125
10 -10 10 5.0364 0.0810
10 -10 11 3.8248 -0.1518
10 -10 12 0.6023 -0.0072
10 -10 13 -3.4843 -0.0585
10 -10 14 -0.9919 -0.0861
10 -10 15 -3.3888 -0.5843
10 -9 0 -6.3937 -0.0118
10 -9 1 -9.0006 -0.5479
10 -9 2 7.3644 0.2243
10 -9 3 4.0311 0.2930
10 -9 4 -0.8983 -0.0536
10 -9 5 1.2234 -0.0151
10 -9 6 3.2059 -0.0281
10 -9 7 3.7974 0.1968
10 -9 8 -2.9556 -0.1718
10 -9 9 0.2124 0.0161
10 -9 10 7.9379 0.0410
10 -9 11 6.4880 0.0319
10 -9 12 0.2075 -0.0441
10 -9 13 -4.4902 0.0910
10 -9 14 -9.5802 -0.0147
10 -9 15 -1.8208 -0.0904
10 -8 0 -2.4744 0.1881
10 -8 1 -1.4255 0.0682
10 -8 2 -0.2896 -0.5054
10 -8 3 6.6338 -0.0584
10 -8 4 4.0743 0.1717
10 -8 5 2.7963 -0.0581
10 -8 6 8.4694 0.1530
10 -8 7 2.1362 0.0381
10 -8 8 0.0482 0.1608
10 -8 9 -3.5367 -0.2040
10 -8 10 4.6734 -0.0696
10 -8 11 8.7137 0.0904
10 -8 12 2.8180 0.1366
10 -8 13 -5.7930 0.0034
10 -8 14 -7.1707 -0.0016
10 -8 15 -8.3849 0.0257
10 -8 16 -0.6502 0.0531
10 -7 0 6.8652 0.1066
10 -7 1 -8.5376 0.2738
10 -7 2 -5.2661 0.0384
10 -7 3 3.5124 -0.4084
10 -7 4 12.3631 -0.0562
10 -7 5 11.5543 0.1543
10 -7 6 0.5872 -0.0681
10 -7 7 0.9648 0.0646
10 -7 8 -2.4948 -0.0287
10 -7 9 4.3135 0.1418
10 -7 10 1.2945 -0.0731
10 -7 11 2.0597 0.0070
10 -7 12 2.2220 0.1376
10 -7 13 -0.2698 0.0291
10 -7 14 -3.8393 -0.0730
10 -7 15 -5.2944 -0.0125
10 -7 16 -6.1061 0.0815
10 -7 17 -0.0417 0.0886
10 -7 18 7.1015 -0.0745
10 -6 0 4.5538 -0.5825
10 -6 1 -5.7492 0.0542
10 -6 2 -11.5784 0.2901
10 -6 3 3.8560 0.1731
10 -6 4 12.7053 -0.2568
10 -6 5 7.0943 0.0179
10 -6 6 1.1717 0.0394
10 -6 7 -3.6287 -0.1714
10 -6 8 4.8441 -0.0098
10 -6 9 1.2386 0.0535
10 -6 10 2.1863 0.1876
10 -6 11 -3.7028 -0.0210
10 -6 12 -1.4258 -0.0694
10 -6 13 4.4923 0.0657
10 -6 14 1.8839 -0.0255
10 -6 15 -3.5288 -0.0444
10 -6 16 -4.6821 0.0253
10 -6 17 -0.3325 0.0197
10 -6 18 4.3614 0.0083
10 -6 19 7.7716 0.0682
10 -6 20 -2.5203 -0.0978
10 -5 0 0.0600 -0.7245
10 -5 1 0.3129 -0.5950
10 -5 2 -2.6990 0.0953
10 -5 3 -8.2739 0.1493
10 -5 4 1.5164 0.2524
10 -5 5 6.7484 -0.1602
10 -5 6 3.2493 0.0923
10 -5 7 3.3092 0.0100
10 -5 8 -0.3238 -0.1381
10 -5 9 1.9546 -0.0010
10 -5 10 -3.6727 0.0403
10 -5 11 0.9795 0.0430
10 -5 12 1.2382 -0.0533
10 -5 13 0.7015 -0.0454
10 -5 14 2.4414 0.0715
10 -5 15 0.3517 0.0018
10 -5 16 -0.7047 -0.0282
10 -5 17 1.3371 0.0044
10 -5 18 4.3836 -0.0416
10 -5 19 2.3121 -0.0467
10 -5 20 1.8282 0.1647
10 -5 21 -6.6799 -0.0665
10 -5 22 -8.3672 -0.1082
10 -4 0 1.0955 0.9189
10 -4 1 -1.5164 -0.5486
10 -4 2 -7.0969 -0.6308
10 -4 3 -8.5487 0.1852
10 -4 4 -5.3770 -0.0399
10 -4 5 9.4875 0.1764
10 -4 6 8.4858 -0.0614
10 -4 7 -2.6642 0.2233
10 -4 8 -3.5396 0.0395
10 -4 9 -0.7432 -0.1271
10 -4 10 6.3926 -0.0664
10 -4 11 1.1919 -0.0140
10 -4 12 0.1602 0.0112
10 -4 13 -0.6482 0.0040
10 -4 14 0.2274 0.0152
10 -4 15 3.3084 0.0046
10 -4 16 4.3412 0.0096
10 -4 17 1.8677 0.0335
10 -4 18 -0.5331 -0.0071
10 -4 19 2.6872 -0.0724
10 -4 20 2.0425 -0.0434
10 -4 21 2.7226 0.1570
10 -4 22 -4.0229 -0.0635
10 -4 23 -5.8916 -0.1214
10 -3 0 -1.1224 0.4873
10 -3 1 -10.7458 0.7788
10 -3 2 -8.4800 -0.2595
10 -3 3 -3.7571 -0.5764
10 -3 4 3.6710 0.2109
10 -3 5 2.1893 -0.1880
10 -3 6 2.7401 0.0629
10 -3 7 -4.3769 0.0135
10 -3 8 -4.1574 0.2086
10 -3 9 5.8920 -0.0296
10 -3 10 5.2867 -0.0320
10 -3 11 2.7228 0.0663
10 -3 12 -4.5514 -0.0053
10 -3 13 -1.0738 -0.0397
10 -3 14 4.1671 -0.0339
10 -3 15 5.5718 0.0614
10 -3 16 1.8820 -0.0136
10 -3 17 0.9111 0.0016
10 -3 18 0.8072 0.0482
10 -3 19 -1.0331 -0.0262
10 -3 20 7.5142 -0.0583
10 -3 21 6.9403 0.0440
10 -3 22 2.9355 0.0611
10 -3 23 -4.9642 -0.1035
10 -3 24 -6.1203 0.0201
10 -2 0 -6.4310 0.3259
10 -2 1 -5.7235 0.6493
10 -2 2 -1.9487 0.4731
10 -2 3 3.9667 -0.0843
10 -2 4 -2.3931 -0.3328
10 -2 5 -4.3067 0.2264
10 -2 6 -5.7394 -0.2786
10 -2 7 3.6285 -0.1200
10 -2 8 3.9452 -0.0380
10 -2 9 0.4902 0.2007
10 -2 10 0.6982 0.0598
10 -2 11 -3.8289 0.0939
10 -2 12 0.6951 0.1071
10 -2 13 2.1070 -0.1141
10 -2 14 4.8570 -0.0468
10 -2 15 3.1128 0.0293
10 -2 16 1.5584 0.0709
10 -2 17 0.1668 -0.1179
10 -2 18 1.6916 -0.0573
10 -2 19 4.9784 0.0764
10 -2 20 0.9587 0.0226
10 -2 21 8.0333 -0.0886
10 -2 22 6.1649 0.0337
10 -2 23 0.5345 0.0226
10 -2 24 -2.5852 -0.0288
10 -2 25 -1.8302 0.2359
10 -1 0 -3.9861 -0.6637
10 -1 1 -0.9195 0.1484
10 -1 2 4.9622 0.6009
10 -1 3 -1.4683 0.2348
10 -1 4 -5.5726 0.0588
10 -1 5 -7.5651 -0.0443
10 -1 6 1.8690 0.0912
10 -1 7 1.0442 -0.3289
10 -1 8 1.8690 -0.0773
10 -1 9 -0.8290 0.0317
10 -1 10 -5.2733 0.1228
10 -1 11 -0.1438 -0.0105
10 -1 12 0.6465 0.0270
10 -1 13 4.3118 0.1500
10 -1 14 3.4441 -0.0692
10 -1 15 2.8495 -0.0048
10 -1 16 0.2343 0.0231
10 -1 17 0.9108 -0.0208
10 -1 18 4.6588 -0.1664
10 -1 19 2.6125 -0.0079
10 -1 20 3.1736 0.0440
10 -1 21 -0.6721 -0.0297
10 -1 22 5.4424 -0.1060
10 -1 23 7.7093 0.0594
10 -1 24 1.3468 0.1326
10 -1 25 -0.5543 -0.0480
10 -1 26 -1.6299 0.1412
10 0 0 3.2190 -0.5331
10 0 1 -2.2564 -0.4393
10 0 2 -6.5369 0.0828
10 0 3 0.1204 0.3799
10 0 4 -2.1492 0.0675
10 0 5 0.0831 0.0422
10 0 6 -2.9341 0.1540
10 0 7 -2.0363 0.1182
10 0 8 -6.4469 -0.1685
10 0 9 -1.4885 -0.0100
10 0 10 5.2507 -0.0621
10 0 11 -1.6880 -0.1112
10 0 12 -0.6053 -0.0427
10 0 13 1.7137 0.0596
10 0 14 4.8704 0.1843
10 0 15 3.9484 -0.0405
10 0 16 0.3362 -0.0039
10 0 17 -1.4202 0.0279
10 0 18 1.2095 -0.0436
10 0 19 6.4014 -0.1451
10 0 20 0.5768 0.0450
10 0 21 -1.3811 -0.0052
10 0 22 1.3856 -0.0699
10 0 23 5.0963 -0.0529
10 0 24 5.4644 -0.0052
10 0 25 -2.7989 0.1412
10 0 26 -1.6801 -0.0666
10 0 27 0.3004 0.0541
10 1 0 8.0717 0.5679
10 1 1 -8.2343 -0.4891
10 1 2 -2.3722 -0.3036
10 1 3 -0.2558 0.0259
10 1 4 2.6381 0.0344
10 1 5 -7.5007 0.0144
10 1 6 -7.2838 0.1071
10 1 7 -4.8091 0.3009
10 1 8 -0.1005 0.1183
10 1 9 0.6947 -0.1312
10 1 10 -0.7194 -0.0531
10 1 11 1.9279 -0.0622
10 1 12 -1.5622 -0.1728
10 1 13 2.4500 -0.0089
10 1 14 5.3030 0.0761
10 1 15 1.8860 0.0941
10 1 16 -0.7304 -0.0354
10 1 17 -2.1895 0.0379
10 1 18 0.2210 0.0705
10 1 19 2.9349 0.0132
10 1 20 3.7139 -0.0600
10 1 21 -0.6646 0.0450
10 1 22 -3.3942 -0.0704
10 1 23 2.6834 -0.1078
10 1 24 0.8749 0.0169
10 1 25 -1.3164 -0.0316
10 1 26 -3.5990 0.1130
10 1 27 1.2259 0.0242
10 2 0 -2.0395 -0.2718
10 2 1 6.3558 0.5597
10 2 2 -0.6083 -0.3354
10 2 3 5.0159 -0.3082
10 2 4 -6.4757 0.0431
10 2 5 -11.7091 -0.1106
10 2 6 -10.7509 0.0247
10 2 7 1.1702 0.0723
10 2 8 4.5629 0.2191
10 2 9 -2.2444 0.0171
10 2 10 -2.3493 -0.0441
10 2 11 -3.3070 0.0151
10 2 12 2.4700 0.0324
10 2 13 3.5261 -0.1598
10 2 14 1.4381 -0.0375
10 2 15 0.1853 0.0348
10 2 16 -1.0609 -0.0348
10 2 17 0.5860 0.0023
10 2 18 -0.3394 0.1435
10 2 19 -0.2397 0.1145
10 2 20 2.5680 -0.0033
10 2 21 0.6250 -0.0578
10 2 22 -0.5950 0.0168
10 2 23 -4.1916 -0.0218
10 2 24 0.4349 -0.0182
10 2 25 -1.9959 0.0155
10 2 26 -3.9641 -0.0912
10 2 27 -0.1157 0.0189
10 2 28 4.2793 0.1601
10 3 0 -1.7026 -0.2959
10 3 1 -7.5648 -0.3187
10 3 2 10.0784 0.4099
10 3 3 -0.9444 -0.1489
10 3 4 -2.3383 -0.2813
10 3 5 -5.8521 0.1085
10 3 6 -4.8020 -0.1450
10 3 7 -3.0922 -0.0593
10 3 8 -1.7345 -0.0634
10 3 9 0.4217 0.1322
10 3 10 -2.6466 -0.0057
10 3 11 0.6891 0.1027
10 3 12 -2.4701 0.0847
10 3 13 -1.0673 0.0192
10 3 14 2.5970 -0.1586
10 3 15 1.2463 -0.0722
10 3 16 -1.4155 0.0370
10 3 17 -0.1107 -0.0639
10 3 18 2.0747 0.0288
10 3 19 0.0951 0.0966
10 3 20 -1.7786 0.0342
10 3 21 2.6523 -0.0249
10 3 22 -0.3115 0.0231
10 3 23 -1.0372 0.0799
10 3 24 -3.8665 -0.0355
10 3 25 -2.0925 0.0006
10 3 26 -1.0808 -0.0424
10 3 27 -0.7789 -0.0812
10 3 28 4.2736 -0.0157
10 4 0 -4.4739 -0.0317
10 4 1 -2.6257 -0.3673
10 4 2 -9.3441 -0.2565
10 4 3 10.0803 0.2491
10 4 4 5.1795 -0.0275
10 4 5 1.7740 -0.1937
10 4 6 0.5302 0.1320
10 4 7 -3.8610 -0.1714
10 4 8 -4.5018 -0.1005
10 4 9 -4.3036 -0.1069
10 4 10 2.3009 0.1188
10 4 11 -1.3807 -0.0067
10 4 12 -1.3560 0.1245
10 4 13 -0.5684 0.0612
10 4 14 1.7617 -0.0411
10 4 15 0.5940 -0.0739
10 4 16 -2.5922 -0.0209
10 4 17 -3.0869 0.0512
10 4 18 3.6713 -0.1205
10 4 19 5.7667 -0.0291
10 4 20 -1.4527 0.0086
10 4 21 -4.5488 0.0297
10 4 22 2.8563 0.0309
10 4 23 1.0784 0.0155
10 4 24 -2.6776 0.0829
10 4 25 -3.5085 -0.0745
10 4 26 0.0395 0.0699
10 4 27 3.8561 -0.0306
10 4 28 2.9789 -0.1533
10 5 0 7.4355 0.6717
10 5 1 -4.8498 0.0961
10 5 2 2.9234 -0.3808
10 5 3 2.0150 -0.1230
10 5 4 9.1836 0.1886
10 5 5 3.3413 -0.0260
10 5 6 1.3906 -0.1433
10 5 7 6.2585 0.1515
10 5 8 -0.3271 -0.1325
10 5 9 -5.2296 -0.0375
10 5 10 -6.9672 -0.0715
10 5 11 1.3762 0.0550
10 5 12 3.3372 -0.0479
10 5 13 3.7314 0.0636
10 5 14 -0.1636 0.0527
10 5 15 -2.8968 -0.0284
10 5 16 -5.9245 0.0399
10 5 17 -0.8484 0.0070
10 5 18 3.2955 0.0365
10 5 19 4.3979 -0.1510
10 5 20 3.0131 -0.0304
10 5 21 -4.3665 -0.0067
10 5 22 -4.3397 0.0148
10 5 23 2.8596 0.0809
10 5 24 0.9124 -0.0173
10 5 25 -2.4105 0.1012
10 5 26 0.0397 -0.0797
10 5 27 4.0265 0.0562
10 6 0 5.4743 0.3982
10 6 1 15.3581 0.5024
10 6 2 0.1070 0.1540
10 6 3 3.2261 -0.2327
10 6 4 3.0538 -0.0227
10 6 5 1.3924 0.1362
10 6 6 3.5370 -0.0816
10 6 7 7.8496 -0.1133
10 6 8 7.6552 0.1911
10 6 9 -5.1637 -0.0640
10 6 10 -4.4125 0.0129
10 6 11 0.5382 -0.0016
10 6 12 3.2990 -0.0470
10 6 13 1.1839 -0.1113
10 6 14 0.3180 0.0291
10 6 15 -3.8930 0.1127
10 6 16 -1.5040 0.0201
10 6 17 -2.3572 0.0846
10 6 18 -0.2054 -0.0307
10 6 19 2.6942 0.0233
10 6 20 0.5091 -0.1062
10 6 21 1.4928 0.0365
10 6 22 -4.2777 0.0521
10 6 23 -5.4173 -0.0335
10 6 24 2.4154 0.0945
10 6 25 2.4388 -0.0592
10 6 26 0.2217 0.0507
10 6 27 -0.2188 -0.0185
10 7 0 7.0700 -0.8784
10 7 1 8.2022 0.3996
10 7 2 4.9829 0.3667
10 7 3 -3.6492 0.0597
10 7 4 2.3651 -0.0461
10 7 5 4.4657 0.0267
10 7 6 -0.3343 0.0485
10 7 7 3.8375 -0.1154
10 7 8 7.1291 -0.0668
10 7 9 4.2998 0.2028
10 7 10 -2.5275 -0.0039
10 7 11 1.4351 -0.0246
10 7 12 -0.0733 0.0211
10 7 13 -5.2348 -0.0969
10 7 14 -1.4365 -0.0914
10 7 15 4.9632 0.0712
10 7 16 -2.9969 0.1271
10 7 17 -2.6074 -0.0605
10 7 18 -0.7435 0.0391
10 7 19 -1.0357 -0.0274
10 7 20 1.8992 0.0770
10 7 21 -1.8353 0.0116
10 7 22 -1.0914 0.0765
10 7 23 -2.6455 0.0315
10 7 24 -4.2098 -0.1774
10 7 25 2.4926 0.0622
10 7 26 0.6426 0.0156
10 7 27 -1.0582 0.0629
10 8 0 -3.3259 -0.2984
10 8 1 7.4499 -0.7751
10 8 2 -0.9945 0.2713
10 8 3 -7.3116 0.2686
10 8 4 0.0617 -0.1305
10 8 5 6.5183 0.0613
10 8 6 1.7955 0.0699
10 8 7 -1.7058 -0.0146
10 8 8 6.6386 -0.0751
10 8 9 4.3646 0.0047
10 8 10 -1.9600 0.0764
10 8 11 -2.1467 -0.0381
10 8 12 1.5433 -0.0352
10 8 13 -0.6404 0.0920
10 8 14 -4.2082 -0.0282
10 8 15 -0.4568 -0.0861
10 8 16 2.9510 -0.0062
10 8 17 -5.0863 0.0511
10 8 18 -0.6951 -0.1185
10 8 19 4.4349 0.0603
10 8 20 -1.7422 0.0460
10 8 21 -2.1190 0.0938
10 8 22 -1.2369 0.0447
10 8 23 0.0142 -0.0362
10 8 24 -0.0401 -0.1070
10 8 25 -5.9929 -0.2122
10 8 26 -1.7848 0.1995
10 9 0 -7.9802 0.4543
10 9 1 -1.6585 -0.2963
10 9 2 5.5813 -0.4931
10 9 3 -6.3992 0.0560
10 9 4 -10.3346 0.1541
10 9 5 5.7387 -0.2113
10 9 6 8.6504 0.1482
10 9 7 -0.4000 0.1175
10 9 8 -2.7874 -0.0594
10 9 9 2.2136 -0.0834
10 9 10 -4.1786 0.0463
10 9 11 -3.9937 -0.0161
10 9 12 6.3624 -0.0419
10 9 13 3.6572 0.0360
10 9 14 -3.8072 0.0822
10 9 15 -5.3352 -0.0112
10 9 16 -1.9024 -0.0754
10 9 17 2.8570 -0.0696
10 9 18 -1.2231 0.0237
10 9 19 1.2041 -0.0825
10 9 20 3.7443 0.0951
10 9 21 -1.0889 0.0718
10 9 22 -1.4498 -0.0123
10 9 23 1.0479 -0.0573
10 9 24 -1.2521 -0.1521
10 9 25 -2.0542 -0.0683
10 10 0 -14.7258 0.9203
10 10 1 -4.5353 0.4434
10 10 2 8.2691 -0.4403
10 10 3 3.9548 -0.1445
10 10 4 -11.2385 0.0011
10 10 5 -7.8257 0.0788
10 10 6 11.2944 -0.1734
10 10 7 4.9216 0.1281
10 10 8 -8.6046 0.0606
10 10 9 -8.9639 -0.0083
10 10 10 -0.4466 -0.0182
10 10 11 1.8906 0.0588
10 10 12 1.6333 -0.0423
10 10 13 4.9079 -0.1165
10 10 14 -3.6415 0.1058
10 10 15 -5.5240 0.0891
10 10 16 -0.4712 -0.0101
10 10 17 -0.2608 -0.0314
10 10 18 2.2373 -0.0691
10 10 19 -0.5224 0.0581
10 10 20 0.2864 0.0052
10 10 21 1.9707 0.0414
10 10 22 1.5776 -0.0553
10 11 0 -5.7407 -0.3597
10 11 1 -7.0121 0.5393
10 11 2 4.5785 0.4643
10 11 3 10.7523 -0.4063
10 11 4 -5.2904 0.1284
10 11 5 -13.1267 -0.0101
10 11 6 -1.1404 -0.0753
10 11 7 9.8840 -0.1053
10 11 8 -6.4439 0.1748
10 11 9 -14.4278 0.0335
10 11 10 -3.7571 0.0429
10 11 11 4.5347 0.0005
10 11 12 5.7201 -0.0576
10 11 13 -4.0730 0.0539
10 11 14 -4.5655 -0.1281
10 11 15 -1.9312 0.1087
10 11 16 1.0749 0.0622
10 11 17 1.2041 -0.0560
10 11 18 -3.1924 0.0754
10 11 19 -0.1105 0.0288
10 11 20 -2.8516 0.0352
10 11 21 -3.3538 -0.0191
10 12 0 -1.7502 -0.7553
10 12 1 2.4491 -0.1311
10 12 2 -0.4186 0.2312
10 12 3 2.0721 0.3857
10 12 4 4.1061 -0.3198
10 12 5 -9.0424 0.1270
10 12 6 -8.8659 0.0183
10 12 7 0.6941 -0.0759
10 12 8 2.6113 -0.0444
10 12 9 -9.3612 0.1761
10 12 10 -9.6740 -0.0538
10 12 11 2.9541 -0.0070
10 12 12 1.9292 0.1097
10 12 13 -0.2023 -0.1430
10 12 14 -8.2860 0.1219
10 12 15 -4.6499 -0.1786
10 12 16 6.1420 -0.0240
10 12 17 3.3221 0.0806
10 12 18 -5.7664 -0.0295
10 12 19 -9.1747 0.1311
10 12 20 -3.1029 0.0473
10 13 0 -4.0372 -0.5164
10 13 1 4.4695 -0.7381
10 13 2 2.2019 0.0339
10 13 3 2.7745 0.0133
10 13 4 1.4271 0.1694
10 13 5 -3.1959 -0.1499
10 13 6 -10.9734 0.0650
10 13 7 -4.6455 0.0050
10 13 8 3.1794 -0.0313
10 13 9 1.4940 -0.0748
10 13 10 -4.1953 0.1521
10 13 11 -7.9421 -0.0496
10 13 12 0.4522 -0.1117
10 13 13 -0.8596 0.2142
10 13 14 -1.9905 -0.2206
10 13 15 -3.8525 0.0682
10 13 16 -0.8420 -0.1630
10 13 17 5.8387 -0.1573
10 13 18 -3.3932 0.1002
10 13 19 -13.3222 0.0392
10 14 0 -10.0801 0.8701
10 14 1 -0.3567 -0.3408
10 14 2 11.7793 -0.6014
10 14 3 5.0541 0.1129
10 14 4 1.7025 0.0266
10 14 5 -5.1766 -0.0928
10 14 6 -11.7407 -0.1210
10 14 7 -4.3083 0.0543
10 14 8 7.0183 0.0404
10 14 9 5.0494 0.0925
10 14 10 -3.2936 -0.1371
10 14 11 -2.6964 0.0201
10 14 12 -6.7234 -0.0160
10 14 13 0.5335 -0.1812
10 14 14 4.1479 0.3071
10 14 15 -0.8066 -0.1906
10 14 16 -3.7336 -0.0539
10 14 17 -3.0631 -0.1137
10 14 18 0.8058 -0.2131
10 15 0 -4.8677 0.6534
10 15 1 -1.3836 0.8477
10 15 13 -0.1866 0.0976
10 15 14 0.5320 -0.1699
10 15 15 5.0723 0.3037
10 15 16 -3.5965 -0.0834
11 -13 1 -8.2196 -0.2628
11 -12 0 -0.8746 0.2609
11 -12 1 -10.8712 0.5669
11 -12 2 -4.8480 -0.0605
11 -12 3 12.2418 -0.2323
11 -12 4 13.2735 0.1214
11 -12 5 3.9018 -0.2951
11 -12 6 -3.9032 -0.1216
11 -12 7 -6.0976 0.0872
11 -11 0 10.3696 0.0301
11 -11 1 -0.5499 0.5337
11 -11 2 -3.5985 0.3401
11 -11 3 3.3502 -0.1267
11 -11 4 11.4652 -0.3307
11 -11 5 8.1094 0.2146
11 -11 6 -2.6157 -0.1244
11 -11 7 -5.2451 -0.0296
11 -11 8 -5.1502 -0.0370
11 -11 9 -1.3717 0.0074
11 -10 0 9.3606 -0.6639
11 -10 1 7.4483 -0.1730
11 -10 2 -2.8269 0.3662
11 -10 3 -4.0441 0.0214
11 -10 4 4.4504 0.0722
11 -10 5 7.5870 0.0251
11 -10 6 3.2365 0.3159
11 -10 7 -7.0964 -0.2209
11 -10 8 -5.1494 -0.2531
11 -10 9 -5.5203 -0.1151
11 -9 0 6.9684 -0.2559
11 -9 1 2.7805 -0.7233
11 -9 2 -7.1753 -0.2523
11 -9 3 -2.1136 0.4590
11 -9 4 1.6424 0.0851
11 -9 5 4.6255 0.1179
11 -9 6 -0.1586 0.0047
11 -9 7 -3.4993 0.0899
11 -9 8 -7.7663 -0.1989
11 -9 9 -2.7921 -0.0748
11 -9 10 -5.5373 0.0851
11 -8 0 -0.6816 0.4575
11 -8 1 2.4897 -0.1694
11 -8 2 -1.1394 -0.3501
11 -8 3 -7.7308 -0.0712
11 -8 4 -0.8286 0.2961
11 -8 5 -0.3403 -0.1340
11 -8 6 2.1367 -0.0737
11 -8 7 -0.6475 0.0692
11 -8 8 -2.9747 0.1655
11 -8 9 -6.1470 0.0022
11 -8 10 -2.3416 -0.0467
11 -8 11 -2.8447 0.0029
11 -8 12 1.9725 -0.1210
11 -8 13 7.8742 -0.0894
11 -7 0 -5.1893 0.2302
11 -7 1 9.8550 0.5607
11 -7 2 0.0867 0.1063
11 -7 3 -8.6168 -0.2200
11 -7 4 -9.8746 -0.1058
11 -7 5 1.5655 0.0560
11 -7 6 6.5570 -0.1578
11 -7 7 5.5431 -0.0104
11 -7 8 -2.9898 0.1409
11 -7 9 -5.3428 0.0593
11 -7 10 -0.6171 -0.0167
11 -7 11 2.6103 -0.0708
11 -7 12 -0.5151 0.0459
11 -7 13 -0.8237 -0.0197
11 -7 14 6.8874 -0.0134
11 -7 15 -1.8074 -0.0737
11 -6 0 1.0613 -0.6388
11 -6 1 -1.0497 0.2192
11 -6 2 3.1750 0.4437
11 -6 3 -5.6385 0.1850
11 -6 4 -5.3655 -0.1679
11 -6 5 0.7494 -0.0276
11 -6 6 4.4007 0.0473
11 -6 7 2.8743 -0.1204
11 -6 8 2.4159 -0.0484
11 -6 9 0.2177 0.0336
11 -6 10 0.6486 -0.0354
11 -6 11 4.8453 0.0694
11 -6 12 -0.9314 0.0368
11 -6 13 -4.0554 0.0581
11 -6 14 -1.3643 0.0198
11 -6 15 5.9352 -0.0296
11 -6 16 -5.2732 -0.1478
11 -6 17 -9.0972 0.0431
11 -5 0 2.1102 -0.2213
11 -5 1 -0.3955 -0.8401
11 -5 2 -0.6119 0.2662
11 -5 3 6.2443 0.2105
11 -5 4 1.3693 0.1017
11 -5 5 -7.3690 -0.0322
11 -5 6 -4.8006 0.0787
11 -5 7 3.3752 0.0571
11 -5 8 7.3545 -0.1416
11 -5 9 6.5305 -0.0600
11 -5 10 0.0531 0.0423
11 -5 11 -2.5263 -0.0013
11 -5 12 4.6167 0.0614
11 -5 13 -0.4454 0.0247
11 -5 14 -2.7050 -0.0334
11 -5 15 -2.3250 -0.0068
11 -5 16 0.1242 0.0052
11 -5 17 -5.5845 -0.1394
11 -5 18 -5.0775 0.0503
11 -5 19 -0.4633 0.0689
11 -4 0 6.7874 0.6463
11 -4 1 9.2742 -0.0116
11 -4 2 6.3316 -0.8505
11 -4 3 1.3583 0.2193
11 -4 4 -3.3742 -0.0014
11 -4 5 -5.6107 -0.0353
11 -4 6 -5.2531 0.1006
11 -4 7 3.0424 0.1144
11 -4 8 8.5483 0.0924
11 -4 9 1.4815 -0.0816
11 -4 10 -2.4280 0.0029
11 -4 11 0.5558 0.0147
11 -4 12 4.8614 -0.0400
11 -4 13 7.7801 -0.0257
11 -4 14 -2.9769 0.0119
11 -4 15 -5.9783 -0.0731
11 -4 16 -3.3628 -0.0520
11 -4 17 0.6500 0.0850
11 -4 18 -0.2884 -0.0468
11 -4 19 -3.8711 -0.0096
11 -4 20 -9.4067 0.0205
11 -3 0 6.6922 1.2498
11 -3 1 17.7021 0.4656
11 -3 2 5.5486 0.1192
11 -3 3 -10.3837 -0.6321
11 -3 4 -4.9796 0.1421
11 -3 5 1.1429 -0.1119
11 -3 6 4.3919 -0.1707
11 -3 7 0.7640 0.1848
11 -3 8 -4.8851 0.1344
11 -3 9 -0.2702 0.0900
11 -3 10 1.4104 -0.0840
11 -3 11 4.9976 0.0554
11 -3 12 7.0527 -0.0101
11 -3 13 3.0813 -0.0593
11 -3 14 0.2639 -0.0433
11 -3 15 -4.6719 0.0269
11 -3 16 -1.5815 -0.0448
11 -3 17 -1.0006 -0.0511
11 -3 18 1.4329 0.1097
11 -3 19 -0.0013 -0.0114
11 -3 20 -8.8248 -0.1396
11 -3 21 -15.5486 -0.0169
11 -3 22 -5.5650 0.0400
11 -2 0 11.0478 -0.4936
11 -2 1 7.8164 1.3125
11 -2 2 1.9598 0.3015
11 -2 3 -3.5372 0.0725
11 -2 4 -7.0530 -0.3327
11 -2 5 4.7118 0.1228
11 -2 6 2.6732 -0.0849
11 -2 7 -3.2710 -0.2262
11 -2 8 -0.5474 0.1376
11 -2 9 -1.7004 0.0099
11 -2 10 5.3102 0.0385
11 -2 11 4.5189 -0.0146
11 -2 12 2.5742 0.1603
11 -2 13 1.3054 -0.0393
11 -2 14 -1.3855 -0.0745
11 -2 15 0.3346 0.0502
11 -2 16 -1.4112 0.0813
11 -2 17 0.5435 -0.0690
11 -2 18 -2.2766 -0.0924
11 -2 19 2.3516 0.0654
11 -2 20 0.2521 0.0428
11 -2 21 -11.5557 -0.1158
11 -2 22 -12.6911 -0.0317
11 -2 23 1.6020 0.0802
11 -1 0 -2.0152 -1.3767
11 -1 1 9.2021 -0.4403
11 -1 2 7.9434 1.0443
11 -1 3 -1.1677 0.0915
11 -1 4 -0.4463 -0.0368
11 -1 5 -9.0561 0.0478
11 -1 6 -2.7614 0.1979
11 -1 7 5.9540 -0.1418
11 -1 8 5.7013 -0.3094
11 -1 9 6.2684 0.0988
11 -1 10 -3.8309 -0.0515
11 -1 11 -1.4627 0.0307
11 -1 12 1.3446 0.0510
11 -1 13 1.9851 0.1846
11 -1 14 -1.6419 -0.0438
11 -1 15 -5.2465 -0.0471
11 -1 16 1.7682 0.0706
11 -1 17 1.5650 0.0305
11 -1 18 0.9200 -0.1009
11 -1 19 -1.2045 -0.0051
11 -1 20 3.4671 0.1020
11 -1 21 -1.0465 -0.0103
11 -1 22 -12.2970 -0.1063
11 -1 23 -5.5713 -0.0657
11 0 0 0.7086 -0.5014
11 0 1 7.7242 -1.1756
11 0 2 10.9520 -0.2859
11 0 3 2.5181 0.6578
11 0 4 -12.0931 -0.0090
11 0 5 -0.4805 -0.0657
11 0 6 1.9866 0.2157
11 0 7 4.8025 0.1474
11 0 8 11.1321 -0.1628
11 0 9 1.0907 -0.1779
11 0 10 -2.6980 0.1598
11 0 11 -4.8433 -0.1316
11 0 12 1.2004 -0.0296
11 0 13 1.0249 0.0890
11 0 14 -2.4983 0.1220
11 0 15 -5.8148 -0.1199
11 0 16 -4.1613 -0.0441
11 0 17 7.0497 0.0908
11 0 18 3.3862 0.0658
11 0 19 -2.2999 -0.0737
11 0 20 -1.3015 -0.0161
11 0 21 2.2472 0.0664
11 0 22 -1.9537 -0.0939
11 0 23 -6.8188 -0.0041
11 0 24 4.6792 -0.0213
11 1 0 -1.2874 0.5441
11 1 1 9.0552 -0.3347
11 1 2 3.1073 -0.9149
11 1 3 -5.1919 -0.0483
11 1 4 2.3067 0.2937
11 1 5 2.2866 -0.1568
11 1 6 10.1956 -0.0617
11 1 7 5.4368 0.2585
11 1 8 -2.7097 0.1253
11 1 9 4.2873 -0.0533
11 1 10 1.0388 -0.0057
11 1 11 -0.5759 0.1409
11 1 12 -2.6392 -0.2022
11 1 13 0.5178 -0.1088
11 1 14 -0.8225 0.0368
11 1 15 -2.4709 0.0464
11 1 16 -4.3325 -0.0981
11 1 17 -1.5709 0.0628
11 1 18 6.5966 0.0886
11 1 19 1.1444 -0.0267
11 1 20 -4.8764 -0.0729
11 1 21 -1.3451 0.0132
11 1 22 2.7045 0.1109
11 1 23 0.3899 -0.1516
11 1 24 1.4102 -0.0185
11 1 25 9.5528 0.0064
11 2 0 -1.2271 0.6886
11 2 1 -3.1846 0.3132
11 2 2 0.9314 -0.0731
11 2 3 1.3439 -0.6502
11 2 4 1.2915 0.0427
11 2 5 11.3948 0.0295
11 2 6 3.3024 -0.2027
11 2 7 -0.8691 0.0555
11 2 8 4.5512 0.2449
11 2 9 2.9821 0.0427
11 2 10 3.2472 0.0121
11 2 11 -0.0838 0.0855
11 2 12 0.3496 0.0515
11 2 13 -1.1500 -0.1948
11 2 14 3.3209 -0.0828
11 2 15 0.8248 0.0475
11 2 16 -3.2088 0.0471
11 2 17 -5.0011 -0.0923
11 2 18 0.0182 0.0666
11 2 19 4.5831 0.1010
11 2 20 -1.8100 -0.0379
11 2 21 -4.6540 0.0038
11 2 22 -0.9262 0.0042
11 2 23 4.1765 0.0210
11 2 24 2.7482 -0.1540
11 2 25 5.6442 0.0652
11 3 0 -6.8307 0.0297
11 3 1 -3.7647 0.6258
11 3 2 -4.0766 0.0651
11 3 3 -0.1614 0.0971
11 3 4 1.8198 -0.3781
11 3 5 0.5903 0.0571
11 3 6 3.8415 -0.0415
11 3 7 -1.8465 -0.1358
11 3 8 -1.3483 0.0912
11 3 9 8.7467 0.1032
11 3 10 4.4141 -0.0871
11 3 11 -0.5989 0.0271
11 3 12 1.3150 0.1785
11 3 13 4.3068 0.0372
11 3 14 -2.6546 -0.1050
11 3 15 2.8653 -0.0209
11 3 16 3.6924 0.0193
11 3 17 -2.5842 0.0179
11 3 18 -5.6506 -0.0284
11 3 19 -0.5688 0.1052
11 3 20 2.1665 0.1107
11 3 21 -4.5913 -0.0932
11 3 22 -1.7969 0.0088
11 3 23 0.4286 0.0384
11 3 24 4.5389 0.0120
11 3 25 2.8977 -0.0807
11 4 0 -3.7671 -0.2459
11 4 1 -12.3071 -0.1446
11 4 2 -5.8617 0.4834
11 4 3 -9.0920 -0.0679
11 4 4 -6.3658 0.1411
11 4 5 0.2151 -0.1180
11 4 6 1.3031 0.0754
11 4 7 -3.9551 -0.0688
11 4 8 -9.1137 -0.1370
11 4 9 -0.1487 0.0112
11 4 10 10.3592 0.0073
11 4 11 4.0203 -0.0711
11 4 12 -1.3513 0.0382
11 4 13 -0.4755 0.1925
11 4 14 3.8769 -0.0204
11 4 15 0.2392 -0.0670
11 4 16 5.8493 0.0651
11 4 17 3.3491 0.0635
11 4 18 -6.9950 -0.0259
11 4 19 -5.4148 -0.0224
11 4 20 1.4912 0.0465
11 4 21 1.0808 0.0462
11 4 22 -7.0366 -0.0326
11 4 23 1.6145 0.0930
11 4 24 2.8421 0.0212
11 4 25 0.4691 -0.0585
11 5 0 -3.9862 0.2905
11 5 1 -10.9262 -0.1738
11 5 2 -15.7640 -0.2034
11 5 3 -4.2312 0.3033
11 5 4 -7.3634 -0.0904
11 5 5 -6.3751 0.1074
11 5 6 -3.1803 0.0311
11 5 7 -6.3024 0.0381
11 5 8 -10.7370 -0.1174
11 5 9 -8.2038 -0.0896
11 5 10 3.3649 0.0464
11 5 11 4.7167 -0.0134
11 5 12 -3.1116 -0.0898
11 5 13 2.9547 -0.0635
11 5 14 6.3821 0.1448
11 5 15 5.1002 -0.0060
11 5 16 0.3097 -0.0029
11 5 17 -0.0047 0.0763
11 5 18 -0.7159 0.0164
11 5 19 -4.0718 -0.1288
11 5 20 1.4457 -0.0125
11 5 21 1.0930 0.0652
11 5 22 -3.6335 -0.0169
11 5 23 -6.3470 0.0044
11 5 24 4.3896 0.1269
11 5 25 2.2394 -0.0799
11 6 0 -7.6022 0.2651
11 6 1 -13.6525 0.3223
11 6 2 -4.7623 -0.2062
11 6 3 -3.3298 -0.1206
11 6 4 1.5269 0.1647
11 6 5 -9.1903 -0.1120
11 6 6 -10.8388 0.0246
11 6 7 -6.3055 0.0960
11 6 8 -8.5520 0.0484
11 6 9 -8.8537 -0.0824
11 6 10 -8.3239 -0.0145
11 6 11 -1.7948 0.0658
11 6 12 3.3365 -0.0557
11 6 13 3.2209 -0.1028
11 6 14 10.3104 -0.0950
11 6 15 4.9970 0.1080
11 6 16 -3.5052 -0.0132
11 6 17 0.3556 -0.0019
11 6 18 0.6482 0.0115
11 6 19 -0.7979 -0.0189
11 6 20 0.2208 -0.1082
11 6 21 4.2255 0.0114
11 6 22 -2.0169 0.0514
11 6 23 -6.8132 -0.0845
11 6 24 -3.3048 0.0225
11 7 0 -2.6568 -0.2641
11 7 1 -4.5675 0.2257
11 7 2 -6.0209 0.3650
11 7 3 5.4249 -0.2854
11 7 4 1.9727 0.0092
11 7 5 0.6999 0.1088
11 7 6 -8.3921 -0.1271
11 7 7 -9.7188 -0.0078
11 7 8 -6.9017 0.1163
11 7 9 -10.7965 0.0380
11 7 10 -4.7681 -0.0304
11 7 11 -1.4995 0.0724
11 7 12 -0.3318 0.0790
11 7 13 4.3330 -0.0680
11 7 14 3.3904 -0.1022
11 7 15 5.4323 -0.0741
11 7 16 3.2998 0.0857
11 7 17 -3.3346 -0.0213
11 7 18 2.5148 0.0012
11 7 19 -0.5966 -0.0402
11 7 20 -2.9119 -0.0375
11 7 21 4.5466 -0.0008
11 7 22 4.8503 0.0533
11 7 23 -5.5650 0.0201
11 7 24 -7.9262 -0.0876
11 8 0 4.3514 -0.4022
11 8 1 1.9151 -0.0731
11 8 2 -0.4482 0.1260
11 8 3 -0.4859 0.3495
11 8 4 8.8561 -0.2710
11 8 5 2.3196 0.1139
11 8 6 1.7385 0.0830
11 8 7 -5.5893 -0.1593
11 8 8 -9.9001 -0.0109
11 8 9 -1.9255 0.1348
11 8 10 -2.4517 0.0448
11 8 11 1.7315 -0.0225
11 8 12 -0.5570 0.0794
11 8 13 -5.9006 0.0408
11 8 14 2.2682 -0.0007
11 8 15 7.0883 -0.0069
11 8 16 3.6373 -0.0163
11 8 17 -0.0931 0.0064
11 8 18 -5.5458 -0.0874
11 8 19 0.7213 0.0276
11 8 20 1.4210 0.0145
11 8 21 -0.4347 0.0005
11 8 22 5.4825 0.1005
11 8 23 1.4892 0.0515
11 9 0 4.9319 -0.2396
11 9 1 7.1022 -0.5715
11 9 2 -0.3285 0.1327
11 9 3 1.9747 0.0920
11 9 4 3.9226 0.2187
11 9 5 9.7762 -0.2463
11 9 6 0.7198 0.1300
11 9 7 2.8029 0.1212
11 9 8 2.0665 -0.1055
11 9 9 -3.9001 -0.0045
11 9 10 5.0415 0.0532
11 9 11 -0.6388 -0.0273
11 9 12 -3.0700 -0.0687
11 9 13 -0.8997 0.1194
11 9 14 -2.1732 0.0553
11 9 15 4.7896 0.0639
11 9 16 7.0393 0.0252
11 9 17 -3.8420 -0.0382
11 9 18 -7.3397 -0.0897
11 9 19 -3.7860 -0.0889
11 9 20 4.6695 0.1397
11 9 21 6.2162 0.1213
11 10 0 -0.8882 0.2531
11 10 1 3.8736 -0.1986
11 10 2 0.6421 -0.5575
11 10 3 -1.9574 0.1595
11 10 4 10.9215 0.0207
11 10 5 7.6228 0.0526
11 10 6 8.9642 -0.1111
11 10 7 3.9634 0.1898
11 10 8 3.3042 0.1129
11 10 9 5.7432 -0.1719
11 10 10 -2.4459 -0.0293
11 10 11 6.4001 0.0358
11 10 12 2.0721 -0.0153
11 10 13 -2.4019 -0.1133
11 10 14 1.4233 0.0717
11 10 15 -0.9856 -0.0070
11 10 16 2.8508 0.0852
11 10 17 4.1861 0.0595
11 10 18 -7.3814 -0.0707
11 10 19 -8.4078 -0.1258
11 10 20 3.1879 0.0101
11 11 0 -6.6663 0.3046
11 11 1 -2.1878 0.1219
11 11 2 -0.0373 -0.2564
11 11 3 1.3768 -0.3907
11 11 4 4.5891 0.1096
11 11 5 18.1043 0.0308
11 11 6 7.0221 -0.0319
11 11 7 5.3536 -0.0678
11 11 8 6.6366 0.1314
11 11 9 -2.9599 0.0885
11 11 10 4.7620 -0.1350
11 11 11 4.8256 0.0861
11 11 12 9.9534 0.0155
11 11 13 3.7959 -0.1209
11 11 14 -4.2516 -0.1414
11 11 15 -1.4254 0.0835
11 11 16 -0.6334 -0.0406
11 11 17 4.8444 0.0335
11 11 18 4.8271 0.0479
11 11 19 -4.9102 -0.0224
11 12 0 -5.6100 -0.4234
11 12 1 -7.2702 0.2217
11 12 2 2.0447 0.2305
11 12 3 0.8344 -0.2103
11 12 4 4.6581 -0.1620
11 12 5 5.7804 0.0075
11 12 6 12.7530 -0.0752
11 12 7 5.2354 -0.0852
11 12 8 2.5766 0.0139
11 12 9 7.7313 0.1404
11 12 10 -6.9508 0.1074
11 12 11 4.2274 -0.1426
11 12 12 11.3519 0.0971
11 12 13 7.1820 0.0392
11 12 14 0.4438 -0.0739
11 12 15 -5.6377 -0.0193
11 12 16 -2.3147 0.0184
11 12 17 3.5197 -0.2017
11 12 18 10.8233 -0.0144
11 13 0 4.8303 0.4536
11 13 1 -3.0047 -0.2880
11 13 2 -4.5121 0.0908
11 13 3 1.7167 0.4403
11 13 4 -1.3838 -0.2323
11 13 5 3.7234 -0.1402
11 13 6 2.5717 0.0386
11 13 7 3.4261 -0.1004
11 13 8 7.7688 -0.0706
11 13 9 3.4520 0.0717
11 13 10 4.1868 0.0316
11 13 11 -8.6026 0.0568
11 13 12 1.1185 -0.0961
11 13 13 10.7393 0.1514
11 13 14 2.1133 0.1932
11 13 15 -2.9973 -0.0159
11 13 16 -3.0899 -0.0477
11 13 17 2.5306 -0.1172
11 14 0 7.6061 0.0450
11 14 1 1.1444 0.3122
11 14 2 -4.5489 -0.1027
11 14 3 -3.4493 -0.1032
11 14 11 -3.7612 -0.0490
11 14 12 -8.0664 -0.0288
11 14 13 -2.3572 -0.0348
11 14 14 4.8073 0.1510
11 14 15 0.0238 0.2942
11 14 16 -1.4014 -0.0276
11 15 0 -2.6738 -0.1125
11 15 15 0.1216 0.1314
12 -11 2 -2.3317 0.0739
12 -10 0 -10.0457 -0.2942
12 -10 3 3.4914 -0.0537
12 -9 0 2.3928 0.2601
12 -9 1 -11.8225 -0.0560
12 -9 2 -10.9868 -0.1429
12 -9 3 4.0881 0.1628
12 -9 4 2.2887 -0.2165
12 -9 5 3.7733 -0.0528
12 -8 0 12.8511 0.4813
12 -8 1 -7.5461 0.0648
12 -8 2 -12.9629 -0.2226
12 -8 3 -1.4408 -0.0243
12 -8 4 6.3446 0.2133
12 -8 5 0.0618 -0.0642
12 -8 6 0.9326 -0.0647
12 -8 7 9.7218 0.1401
12 -8 8 7.8416 -0.0748
12 -7 0 2.5109 0.2044
12 -7 1 -1.5898 0.2758
12 -7 2 -5.4499 -0.0249
12 -7 3 -3.1775 -0.1722
12 -7 4 1.0722 0.1340
12 -7 5 -3.1768 0.2142
12 -7 6 -5.4852 -0.0841
12 -7 7 2.2196 -0.1194
12 -7 8 9.6034 0.1087
12 -7 9 1.3788 -0.0314
12 -7 10 -5.4562 0.0134
12 -7 11 -10.0948 -0.1482
12 -6 0 5.7218 -0.5263
12 -6 1 3.6460 0.1766
12 -6 2 -8.6487 0.1385
12 -6 3 -6.5483 -0.0705
12 -6 4 -3.3573 -0.0836
12 -6 5 -1.0060 0.0963
12 -6 6 -1.2173 0.1530
12 -6 7 -1.4109 -0.0596
12 -6 8 -1.7706 -0.0470
12 -6 9 1.4766 0.1151
12 -6 10 -0.6632 -0.0415
12 -6 11 -0.8158 -0.0791
12 -6 12 -6.4197 -0.1035
12 -6 13 -4.9596 -0.0616
12 -5 0 7.8602 0.0254
12 -5 1 1.9608 -0.5972
12 -5 2 -8.3961 0.0487
12 -5 3 -16.6003 0.1666
12 -5 4 0.2783 -0.1009
12 -5 5 10.3104 -0.0364
12 -5 6 0.5463 -0.0182
12 -5 7 -7.4646 0.1083
12 -5 8 -6.7043 0.0003
12 -5 9 -3.8424 -0.0033
12 -5 10 6.0347 0.0237
12 -5 11 3.8729 -0.0642
12 -5 12 -5.4044 -0.0689
12 -5 13 -10.0773 0.0278
12 -5 14 -6.3114 0.0352
12 -5 15 -1.6124 -0.0443
12 -4 0 -3.7827 0.3423
12 -4 1 -2.6914 -0.0006
12 -4 2 -6.4474 -0.4555
12 -4 3 -2.4145 -0.0187
12 -4 4 -0.1578 0.2113
12 -4 5 4.6097 -0.2168
12 -4 6 3.2680 0.0023
12 -4 7 -7.8250 -0.0313
12 -4 8 -5.6925 0.0514
12 -4 9 0.9560 -0.0146
12 -4 10 -2.0989 -0.0149
12 -4 11 0.9992 -0.0361
12 -4 12 -2.6583 0.0266
12 -4 13 -9.4837 0.0775
12 -4 14 -4.6079 0.0622
12 -4 15 -1.5759 -0.0213
12 -4 16 -1.6618 -0.1253
12 -4 17 -0.2944 -0.0412
12 -3 0 -9.9569 0.7214
12 -3 1 -10.3535 0.4058
12 -3 2 4.1446 -0.1102
12 -3 3 5.0228 -0.1904
12 -3 4 -1.2612 -0.0572
12 -3 5 -1.7466 0.1808
12 -3 6 -1.4557 -0.2588
12 -3 7 3.6330 0.0824
12 -3 8 -0.0128 -0.0270
12 -3 9 -5.5795 -0.0611
12 -3 10 -6.5567 -0.0327
12 -3 11 -6.7487 0.0404
12 -3 12 1.2895 0.0143
12 -3 13 0.3297 0.0743
12 -3 14 -6.3341 0.0511
12 -3 15 -1.5423 -0.1034
12 -3 16 -0.5288 -0.0933
12 -3 17 -2.0482 0.0277
12 -3 18 2.5945 0.1088
12 -2 0 -8.1254 -1.0723
12 -2 1 -0.1320 0.5329
12 -2 2 -3.4163 0.4708
12 -2 3 1.4527 -0.1822
12 -2 4 2.8258 0.0709
12 -2 5 -1.3445 -0.0720
12 -2 6 5.2920 0.0899
12 -2 7 -1.3621 -0.1986
12 -2 8 -3.8850 0.1291
12 -2 9 -3.7183 -0.0671
12 -2 10 -7.7781 -0.1009
12 -2 11 -3.3160 0.0719
12 -2 12 1.4283 0.1049
12 -2 13 4.2447 -0.0794
12 -2 14 -1.1218 -0.1253
12 -2 15 -4.5731 -0.0201
12 -2 16 -0.0283 0.0303
12 -2 17 0.4632 0.1032
12 -2 18 -1.0731 0.1481
12 -2 19 1.1791 0.0054
12 -1 0 -0.9130 -0.6135
12 -1 1 -9.2094 -0.7793
12 -1 2 0.9339 0.3889
12 -1 3 3.1503 0.4294
12 -1 4 2.9542 -0.2563
12 -1 5 7.6296 0.1712
12 -1 6 -4.1353 -0.0362
12 -1 7 -7.3887 0.0463
12 -1 8 -9.6928 -0.1282
12 -1 9 0.0869 0.1139
12 -1 10 7.5840 -0.0427
12 -1 11 -2.7785 -0.0413
12 -1 12 -2.5628 0.0675
12 -1 13 3.2245 -0.0229
12 -1 14 4.6763 -0.1685
12 -1 15 -1.6146 -0.0528
12 -1 16 -3.1584 0.1913
12 -1 17 -0.7124 0.1484
12 -1 18 1.3084 -0.0206
12 -1 19 2.1155 -0.0358
12 -1 20 -1.0006 0.0129
12 0 0 -8.2910 -0.2186
12 0 1 -5.3870 -0.6032
12 0 2 -4.2053 -0.3893
12 0 3 13.4144 0.2175
12 0 4 12.2914 0.1914
12 0 5 -11.8329 -0.2385
12 0 6 -8.1739 0.2292
12 0 7 -8.2609 0.0023
12 0 8 -5.1346 -0.0002
12 0 9 1.6747 -0.0696
12 0 10 8.5367 0.1174
12 0 11 4.2565 -0.0526
12 0 12 -7.4992 -0.0947
12 0 13 0.3854 0.0363
12 0 14 6.2999 0.0753
12 0 15 1.9262 -0.0063
12 0 16 -5.1505 -0.0038
12 0 17 -2.1444 0.1134
12 0 18 3.0905 -0.0301
12 0 19 4.8535 -0.0651
12 0 20 4.0463 0.0336
12 0 21 -4.5554 0.1488
12 1 0 2.7079 0.9943
12 1 1 -7.6329 -0.2509
12 1 2 3.4376 -0.4927
12 1 3 3.6521 -0.1153
12 1 4 0.0678 0.1011
12 1 5 -3.8865 -0.0470
12 1 6 -18.1305 -0.1426
12 1 7 0.5307 0.2413
12 1 8 3.9331 -0.0145
12 1 9 -5.1661 -0.0490
12 1 10 -1.5622 -0.0222
12 1 11 5.7603 0.1176
12 1 12 -0.5025 -0.0696
12 1 13 -7.2191 -0.0732
12 1 14 3.5848 0.0902
12 1 15 3.1332 0.0938
12 1 16 -2.1986 -0.0141
12 1 17 -3.7632 -0.0793
12 1 18 2.8707 0.0821
12 1 19 6.2715 -0.1035
12 1 20 3.8659 -0.0317
12 1 21 1.7764 0.0703
12 1 22 -7.0465 0.1167
12 2 0 4.9126 0.9348
12 2 1 13.3329 0.7450
12 2 2 -1.5140 -0.2644
12 2 3 -4.8601 -0.2451
12 2 4 -4.3915 -0.0197
12 2 5 -10.6729 0.0065
12 2 6 -1.4856 -0.1757
12 2 7 -3.1768 -0.0277
12 2 8 6.0163 0.2123
12 2 9 0.3367 -0.0435
12 2 10 -8.5899 -0.0415
12 2 11 -4.0310 0.0596
12 2 12 1.2049 0.1000
12 2 13 -4.0004 -0.1560
12 2 14 -4.4549 -0.1079
12 2 15 6.6610 0.1066
12 2 16 -0.5449 0.0262
12 2 17 -3.8689 0.0107
12 2 18 -0.5976 -0.1032
12 2 19 5.8309 0.0306
12 2 20 4.3945 -0.1309
12 2 21 0.2437 0.0153
12 2 22 0.5700 0.0976
12 3 0 8.8344 -0.6057
12 3 1 6.6345 0.8132
12 3 2 17.9059 0.5966
12 3 3 3.4471 -0.3083
12 3 4 -8.9056 -0.0221
12 3 5 -5.0314 -0.0223
12 3 6 -11.5615 -0.0505
12 3 7 1.3694 -0.1469
12 3 8 8.3257 0.1091
12 3 9 8.8768 0.1725
12 3 10 -4.4458 -0.0546
12 3 11 -10.4793 -0.0638
12 3 12 -6.6423 0.0157
12 3 13 -1.6510 0.0348
12 3 14 0.2885 -0.1190
12 3 15 -1.2782 -0.0622
12 3 16 3.6809 0.0858
12 3 17 -4.1787 -0.1543
12 3 18 0.0247 0.0153
12 3 19 2.7169 0.0180
12 3 20 2.1055 0.0738
12 3 21 -0.3164 -0.0777
12 3 22 -0.3167 -0.0749
12 4 0 2.1380 -0.3289
12 4 1 10.1040 -0.5272
12 4 2 14.2149 0.5269
12 4 3 22.5624 0.4642
12 4 4 5.1892 -0.3495
12 4 5 -13.7555 0.1333
12 4 6 -5.8894 0.0517
12 4 7 -3.6574 0.0068
12 4 8 9.0607 -0.0627
12 4 9 12.1488 0.1066
12 4 10 5.6139 -0.0138
12 4 11 -7.5315 -0.0664
12 4 12 -7.0175 0.0157
12 4 13 -4.0694 0.0560
12 4 14 -5.4501 0.0231
12 4 15 0.4970 -0.0652
12 4 16 -0.1431 -0.1384
12 4 17 4.2533 0.0327
12 4 18 -2.1353 -0.1015
12 4 19 1.4255 0.1398
12 4 20 -1.1497 0.1255
12 4 21 -3.6176 -0.0575
12 4 22 1.4132 -0.1114
12 5 0 6.0449 -0.2858
12 5 1 1.1361 -0.3435
12 5 2 9.9023 -0.3923
12 5 3 15.1315 0.1973
12 5 4 16.5987 0.3075
12 5 5 1.7480 -0.2578
12 5 6 -9.1643 0.2813
12 5 7 1.5196 0.1403
12 5 8 2.8499 -0.0478
12 5 9 9.0699 -0.1668
12 5 10 8.9650 0.0617
12 5 11 4.7850 -0.0106
12 5 12 -6.2900 0.0755
12 5 13 -9.9369 0.0603
12 5 14 -5.4627 -0.0364
12 5 15 -4.1651 -0.0638
12 5 16 5.6227 0.0714
12 5 17 1.9199 -0.0410
12 5 18 0.4180 0.0563
12 5 19 -3.7995 -0.0173
12 5 20 0.7132 0.0213
12 5 21 -0.8529 0.0649
12 5 22 -3.9419 -0.0681
12 6 0 4.7302 0.6753
12 6 1 0.9975 -0.0786
12 6 2 -5.1607 -0.3561
12 6 3 6.3607 -0.2222
12 6 4 13.3659 0.0315
12 6 5 12.4019 0.1514
12 6 6 -0.3624 -0.1605
12 6 7 -4.1957 0.2335
12 6 8 7.5843 0.0859
12 6 9 5.6081 -0.0719
12 6 10 6.2883 -0.1332
12 6 11 0.7871 0.1253
12 6 12 -4.1065 -0.0292
12 6 13 -6.0355 0.0180
12 6 14 -5.6588 -0.0048
12 6 15 1.9448 0.0097
12 6 16 -0.8748 0.0077
12 6 17 0.2181 0.1641
12 6 18 -2.6938 -0.0135
12 6 19 0.1873 -0.0783
12 6 20 1.1648 0.0213
12 6 21 1.8622 -0.0659
12 7 0 -3.0066 -0.0303
12 7 1 -2.6852 0.5716
12 7 2 -1.4470 0.1358
12 7 3 -4.4276 -0.2271
12 7 4 4.3538 -0.1179
12 7 5 7.7708 -0.0368
12 7 6 7.9661 -0.0477
12 7 7 0.0803 -0.1207
12 7 8 0.3506 0.1683
12 7 9 8.9880 0.0635
12 7 10 -1.6282 -0.0444
12 7 11 -5.1877 -0.0827
12 7 12 -3.3700 0.1030
12 7 13 -1.6382 -0.1083
12 7 14 3.0032 -0.0141
12 7 15 -1.1166 -0.0016
12 7 16 -2.0275 0.0747
12 7 17 -4.3287 0.0060
12 7 18 -1.7683 0.0708
12 7 19 2.4174 0.0242
12 7 20 4.3386 -0.1530
12 8 0 -4.7325 -0.9933
12 8 1 -6.2287 0.0316
12 8 2 0.7937 0.5098
12 8 3 1.5612 0.1604
12 8 4 -6.6612 -0.0976
12 8 5 -0.0739 -0.0573
12 8 6 3.6240 0.0435
12 8 7 7.1551 -0.1434
12 8 8 -1.2516 -0.1354
12 8 9 -5.9267 0.0712
12 8 10 2.3535 0.0563
12 8 11 -4.1852 0.0139
12 8 12 -4.7548 -0.0030
12 8 13 2.3566 0.0334
12 8 14 1.0603 -0.2146
12 8 15 1.7849 0.0209
12 8 16 -1.6971 0.0317
12 8 17 -3.6917 0.0671
12 8 18 -1.0561 -0.0191
12 8 19 2.2420 -0.0619
12 8 20 4.3004 0.0901
12 9 0 -0.2988 -0.0733
12 9 1 -7.2239 -0.9934
12 9 2 -2.8219 0.0092
12 9 3 8.3073 0.4148
12 9 4 1.4236 0.0311
12 9 5 -14.3850 0.0637
12 9 6 -4.5468 0.0359
12 9 7 -0.3069 0.0751
12 9 8 4.1303 -0.1766
12 9 9 -2.3327 -0.0551
12 9 10 -9.0507 0.0527
12 9 11 -0.8595 0.0458
12 9 12 -3.2192 -0.0331
12 9 13 -3.1490 -0.0173
12 9 14 5.3777 0.0428
12 9 15 3.7578 -0.1616
12 9 16 -0.0363 0.1240
12 9 17 -0.6278 -0.0157
12 9 18 -2.8542 -0.0725
12 9 19 -0.5862 -0.0118
12 10 0 -1.1768 0.3703
12 10 1 -6.6868 -0.0408
12 10 2 -3.0725 -0.8060
12 10 3 3.1612 -0.0622
12 10 4 5.1199 0.2710
12 10 5 -6.0923 -0.1891
12 10 6 -22.0650 0.1324
12 10 7 -2.2605 0.1719
12 10 8 4.4697 0.1333
12 10 9 3.3342 -0.0850
12 10 10 -5.6470 0.0291
12 10 11 -16.3501 -0.1226
12 10 12 -5.3630 -0.0175
12 10 13 2.4289 0.0428
12 10 14 5.6124 0.0538
12 10 15 7.3798 0.1149
12 10 16 1.2932 -0.1669
12 10 17 -4.1075 0.0906
12 10 18 -1.4386 -0.0631
12 11 0 -2.8339 0.6625
12 11 1 -6.7137 0.4482
12 11 2 -11.1219 -0.0393
12 11 3 -0.1552 -0.6046
12 11 4 1.5830 -0.1366
12 11 5 -6.1665 0.1083
12 11 6 -2.3630 -0.2393
12 11 7 -11.1424 0.1993
12 11 8 3.3241 0.1993
12 11 9 1.1319 0.0291
12 11 10 -9.0742 -0.0728
12 11 11 -10.6208 0.1433
12 11 12 -11.9039 -0.1577
12 11 13 3.2574 0.0361
12 11 14 9.0168 0.1119
12 11 15 6.3872 -0.0426
12 11 16 0.4041 0.1306
12 11 17 -4.3418 -0.1332
12 12 0 0.0895 0.1990
12 12 1 -9.9472 0.4726
12 12 2 -10.7762 0.3155
12 12 3 -8.9446 -0.0288
12 12 4 -0.1875 -0.2353
12 12 5 2.5588 0.0317
12 12 6 -5.0465 -0.0661
12 12 7 10.4262 -0.2982
12 12 8 -3.3803 0.0839
12 12 9 -8.1260 0.0673
12 12 10 -6.3912 0.0229
12 12 11 -8.8683 0.0464
12 12 12 -1.1124 0.2424
12 12 13 -1.8300 -0.2048
12 12 14 5.4801 0.0037
12 12 15 5.4743 0.1919
12 12 16 1.9628 -0.0478
12 13 0 1.9224 -0.8664
12 13 1 -0.6121 0.0890
12 13 2 -9.7172 0.3153
12 13 3 -7.3814 0.1901
12 13 4 -1.2403 0.2315
12 13 12 -1.3642 0.0551
12 13 13 2.8057 0.2497
12 13 14 0.2816 -0.1103
12 13 15 4.1329 0.0858
12 14 1 3.9782 -0.8615
12 14 13 0.4664 0.1318
12 14 14 2.9324 0.2777
13 -8 0 -3.1044 -0.0291
13 -8 1 -0.0543 -0.2677
13 -8 2 1.0589 -0.1787
13 -8 3 2.8167 0.1190
13 -7 0 4.7666 -0.0502
13 -7 1 -8.2865 -0.1516
13 -7 2 -1.7474 -0.2945
13 -7 3 9.6391 -0.0097
13 -7 4 12.1358 0.0992
13 -7 5 2.5746 0.1155
13 -7 6 -5.2389 0.0325
13 -6 0 -2.4530 -0.1114
13 -6 1 -1.9931 0.0696
13 -6 2 1.7397 0.0396
13 -6 3 10.7984 -0.2515
13 -6 4 16.4478 0.0496
13 -6 5 5.9200 -0.0150
13 -6 6 -7.8062 0.0236
13 -6 7 -8.1164 0.0785
13 -6 8 0.3400 -0.0238
13 -6 9 4.4912 -0.1207
13 -5 0 3.4069 -0.1670
13 -5 1 3.3420 0.0220
13 -5 2 5.6709 0.1539
13 -5 3 10.4982 0.1603
13 -5 4 5.9652 -0.2274
13 -5 5 6.8599 0.1243
13 -5 6 4.2837 -0.0496
13 -5 7 -5.1501 -0.1373
13 -5 8 -5.7040 0.0137
13 -5 9 0.4002 0.0402
13 -5 10 1.0048 -0.0374
13 -5 11 0.6595 0.1043
13 -4 0 0.4976 -0.1838
13 -4 1 4.9283 -0.2941
13 -4 2 1.6037 0.1371
13 -4 3 -0.3889 0.1014
13 -4 4 10.1876 0.1788
13 -4 5 8.4550 -0.1177
13 -4 6 5.8080 0.1167
13 -4 7 2.9727 -0.1160
13 -4 8 -8.3708 -0.2248
13 -4 9 -3.9244 0.0717
13 -4 10 8.3280 0.1755
13 -4 11 4.9930 -0.0463
13 -4 12 3.8202 -0.1347
13 -4 13 8.6361 -0.1307
13 -3 0 1.4905 0.1320
13 -3 1 -3.7659 0.0137
13 -3 2 -9.7275 -0.2991
13 -3 3 -0.2436 0.1392
13 -3 4 8.1390 -0.0644
13 -3 5 10.5471 0.0488
13 -3 6 2.5629 -0.0062
13 -3 7 -2.2667 0.1150
13 -3 8 3.8914 -0.0188
13 -3 9 2.1277 -0.1175
13 -3 10 4.6256 0.0421
13 -3 11 7.8249 0.0174
13 -3 12 -1.6721 -0.1984
13 -3 13 -0.5630 -0.1661
13 -3 14 4.5315 0.1228
13 -3 15 -6.3214 0.2378
13 -2 0 1.1121 0.2447
13 -2 1 -3.0291 0.1635
13 -2 2 -4.5263 0.0960
13 -2 3 -12.3083 -0.3315
13 -2 4 -2.8402 0.0459
13 -2 5 5.3698 -0.1191
13 -2 6 2.3496 -0.0309
13 -2 7 6.4422 0.1049
13 -2 8 5.7996 0.1398
13 -2 9 4.4838 0.0427
13 -2 10 0.0608 -0.1341
13 -2 11 -1.4089 -0.1020
13 -2 12 2.3703 -0.0131
13 -2 13 -1.0851 0.0002
13 -2 14 -1.1960 0.0210
13 -2 15 -0.5823 0.0835
13 -2 16 -8.4031 -0.0459
13 -1 0 0.7857 -0.5273
13 -1 1 9.5147 0.2729
13 -1 2 -1.5739 0.1565
13 -1 3 -14.0009 0.0508
13 -1 4 -19.1682 -0.2347
13 -1 5 -2.8454 0.1043
13 -1 6 14.6364 -0.0396
13 -1 7 7.6039 -0.1417
13 -1 8 4.7249 0.0365
13 -1 9 -3.0034 0.0633
13 -1 10 -5.9286 0.0289
13 -1 11 0.5825 -0.0443
13 -1 12 2.0053 0.0218
13 -1 13 2.9991 0.0531
13 -1 14 0.9557 -0.0308
13 -1 15 -3.4037 -0.1440
13 -1 16 -4.4389 -0.0851
13 -1 17 -4.5098 -0.0882
13 0 0 -9.5099 0.0778
13 0 1 -3.2188 -0.5953
13 0 2 7.6149 0.2650
13 0 3 -5.9686 0.1872
13 0 4 -11.9884 -0.0021
13 0 5 -1.6429 -0.0686
13 0 6 3.6919 0.1870
13 0 7 6.4699 -0.0554
13 0 8 -2.5917 -0.2861
13 0 9 -1.4003 -0.0206
13 0 10 -0.5580 0.0889
13 0 11 -1.4021 0.0602
13 0 12 3.6061 -0.0147
13 0 13 2.9031 0.0001
13 0 14 3.3405 -0.0642
13 0 15 2.9037 -0.0212
13 0 16 -5.3131 -0.0598
13 0 17 -6.7803 0.0040
13 0 18 -0.9521 -0.1084
13 1 0 -9.6827 0.4818
13 1 1 -12.9537 0.0575
13 1 2 -7.6428 -0.4837
13 1 3 14.8498 0.1891
13 1 4 8.8271 0.1495
13 1 5 -6.4873 -0.0595
13 1 6 -3.1032 0.0285
13 1 7 -6.1402 0.2135
13 1 8 -0.3287 -0.0616
13 1 9 3.9121 -0.2337
13 1 10 4.7199 -0.0059
13 1 11 2.5003 -0.0270
13 1 12 0.4448 -0.0546
13 1 13 2.5816 -0.0269
13 1 14 3.7018 0.1054
13 1 15 3.2692 -0.0219
13 1 16 0.4405 0.0578
13 1 17 -5.7950 -0.0329
13 1 18 -4.0510 0.0107
13 2 0 0.2670 0.0861
13 2 1 -12.4061 0.4938
13 2 2 -4.6800 -0.0391
13 2 3 1.6444 -0.3414
13 2 4 14.0228 0.0898
13 2 5 6.3932 0.0529
13 2 6 -11.8171 -0.0528
13 2 7 -3.0973 0.0899
13 2 8 0.5616 0.1938
13 2 9 2.5747 -0.0843
13 2 10 5.3337 -0.1487
13 2 11 5.9439 0.0144
13 2 12 3.4900 -0.0992
13 2 13 0.7563 -0.0046
13 2 14 -2.4560 -0.0111
13 2 15 2.2869 0.0816
13 2 16 3.4312 -0.0613
13 2 17 -1.2072 0.1077
13 2 18 -2.2956 0.0818
13 2 19 1.2043 0.0164
13 3 0 0.4926 -0.2050
13 3 1 4.6000 0.0243
13 3 2 -11.6696 0.4397
13 3 3 -1.7061 -0.0973
13 3 4 4.0195 -0.1936
13 3 5 5.8492 0.0763
13 3 6 4.3161 -0.0311
13 3 7 -8.4358 -0.0725
13 3 8 -0.6577 0.0180
13 3 9 5.6975 0.1411
13 3 10 3.5118 0.0126
13 3 11 1.7258 0.0463
13 3 12 4.6622 0.0619
13 3 13 0.6661 -0.2351
13 3 14 -1.3686 -0.0289
13 3 15 -3.3149 0.0002
13 3 16 2.9013 0.0732
13 3 17 1.6174 -0.0238
13 3 18 -4.1408 0.0234
13 3 19 4.3670 0.0527
13 4 0 -2.1267 -0.7804
13 4 1 -2.5554 -0.0958
13 4 2 0.3792 -0.0783
13 4 3 -9.3215 0.3437
13 4 4 3.9473 -0.0462
13 4 5 7.9623 -0.0927
13 4 6 -2.7099 0.0405
13 4 7 -1.8624 -0.1310
13 4 8 -3.5649 -0.0346
13 4 9 4.2988 0.0645
13 4 10 7.5962 0.1577
13 4 11 0.5957 0.0046
13 4 12 -4.6288 0.0019
13 4 13 6.2332 0.0399
13 4 14 3.1290 -0.1874
13 4 15 -2.9896 0.0781
13 4 16 -6.3922 0.0496
13 4 17 -0.9547 -0.1457
13 4 18 2.5262 -0.1249
13 4 19 -0.0750 -0.0259
13 5 0 -3.6765 0.4391
13 5 1 4.3309 -0.7597
13 5 2 -4.4609 -0.0028
13 5 3 -3.2707 -0.1103
13 5 4 -1.6327 0.1380
13 5 5 6.4675 -0.0384
13 5 6 1.9304 -0.0088
13 5 7 -8.7764 0.1265
13 5 8 -0.5417 -0.0669
13 5 9 1.7288 0.0054
13 5 10 4.4311 -0.0545
13 5 11 5.7785 -0.0054
13 5 12 4.3992 -0.0072
13 5 13 -0.4647 0.1007
13 5 14 6.1050 0.1220
13 5 15 -2.5540 -0.1310
13 5 16 -8.9271 -0.0587
13 5 17 -3.4437 0.0407
13 5 18 2.7490 -0.1727
13 6 0 1.6499 0.4197
13 6 1 3.4351 0.5795
13 6 2 5.5973 -0.5885
13 6 3 -9.0522 -0.0228
13 6 4 -5.4088 -0.1088
13 6 5 3.7256 -0.0234
13 6 6 4.0963 0.0594
13 6 7 -5.3861 0.1179
13 6 8 -7.5828 0.0950
13 6 9 4.3575 -0.1443
13 6 10 3.5106 -0.0137
13 6 11 7.9068 -0.0620
13 6 12 10.2002 0.0108
13 6 13 5.4421 0.0267
13 6 14 -3.6655 0.0652
13 6 15 0.5022 -0.0161
13 6 16 -2.1248 -0.0110
13 6 17 -4.9817 -0.0264
13 6 18 0.3232 0.1964
13 7 0 1.8653 -0.0914
13 7 1 1.2653 0.2942
13 7 2 3.0501 0.4787
13 7 3 0.1539 -0.3652
13 7 4 -10.0321 0.0471
13 7 5 -1.8078 0.0175
13 7 6 2.7255 -0.1303
13 7 7 -2.3993 0.0095
13 7 8 -4.0660 0.0792
13 7 9 2.1280 0.0256
13 7 10 9.0401 -0.0684
13 7 11 1.0202 0.0727
13 7 12 6.0054 -0.0788
13 7 13 9.4378 -0.0460
13 7 14 2.3232 -0.0372
13 7 15 -1.8400 0.0979
13 7 16 3.0941 -0.0344
13 7 17 -1.5010 0.1825
13 8 0 2.5694 -0.5357
13 8 1 -1.0962 -0.2263
13 8 2 -1.1751 0.2404
13 8 3 -0.9993 0.2795
13 8 4 -4.8061 -0.1405
13 8 5 -6.4385 0.1477
13 8 6 5.0628 0.0404
13 8 7 2.3967 -0.1977
13 8 8 -2.0475 0.0113
13 8 9 3.3748 0.0607
13 8 10 1.9629 -0.0694
13 8 11 0.9200 -0.0303
13 8 12 0.2141 0.0917
13 8 13 8.1585 -0.0536
13 8 14 8.8876 0.0166
13 8 15 -0.7626 -0.0982
13 8 16 -0.5611 0.1388
13 9 0 0.0630 -0.1250
13 9 1 4.1973 -0.4607
13 9 2 -2.1657 -0.2588
13 9 3 -9.3555 0.2003
13 9 4 -5.0051 0.0320
13 9 5 3.3721 -0.0307
13 9 6 7.3079 0.2721
13 9 7 8.6731 0.0674
13 9 8 -4.3079 -0.2186
13 9 9 -4.1801 -0.0258
13 9 10 6.9919 0.0213
13 9 11 0.7072 -0.1128
13 9 12 -2.3869 0.0770
13 9 13 4.0889 0.0857
13 9 14 4.4933 -0.1067
13 9 15 0.7993 0.0710
13 10 0 2.5662 0.6762
13 10 1 5.2799 -0.2370
13 10 2 0.8133 -0.2272
13 10 3 -5.7745 -0.1073
13 10 4 -8.8191 0.1170
13 10 5 5.1564 -0.1240
13 10 6 14.2458 -0.0106
13 10 7 2.4317 0.2507
13 10 8 -3.9301 0.0403
13 10 9 -2.2836 -0.1796
13 10 10 10.3496 0.0481
13 10 11 10.0818 0.1234
13 10 12 -9.1466 -0.2118
13 11 0 -2.1619 0.5376
13 11 1 8.7558 0.6074
13 11 2 7.5086 -0.2750
13 11 3 -4.8652 0.0822
13 11 4 -3.7639 0.0694
13 11 5 -2.9761 -0.1100
13 11 6 3.5350 -0.2113
13 11 7 7.4277 0.0771
13 12 0 -0.2806 -0.4528
13 12 1 3.3779 0.4922
13 12 2 6.8606 0.3577
13 12 3 3.8131 -0.3619
13 12 4 -11.0344 0.1265
13 12 5 -6.2184 0.2266
13 13 2 2.7901 0.1169
13 13 3 -0.7706 -0.1030
14 -7 0 -0.5107 0.2251
14 -6 0 0.1970 0.4225
14 -6 1 -0.2389 0.3001
14 -6 2 2.6284 0.2529
14 -6 3 -8.0640 -0.3261
14 -5 0 -12.2466 -0.4655
14 -5 1 -2.4311 0.3983
14 -5 2 -0.0013 0.1719
14 -5 3 -2.7992 0.1195
14 -5 4 -5.8799 -0.2221
14 -5 5 -7.7809 -0.0287
14 -5 6 -0.3445 0.2350
14 -4 0 -3.7456 -0.0014
14 -4 1 -7.7589 -0.7081
14 -4 2 6.1513 0.1541
14 -4 3 3.5877 0.0454
14 -4 4 -11.9878 0.0732
14 -4 5 -5.1755 0.0800
14 -4 6 -1.0080 0.1415
14 -4 7 1.6215 0.1920
14 -4 8 2.0004 -0.1864
14 -3 0 2.5661 0.5441
14 -3 1 4.1471 0.0148
14 -3 2 3.6983 -0.7702
14 -3 3 2.1010 0.0756
14 -3 4 0.4355 0.1316
14 -3 5 -5.7812 0.0048
14 -3 6 5.3204 0.1260
14 -3 7 0.7898 0.1001
14 -3 8 -7.0869 0.0302
14 -3 9 -1.6206 -0.1212
14 -3 10 -5.9114 0.1021
14 -2 0 8.1216 0.3275
14 -2 1 5.8267 0.5480
14 -2 2 5.7679 0.1620
14 -2 3 11.6038 -0.5007
14 -2 4 3.8926 0.0411
14 -2 5 5.3543 0.0303
14 -2 6 1.5770 -0.2476
14 -2 7 -1.3016 0.0384
14 -2 8 -2.8974 0.1720
14 -2 9 -1.3344 0.0817
14 -2 10 5.0469 -0.0084
14 -2 11 -5.6353 0.0965
14 -2 12 -8.9672 -0.2336
14 -1 0 -5.2800 -0.2987
14 -1 1 2.6600 0.2982
14 -1 2 16.2333 0.4652
14 -1 3 16.4010 0.1691
14 -1 4 10.9729 -0.2878
14 -1 5 -5.7311 -0.0207
14 -1 6 1.2679 -0.0192
14 -1 7 10.2011 -0.2453
14 -1 8 2.3320 0.0529
14 -1 9 4.2041 0.1466
14 -1 10 1.8721 -0.0307
14 -1 11 -5.2997 -0.0977
14 -1 12 -11.4348 0.1041
14 -1 13 -3.1606 -0.1089
14 0 0 -1.8426 -0.4884
14 0 1 -3.4666 -0.2312
14 0 2 5.8898 0.1174
14 0 3 21.0027 0.2311
14 0 4 8.1699 0.1096
14 0 5 -4.7533 -0.0038
14 0 6 -2.5289 0.1210
14 0 7 12.3633 0.0415
14 0 8 15.6690 -0.2545
14 0 9 -3.8422 -0.1118
14 0 10 -2.1041 0.0002
14 0 11 -3.0119 0.0335
14 0 12 -13.6970 0.0455
14 0 13 -7.3277 0.2122
14 0 14 6.5445 -0.0967
14 1 0 -1.1375 -0.0979
14 1 1 -5.3373 -0.4725
14 1 2 -4.0513 -0.1770
14 1 3 -0.8544 0.0433
14 1 4 15.2494 0.1203
14 1 5 8.8574 0.1159
14 1 6 -4.8749 0.1616
14 1 7 0.8847 0.1022
14 1 8 5.1583 -0.0232
14 1 9 4.1242 -0.2004
14 1 10 -5.8410 -0.0079
14 1 11 -2.6633 0.0582
14 1 12 -4.9582 0.0331
14 1 13 -14.1290 -0.0984
14 1 14 1.8895 0.0968
14 2 0 3.3856 0.1516
14 2 1 -5.8689 -0.0530
14 2 2 -11.0387 -0.3373
14 2 3 -1.0847 -0.0230
14 2 4 1.5341 0.0816
14 2 5 11.1680 -0.0420
14 2 6 6.5625 -0.0391
14 2 7 -12.2523 0.1411
14 2 8 -6.0443 0.0925
14 2 9 1.3120 0.0853
14 2 10 2.4119 -0.0384
14 2 11 -1.5885 0.0159
14 2 12 -3.8989 -0.0921
14 2 13 -3.9344 -0.0905
14 2 14 -5.4545 -0.0738
14 2 15 6.8639 0.1663
14 3 0 0.6699 -0.0121
14 3 1 -4.8549 0.1670
14 3 2 -2.4751 0.0030
14 3 3 -4.5738 -0.1914
14 3 4 -1.0191 0.0043
14 3 5 -4.4393 0.0269
14 3 6 1.3446 -0.1739
14 3 7 5.0987 -0.0585
14 3 8 -11.9704 0.1596
14 3 9 -7.7028 -0.0157
14 3 10 4.5167 0.0562
14 3 11 3.9238 0.0334
14 3 12 -0.5160 0.0408
14 3 13 -5.8042 -0.0710
14 3 14 -2.6734 -0.0891
14 3 15 2.5718 -0.0526
14 4 0 -0.9631 -0.0476
14 4 1 -2.0805 0.0437
14 4 2 -9.4142 0.1633
14 4 3 3.1902 -0.1207
14 4 4 -2.8158 -0.0927
14 4 5 -9.1267 0.0469
14 4 6 -4.5597 0.0242
14 4 7 2.8098 -0.2204
14 4 8 3.1948 -0.0931
14 4 9 -9.9993 0.0904
14 4 10 -2.3092 -0.0810
14 4 11 10.0324 0.1371
14 4 12 -2.2706 0.1105
14 4 13 -11.3865 -0.0928
14 4 14 -5.6338 -0.0699
14 4 15 5.8272 0.0085
14 5 0 -4.7409 0.2628
14 5 1 -5.2975 0.0006
14 5 2 -4.9584 -0.0548
14 5 3 -6.3410 0.1492
14 5 4 7.0263 -0.1731
14 5 5 -3.7076 0.0340
14 5 6 -11.6918 0.0027
14 5 7 2.4151 -0.0658
14 5 8 5.7301 -0.1284
14 5 9 -0.6584 0.0492
14 5 10 -4.7368 0.0813
14 5 11 1.0916 -0.1692
14 5 12 0.9639 0.0212
14 5 13 -14.1197 0.0753
14 5 14 -11.4857 -0.0795
14 6 0 -2.7156 0.1817
14 6 1 1.2888 0.1362
14 6 2 -5.5877 0.0291
14 6 3 -2.1774 -0.0837
14 6 4 2.0955 0.1699
14 6 5 5.5279 -0.2415
14 6 6 -6.7326 0.0689
14 6 7 -6.0021 0.0712
14 6 8 9.7249 0.0302
14 6 9 3.0980 -0.0262
14 6 10 -6.2513 -0.0393
14 6 11 -2.5051 -0.1011
14 6 12 -0.0224 -0.1036
14 6 13 -7.2618 0.1203
14 6 14 -13.6804 0.1552
14 7 0 3.3099 0.1171
14 7 1 4.4503 0.2518
14 7 2 2.3212 -0.0323
14 7 3 -3.0483 0.0547
14 7 4 5.4947 -0.0648
14 7 5 7.8206 0.1937
14 7 6 -1.3303 -0.1576
14 7 7 -11.1830 0.1311
14 7 8 -1.8464 0.0656
14 7 9 10.9694 -0.0933
14 7 10 1.5215 -0.1042
14 7 11 -3.7761 0.0488
14 7 12 -1.2029 0.0223
14 7 13 -6.0873 0.0116
14 7 14 -11.8296 -0.0015
14 8 0 0.3078 -0.5972
14 8 1 5.6162 0.0761
14 8 2 4.9600 0.2537
14 8 3 4.0811 -0.1471
14 8 4 5.8824 0.1351
14 8 5 6.2846 0.0619
14 8 6 -4.6048 0.1551
14 8 7 -10.5150 -0.1793
14 8 8 -6.0318 0.0048
14 8 9 5.3922 0.0268
14 8 10 11.8531 -0.0460
14 8 11 -0.5982 -0.0244
14 8 12 -6.1943 0.1648
14 9 0 1.9236 -0.1150
14 9 1 -0.4457 -0.4072
14 9 2 6.9239 0.1375
14 9 3 9.5180 0.2057
14 9 4 3.2854 -0.1624
14 9 5 -3.3633 0.1622
14 9 6 -7.1479 0.0682
14 9 7 -5.8507 -0.0039
14 9 8 4.5032 -0.1281
14 9 9 2.3441 0.0111
14 9 10 -7.3915 -0.0088
14 10 0 -2.6987 0.2548
14 10 1 1.6437 -0.0538
14 10 2 4.2875 -0.2518
14 10 3 5.7444 0.1388
14 10 4 4.3024 0.1214
14 10 5 -4.9421 -0.1278
14 10 6 -9.1899 0.1614
14 10 7 -1.0823 0.0624
14 10 8 8.2009 -0.1255
14 11 1 -4.6398 0.1009
14 11 2 4.5279 0.0570
14 11 3 6.7708 -0.1634
14 11 4 2.1970 0.1526
14 11 5 4.2345 0.0768
14 11 6 -1.8577 -0.1966
14 12 4 9.0817 -0.1506
15 -5 0 11.6252 -0.2489
15 -4 0 5.2829 0.3175
15 -4 1 10.8922 -0.1700
15 -4 2 -8.3610 -0.2778
15 -3 0 -1.9613 0.3164
15 -3 1 2.1821 0.2699
15 -3 2 5.3553 -0.1795
15 -3 3 -8.7928 -0.3702
15 -3 4 0.9622 0.2020
15 -3 5 10.3442 -0.1450
15 -2 0 -11.2453 0.4345
15 -2 1 4.7747 0.2612
15 -2 2 -2.9368 0.0083
15 -2 3 -10.3994 -0.0187
15 -2 4 -6.2817 -0.0811
15 -2 5 7.7181 0.3129
15 -2 6 8.7093 -0.1491
15 -1 0 1.5997 -0.9249
15 -1 1 -3.9997 0.2673
15 -1 2 -1.5083 0.3045
15 -1 3 -13.4894 -0.0093
15 -1 4 -12.4727 0.2561
15 -1 5 10.7064 0.0614
15 -1 6 9.5195 0.0273
15 -1 7 -6.7130 -0.3129
15 -1 8 -31.9523 0.1212
15 0 0 -7.7075 -0.4279
15 0 1 5.1425 -0.7698
15 0 2 1.7728 0.3062
15 0 3 -4.1619 0.2927
15 0 4 -9.9758 -0.2104
15 0 5 -8.2376 0.1685
15 0 6 10.7265 0.0474
15 0 7 3.1030 -0.0321
15 0 8 -7.4656 -0.0661
15 0 9 -14.6188 0.3065
15 1 0 -5.8524 0.1676
15 1 1 -3.7819 -0.3292
15 1 2 9.9662 -0.4852
15 1 3 6.8688 0.1714
15 1 4 -7.1329 0.0253
15 1 5 -7.8450 -0.3368
15 1 6 -3.2478 0.2411
15 1 7 12.0722 0.2382
15 1 8 8.9005 -0.0145
15 1 9 -1.7888 -0.0658
15 1 10 -5.3818 0.0755
15 2 0 -8.0329 0.4586
15 2 1 -1.2891 0.0165
15 2 2 0.6529 -0.3361
15 2 3 4.5129 -0.2582
15 2 4 7.3579 0.1328
15 2 5 0.9869 -0.0242
15 2 6 1.2695 -0.2014
15 2 7 0.7927 0.2077
15 2 8 6.8878 0.1519
15 2 9 7.9472 -0.1355
15 2 10 -2.8150 -0.0011
15 3 0 -2.3852 0.2845
15 3 1 -5.8221 0.3054
15 3 2 1.0598 -0.1148
15 3 3 2.3057 -0.1672
15 3 4 3.3638 0.0417
15 3 5 12.9187 0.1219
15 3 6 7.1427 -0.1196
15 3 7 -2.3727 -0.1260
15 3 8 -2.4320 0.0963
15 3 9 1.6933 0.1113
15 3 10 2.0588 -0.1314
15 4 0 -1.6640 -0.2260
15 4 1 -1.2599 0.2416
15 4 2 0.4013 0.3278
15 4 3 2.5067 -0.0613
15 4 4 2.3537 -0.0621
15 4 5 0.6900 0.0809
15 4 6 7.9534 0.0607
15 4 7 3.9517 -0.1173
15 4 8 -5.1001 -0.0386
15 4 9 -2.9796 -0.0828
15 4 10 -4.7368 0.0339
15 4 11 -5.2935 -0.0357
15 5 0 4.0164 -0.0294
15 5 1 -2.3049 -0.0543
15 5 2 -1.6157 0.2306
15 5 3 2.2185 0.2868
15 5 4 -1.9558 -0.0826
15 5 5 -1.8156 -0.0489
15 5 6 -4.0075 0.0963
15 5 7 -1.5451 -0.0173
15 5 8 1.7681 -0.2482
15 5 9 -0.6971 -0.0088
15 5 10 -1.7858 -0.0040
15 5 11 -7.7488 0.1640
15 5 12 -5.9904 0.0164
15 6 0 1.4966 0.1728
15 6 1 -0.9015 0.0993
15 6 2 -1.9637 0.0167
15 6 3 -2.4167 0.1124
15 6 4 -2.9571 0.1830
15 6 5 -7.2484 -0.0958
15 6 6 -3.8133 -0.1501
15 6 7 -7.8143 -0.0022
15 6 8 -5.9818 -0.0035
15 6 9 8.4937 -0.0786
15 6 10 6.9886 0.2221
15 6 11 -5.9913 -0.0463
15 6 12 -12.4557 -0.1878
15 7 0 -2.5028 -0.0845
15 7 1 1.2641 0.2792
15 7 2 -1.8693 0.0661
15 7 3 -1.5185 -0.0171
15 7 4 -8.3847 0.0257
15 7 5 -7.7260 -0.0226
15 7 6 0.1458 -0.1467
15 7 7 1.8016 -0.0523
15 7 8 -11.8295 0.1766
15 7 9 -7.9198 0.1228
15 7 10 14.4011 -0.0994
15 7 11 8.9743 0.0020
15 7 12 -9.9417 -0.2111
15 8 0 -2.0221 -0.0006
15 8 1 0.5446 -0.1636
15 8 2 -1.5964 0.1164
15 8 3 -4.9528 -0.0274
15 8 4 -2.7717 -0.0499
15 8 5 -3.0117 0.0937
15 8 6 4.8894 -0.0318
15 8 7 6.9342 -0.0047
15 8 8 -8.4154 0.0965
15 8 9 -19.4725 0.0197
15 8 10 1.8725 -0.0965
15 9 1 3.9465 -0.1155
15 9 2 -4.1594 -0.3972
15 9 3 -5.3318 -0.0535
15 9 5 5.6248 0.0818
15 9 6 2.1176 0.2790
15 9 7 3.8528 0.0024
15 9 8 -2.6376 -0.0765
15 9 9 -10.9786 -0.0072
15 10 6 1.0259 0.2326
15 10 7 -2.4766 0.3621
16 -2 0 4.6959 -0.2616
16 -1 0 -0.3629 -0.2325
16 -1 1 5.4449 -0.1691
16 0 0 1.7347 -0.3456
16 0 1 -2.4931 -0.0598
16 0 2 5.6852 -0.2322
16 0 3 1.3524 0.2089
16 1 0 4.3780 0.1912
16 1 1 1.3369 -0.3175
16 1 2 -4.9158 0.1233
16 1 3 6.3600 -0.0527
16 2 0 4.7905 0.3949
16 2 1 2.6674 0.2051
16 2 2 -0.4683 -0.1963
16 2 3 -5.4389 0.1084
16 2 4 1.7695 -0.0168
16 3 0 5.6643 0.0735
16 3 1 6.9074 0.3267
16 3 2 -1.9935 0.0138
16 3 3 -4.4919 -0.2197
16 3 4 -6.3057 0.0393
16 3 5 -0.3160 0.1308
16 3 6 8.1770 -0.1527
16 3 7 13.8280 -0.0065
16 3 8 4.8554 0.0460
16 3 9 -12.7439 0.0383
16 4 0 -5.6730 -0.0862
16 4 1 5.6255 0.0662
16 4 2 5.9773 0.1742
16 4 3 -4.2487 -0.1612
16 4 4 -0.5859 -0.0621
16 4 5 -0.3333 0.0635
16 4 6 1.8730 0.1146
16 4 7 15.1534 -0.1609
16 4 8 22.1296 0.1117
16 4 9 3.7497 0.2266
16 4 10 -17.3050 -0.1813
16 5 1 -1.0901 -0.0461
16 5 2 7.9827 0.1441
16 5 3 5.1517 0.1399
16 5 4 0.5999 -0.2422
16 5 5 7.2190 0.0486
16 5 6 2.8709 0.0780
16 6 1 -5.9470 -0.5802
16 6 2 4.1212 0.2248
0 0 0 0.0 0.0
;
_olex2_submission_special_instructions 'No special instructions were received'
loop_
_space_group_symop_operation_xyz
'x, y, z'
'-x, -y, -z'
loop_
_atom_site_label
_atom_site_type_symbol
_atom_site_fract_x
_atom_site_fract_y
_atom_site_fract_z
_atom_site_U_iso_or_equiv
_atom_site_adp_type
_atom_site_occupancy
_atom_site_site_symmetry_order
_atom_site_calc_flag
_atom_site_refinement_flags_posn
_atom_site_refinement_flags_adp
C1 C 0.3777(11) 0.4434(10) 0.9110(6) 0.031(3) Uani 1 1 d . .
H1 H 0.3868 0.5075 0.8928 0.037 Uiso 1 1 calc R .
C2 C 0.4529(13) 0.2837(12) 0.9429(6) 0.038(4) Uani 1 1 d . .
H2 H 0.5141 0.2380 0.9454 0.045 Uiso 1 1 calc R .
C3 C 0.3521(11) 0.2559(10) 0.9661(6) 0.030(3) Uani 1 1 d . .
H3 H 0.3448 0.1924 0.9859 0.035 Uiso 1 1 calc R .
C4 C 0.2595(13) 0.3205(11) 0.9611(7) 0.038(4) Uani 1 1 d . .
H4 H 0.1890 0.3011 0.9759 0.046 Uiso 1 1 calc R .
C5 C 0.2739(11) 0.4160(11) 0.9331(6) 0.031(3) Uani 1 1 d . .
C6 C 0.1755(13) 0.4924(12) 0.9207(7) 0.040(4) Uani 1 1 d . .
C7 C -0.0022(12) 0.5733(13) 0.9477(7) 0.042(4) Uani 1 1 d . .
H7A H -0.0037 0.5897 0.9062 0.051 Uiso 1 1 calc R .
H7B H -0.0011 0.6331 0.9616 0.051 Uiso 1 1 calc R .
C8 C 0.1036(11) 0.4766(11) 1.0245(6) 0.031(3) Uani 1 1 d . .
H8A H 0.1085 0.5327 1.0414 0.037 Uiso 1 1 calc R .
H8B H 0.1695 0.4326 1.0314 0.037 Uiso 1 1 calc R .
C9 C 0.6587(12) 0.3622(10) 0.9997(6) 0.031(3) Uani 1 1 d . .
H9 H 0.5949 0.4036 1.0051 0.038 Uiso 1 1 calc R .
C10 C 0.7926(11) 0.2919(11) 0.9379(6) 0.031(3) Uani 1 1 d . .
H10 H 0.8212 0.2842 0.9008 0.038 Uiso 1 1 calc R .
C11 C 0.7136(12) 0.3186(11) 1.0473(7) 0.035(3) Uani 1 1 d . .
H11 H 0.6844 0.3279 1.0840 0.042 Uiso 1 1 calc R .
C12 C 0.8121(14) 0.2614(11) 1.0394(7) 0.042(4) Uani 1 1 d . .
H12 H 0.8511 0.2332 1.0705 0.051 Uiso 1 1 calc R .
C13 C 0.8512(12) 0.2471(10) 0.9846(6) 0.033(3) Uani 1 1 d . .
C14 C 0.9646(13) 0.1946(12) 0.9685(7) 0.041(4) Uani 1 1 d . .
C15 C 1.0952(14) 0.0528(12) 0.9837(9) 0.051(4) Uani 1 1 d . .
H15A H 1.1288 0.0437 1.0193 0.061 Uiso 1 1 calc R .
H15B H 1.1406 0.0941 0.9540 0.061 Uiso 1 1 calc R .
C16 C 1.0947(16) -0.0410(12) 0.9676(9) 0.054(5) Uani 1 1 d . .
H16A H 1.1687 -0.0744 0.9679 0.065 Uiso 1 1 calc R .
H16B H 1.0738 -0.0316 0.9288 0.065 Uiso 1 1 calc R .
Co1 Co 0.76810(14) 0.65662(12) 0.67021(8) 0.0226(4) Uani 1 1 d . .
Co2 Co 0.78880(15) 0.73535(13) 0.76602(8) 0.0236(4) Uani 1 1 d . .
Cu1 Cu 0.62048(14) 0.41178(13) 0.87662(7) 0.0297(4) Uani 1 1 d . .
Cu2 Cu 0.1685(3) 0.4806(3) 0.79579(14) 0.0862(9) Uani 1 1 d . .
Mo1 Mo 0.58366(9) 0.61179(8) 0.76505(5) 0.0235(3) Uani 1 1 d . .
Mo2 Mo 0.61599(10) 0.68637(9) 0.88226(5) 0.0282(3) Uani 1 1 d . .
Mo3 Mo 0.81639(11) 0.82785(9) 0.88003(6) 0.0328(3) Uani 1 1 d . .
Mo4 Mo 0.99548(11) 0.86921(10) 0.76378(6) 0.0352(3) Uani 1 1 d . .
Mo5 Mo 0.97345(10) 0.77080(10) 0.65265(5) 0.0316(3) Uani 1 1 d . .
Mo6 Mo 0.72392(10) 0.89206(9) 0.66526(5) 0.0290(3) Uani 1 1 d . .
Mo7 Mo 0.71955(10) 0.80435(9) 0.54889(5) 0.0287(3) Uani 1 1 d . .
Mo8 Mo 0.75096(11) 0.56528(9) 0.55469(5) 0.0305(3) Uani 1 1 d . .
Mo9 Mo 0.80064(10) 0.42356(9) 0.67764(5) 0.0278(3) Uani 1 1 d . .
Mo10 Mo 0.84436(9) 0.52134(8) 0.78583(5) 0.0238(3) Uani 1 1 d . .
N1 N 0.4681(9) 0.3776(9) 0.9155(5) 0.033(3) Uani 1 1 d . .
N2 N 0.0993(10) 0.5082(10) 0.9615(5) 0.036(3) Uani 1 1 d . .
N3 N 0.6945(9) 0.3465(9) 0.9461(5) 0.029(3) Uani 1 1 d . .
N4 N 0.9855(10) 0.1006(10) 0.9915(6) 0.042(3) Uani 1 1 d . .
O1 O 0.4906(8) 0.6309(7) 0.7163(4) 0.036(2) Uani 1 1 d . U
O50 O 0.6301(11) 0.2733(10) 0.8370(5) 0.058(3) Uani 1 1 d . U
H50A H 0.6128 0.2231 0.8638 0.088 Uiso 1 1 d GR .
H50B H 0.6988 0.2570 0.8239 0.088 Uiso 1 1 d GR .
O2 O 0.5552(8) 0.4992(7) 0.8106(4) 0.0314(17) Uani 1 1 d . U
O3 O 0.5306(8) 0.6930(7) 0.8166(4) 0.0294(16) Uani 1 1 d . U
O4 O 0.7316(8) 0.6226(7) 0.8123(4) 0.0286(14) Uani 1 1 d . U
O5 O 0.5924(9) 0.5701(7) 0.9178(4) 0.037(2) Uani 1 1 d . U
O6 O 0.5244(9) 0.7594(8) 0.9159(5) 0.042(2) Uani 1 1 d . U
O7 O 0.7502(8) 0.7055(7) 0.9094(4) 0.0325(17) Uani 1 1 d . U
O8 O 0.6943(8) 0.8084(7) 0.8173(4) 0.0281(15) Uani 1 1 d . U
O9 O 0.7232(9) 0.9072(8) 0.9117(5) 0.041(2) Uani 1 1 d . U
O10 O 0.9239(9) 0.8027(8) 0.9213(5) 0.044(2) Uani 1 1 d . U
O11 O 0.8765(8) 0.9200(7) 0.8140(5) 0.0370(18) Uani 1 1 d . U
O12 O 0.9049(8) 0.7405(7) 0.8133(4) 0.0316(16) Uani 1 1 d . U
O13 O 1.0988(9) 0.8490(9) 0.8062(5) 0.048(3) Uani 1 1 d . U
O14 O 1.0182(10) 0.9769(9) 0.7160(5) 0.051(3) Uani 1 1 d . U
O15 O 0.8472(8) 0.8444(7) 0.7136(4) 0.0303(15) Uani 1 1 d . U
O16 O 1.0509(8) 0.7728(7) 0.7163(4) 0.0353(18) Uani 1 1 d . U
O17 O 1.0144(9) 0.8720(8) 0.6066(5) 0.043(2) Uani 1 1 d . U
O18 O 1.0445(8) 0.6741(8) 0.6249(5) 0.042(2) Uani 1 1 d . U
O19 O 0.8742(8) 0.6505(7) 0.7217(4) 0.0286(15) Uani 1 1 d . U
O20 O 0.6792(7) 0.7327(7) 0.7174(4) 0.0269(14) Uani 1 1 d . U
O21 O 0.6261(9) 0.9360(7) 0.7146(5) 0.040(2) Uani 1 1 d . U
O22 O 0.7877(9) 0.9914(7) 0.6270(5) 0.040(2) Uani 1 1 d . U
O23 O 0.8267(8) 0.7737(7) 0.6251(4) 0.0292(15) Uani 1 1 d . U
O24 O 0.6412(8) 0.8677(7) 0.6100(4) 0.0328(17) Uani 1 1 d . U
O25 O 0.8047(9) 0.8914(8) 0.5127(5) 0.042(2) Uani 1 1 d . U
O26 O 0.6107(8) 0.8143(8) 0.5088(4) 0.038(2) Uani 1 1 d . U
O27 O 0.8071(8) 0.6916(7) 0.5258(4) 0.0338(17) Uani 1 1 d . U
O28 O 0.8550(8) 0.5664(7) 0.6276(4) 0.0280(15) Uani 1 1 d . U
O29 O 0.6664(7) 0.6679(7) 0.6126(4) 0.0270(15) Uani 1 1 d . U
O30 O 0.8560(9) 0.4983(8) 0.5213(5) 0.043(2) Uani 1 1 d . U
O31 O 0.6411(9) 0.5708(8) 0.5158(4) 0.041(2) Uani 1 1 d . U
O32 O 0.6998(8) 0.4702(7) 0.6220(4) 0.0322(17) Uani 1 1 d . U
O33 O 0.8977(9) 0.3543(7) 0.6420(4) 0.038(2) Uani 1 1 d . U
O34 O 0.7241(9) 0.3407(7) 0.7247(4) 0.036(2) Uani 1 1 d . U
O35 O 0.9035(8) 0.4505(7) 0.7301(4) 0.0293(16) Uani 1 1 d . U
O36 O 0.7160(7) 0.5460(6) 0.7219(4) 0.0258(14) Uani 1 1 d . U
O37 O 0.9604(8) 0.5336(8) 0.8183(4) 0.035(2) Uani 1 1 d . U
O38 O 0.7705(8) 0.4349(7) 0.8346(4) 0.0288(17) Uani 1 1 d . U
O39 O 1.0340(9) 0.2428(9) 0.9356(5) 0.054(3) Uani 1 1 d . U
O40 O 0.1695(10) 0.5303(11) 0.8696(5) 0.063(3) Uani 1 1 d . U
O43 O 0.1971(13) 0.6123(11) 0.7554(6) 0.077(4) Uani 1 1 d . U
H43A H 0.2702 0.6250 0.7517 0.115 Uiso 1 1 d GR .
H43B H 0.1647 0.6587 0.7754 0.115 Uiso 1 1 d GR .
O44 O 0.3471(15) 0.4298(13) 0.7780(8) 0.093(4) Uani 1 1 d . U
H44A H 0.3732 0.4238 0.7379 0.139 Uiso 1 1 d GR .
H44B H 0.3675 0.3625 0.7967 0.139 Uiso 1 1 d GR .
O45 O 0.1335(14) 0.4449(14) 0.7249(7) 0.090(4) Uani 1 1 d . U
H45A H 0.1610 0.3797 0.7189 0.135 Uiso 1 1 d GR .
H45B H 0.1677 0.4812 0.6882 0.135 Uiso 1 1 d GR .
O46 O 0.1265(17) 0.3507(14) 0.8348(8) 0.103(5) Uani 1 1 d . U
H46A H 0.1501 0.3042 0.8137 0.154 Uiso 1 1 d GR .
H46B H 0.0515 0.3454 0.8400 0.154 Uiso 1 1 d GR .
C17 C 0.7004(14) 0.2421(14) 0.6088(8) 0.050(4) Uani 1 1 d . .
H H 0.7137 0.2346 0.6470 0.060 Uiso 1 1 calc R .
C18 C 0.7630(15) 0.2358(13) 0.5152(7) 0.044(4) Uani 1 1 d . .
HA H 0.8212 0.2274 0.4867 0.053 Uiso 1 1 calc R .
C19 C 0.5936(16) 0.2634(15) 0.5957(9) 0.060(5) Uani 1 1 d . .
HB H 0.5358 0.2738 0.6241 0.072 Uiso 1 1 calc R .
C20 C 0.5735(16) 0.2689(17) 0.5407(10) 0.069(6) Uani 1 1 d . .
HC H 0.5016 0.2846 0.5304 0.083 Uiso 1 1 calc R .
C21 C 0.6576(13) 0.2517(12) 0.5015(8) 0.045(4) Uani 1 1 d . .
C22 C 0.6409(16) 0.2629(15) 0.4382(9) 0.058(5) Uani 1 1 d . .
C23 C 0.6822(12) 0.2082(11) 0.3462(7) 0.041(4) Uani 1 1 d . .
HD H 0.6551 0.2749 0.3318 0.050 Uiso 1 1 calc R .
HE H 0.7584 0.1986 0.3288 0.050 Uiso 1 1 calc R .
C24 C 0.6161(15) 0.1446(13) 0.3289(7) 0.050(4) Uani 1 1 d . .
HF H 0.6257 0.1526 0.2872 0.061 Uiso 1 1 calc R .
HG H 0.5380 0.1596 0.3413 0.061 Uiso 1 1 calc R .
C25 C 0.7161(15) 0.0913(12) 0.4357(8) 0.047(4) Uani 1 1 d . .
HH H 0.7062 0.0835 0.4774 0.057 Uiso 1 1 calc R .
HI H 0.7941 0.0759 0.4234 0.057 Uiso 1 1 calc R .
C26 C 0.6454(13) 0.0241(12) 0.4172(7) 0.043(4) Uani 1 1 d . .
HJ H 0.6718 -0.0430 0.4310 0.052 Uiso 1 1 calc R .
HK H 0.5687 0.0341 0.4337 0.052 Uiso 1 1 calc R .
C27 C 0.6918(16) -0.0201(13) 0.3230(8) 0.051(4) Uani 1 1 d . .
C28 C 0.7411(15) -0.1172(14) 0.3495(7) 0.047(4) Uani 1 1 d . .
C29 C 0.8449(13) -0.1254(12) 0.3711(7) 0.041(4) Uani 1 1 d . .
HL H 0.8769 -0.0689 0.3723 0.050 Uiso 1 1 calc R .
C30 C 0.8492(15) -0.2923(13) 0.3895(8) 0.050(4) Uani 1 1 d . .
HM H 0.8848 -0.3524 0.4039 0.060 Uiso 1 1 calc R .
C31 C 0.7484(15) -0.2920(14) 0.3689(10) 0.060(5) Uani 1 1 d . .
HN H 0.7161 -0.3493 0.3699 0.072 Uiso 1 1 calc R .
C32 C 0.6981(17) -0.2023(17) 0.3469(9) 0.065(6) Uani 1 1 d . .
HO H 0.6332 -0.1991 0.3298 0.078 Uiso 1 1 calc R .
Cu3 Cu 0.94418(15) 0.21944(13) 0.58854(8) 0.0329(4) Uani 1 1 d . .
N5 N 0.7858(10) 0.2317(9) 0.5694(6) 0.036(3) Uani 1 1 d . .
N6 N 0.6809(11) 0.1930(9) 0.4088(6) 0.043(3) Uani 1 1 d . .
N7 N 0.6515(11) 0.0433(10) 0.3553(6) 0.042(3) Uani 1 1 d . .
N8 N 0.9000(10) -0.2125(8) 0.3903(5) 0.033(3) Uani 1 1 d . .
O41 O 0.5850(15) 0.3378(11) 0.4138(7) 0.084(5) Uani 1 1 d . U
O42 O 0.6857(15) -0.0037(13) 0.2695(6) 0.088(6) Uani 1 1 d . U
O47 O 0.8930(10) 0.1366(10) 0.6630(6) 0.059(3) Uani 1 1 d . U
HP H 0.9236 0.1484 0.6932 0.089 Uiso 1 1 d GR .
HQ H 0.9164 0.0733 0.6641 0.089 Uiso 1 1 d GR .
O48 O 0.9821(8) 0.3179(7) 0.5174(4) 0.038(2) Uani 1 1 d . U
HR H 0.9411 0.3721 0.5183 0.056 Uiso 1 1 d GR .
HS H 0.9642 0.2999 0.4872 0.056 Uiso 1 1 d GR .
O49 O 0.9798(10) 0.0868(8) 0.5436(5) 0.047(3) Uani 1 1 d . U
HT H 0.9194 0.0747 0.5317 0.071 Uiso 1 1 d GR .
HU H 0.9963 0.0344 0.5683 0.071 Uiso 1 1 d GR .
loop_
_atom_site_aniso_label
_atom_site_aniso_U_11
_atom_site_aniso_U_22
_atom_site_aniso_U_33
_atom_site_aniso_U_23
_atom_site_aniso_U_13
_atom_site_aniso_U_12
C1 0.022(7) 0.022(7) 0.045(8) 0.002(6) -0.002(6) -0.004(5)
C2 0.035(8) 0.041(9) 0.032(8) -0.005(7) 0.004(6) 0.009(7)
C3 0.017(6) 0.020(7) 0.047(8) -0.002(6) 0.006(6) -0.003(5)
C4 0.027(8) 0.037(9) 0.052(10) -0.014(7) 0.000(7) -0.007(7)
C5 0.017(7) 0.038(8) 0.038(8) -0.006(6) -0.004(6) -0.009(6)
C6 0.029(8) 0.038(9) 0.044(9) 0.003(7) 0.004(7) 0.009(7)
C7 0.028(8) 0.052(10) 0.037(8) 0.000(7) 0.002(6) 0.014(7)
C8 0.020(7) 0.038(8) 0.035(8) -0.004(6) -0.016(6) 0.003(6)
C9 0.030(8) 0.025(7) 0.037(8) -0.001(6) -0.002(6) -0.003(6)
C10 0.022(7) 0.039(8) 0.031(7) 0.001(6) -0.004(6) -0.005(6)
C11 0.028(8) 0.039(9) 0.038(8) -0.007(7) -0.006(6) -0.002(6)
C12 0.051(10) 0.033(9) 0.040(9) 0.006(7) -0.012(7) -0.008(7)
C13 0.034(8) 0.021(7) 0.044(8) 0.000(6) -0.009(7) -0.014(6)
C14 0.035(9) 0.038(9) 0.048(9) -0.004(7) -0.012(7) -0.001(7)
C15 0.041(10) 0.035(9) 0.070(12) -0.006(8) 0.002(9) 0.004(7)
C16 0.050(11) 0.033(9) 0.074(13) -0.008(9) 0.007(9) 0.005(8)
Co1 0.0191(9) 0.0168(9) 0.0293(9) 0.0000(7) -0.0021(7) 0.0004(7)
Co2 0.0193(9) 0.0205(9) 0.0299(9) -0.0017(7) -0.0026(7) -0.0032(7)
Cu1 0.0191(8) 0.0300(9) 0.0342(9) 0.0057(7) -0.0019(7) -0.0002(7)
Cu2 0.075(2) 0.098(2) 0.0767(19) 0.0045(17) -0.0047(16) -0.0111(18)
Mo1 0.0157(5) 0.0227(6) 0.0296(6) 0.0004(5) -0.0032(4) -0.0007(4)
Mo2 0.0269(6) 0.0265(6) 0.0296(6) -0.0036(5) -0.0013(5) -0.0006(5)
Mo3 0.0367(7) 0.0267(7) 0.0359(7) -0.0054(5) -0.0089(5) -0.0020(5)
Mo4 0.0280(7) 0.0305(7) 0.0454(8) 0.0018(6) -0.0079(6) -0.0084(5)
Mo5 0.0199(6) 0.0360(7) 0.0350(7) 0.0031(5) -0.0027(5) -0.0049(5)
Mo6 0.0270(6) 0.0199(6) 0.0385(7) -0.0002(5) -0.0072(5) -0.0013(5)
Mo7 0.0265(6) 0.0252(6) 0.0314(6) 0.0019(5) -0.0057(5) -0.0007(5)
Mo8 0.0307(7) 0.0277(7) 0.0325(7) -0.0048(5) -0.0042(5) -0.0010(5)
Mo9 0.0287(6) 0.0199(6) 0.0337(6) -0.0043(5) -0.0016(5) -0.0011(5)
Mo10 0.0183(5) 0.0209(6) 0.0296(6) -0.0002(5) -0.0032(4) 0.0007(4)
N1 0.014(5) 0.043(7) 0.039(7) 0.003(6) -0.007(5) -0.002(5)
N2 0.021(6) 0.050(8) 0.031(6) -0.002(6) -0.007(5) 0.010(6)
N3 0.018(6) 0.030(6) 0.037(6) -0.003(5) -0.004(5) -0.002(5)
N4 0.015(6) 0.035(7) 0.067(9) 0.005(6) 0.005(6) -0.004(5)
O1 0.032(5) 0.034(5) 0.039(5) 0.003(4) -0.009(4) 0.000(4)
O50 0.050(6) 0.065(7) 0.056(6) -0.013(6) 0.013(5) -0.007(6)
O2 0.024(3) 0.029(3) 0.040(4) -0.002(3) -0.007(3) -0.002(3)
O3 0.027(3) 0.025(3) 0.037(3) -0.007(3) -0.005(3) 0.001(3)
O4 0.022(3) 0.027(3) 0.034(3) -0.001(3) -0.003(2) -0.002(2)
O5 0.040(5) 0.029(5) 0.040(5) 0.003(4) -0.002(4) -0.009(4)
O6 0.039(5) 0.044(5) 0.040(5) -0.009(4) 0.002(4) -0.005(4)
O7 0.025(3) 0.034(3) 0.037(3) -0.002(3) -0.009(3) -0.001(3)
O8 0.024(3) 0.023(3) 0.038(3) -0.007(3) -0.005(3) 0.000(3)
O9 0.040(5) 0.032(5) 0.053(5) -0.013(4) -0.007(4) 0.000(4)
O10 0.044(5) 0.041(5) 0.049(5) -0.009(4) -0.018(4) -0.001(4)
O11 0.033(3) 0.030(3) 0.047(4) -0.002(3) -0.009(3) -0.003(3)
O12 0.025(3) 0.031(3) 0.037(3) -0.001(3) -0.007(3) -0.002(3)
O13 0.038(5) 0.045(6) 0.060(6) -0.004(5) -0.015(5) -0.004(5)
O14 0.042(5) 0.045(5) 0.062(6) 0.003(5) -0.005(5) -0.017(5)
O15 0.023(3) 0.027(3) 0.039(3) -0.002(3) -0.006(3) -0.004(3)
O16 0.027(3) 0.030(3) 0.046(4) 0.001(3) -0.003(3) -0.008(3)
O17 0.028(4) 0.043(5) 0.053(5) 0.012(4) -0.009(4) -0.007(4)
O18 0.023(5) 0.049(5) 0.048(5) -0.006(5) 0.004(4) 0.003(4)
O19 0.022(3) 0.026(3) 0.035(3) -0.001(3) -0.002(3) -0.001(3)
O20 0.023(3) 0.023(3) 0.035(3) -0.003(3) -0.004(3) -0.004(2)
O21 0.045(5) 0.030(5) 0.047(5) -0.013(4) -0.015(4) 0.013(4)
O22 0.041(5) 0.022(4) 0.054(5) 0.001(4) -0.008(4) -0.008(4)
O23 0.023(3) 0.025(3) 0.036(3) -0.001(3) -0.001(3) -0.003(3)
O24 0.031(3) 0.026(3) 0.038(3) 0.000(3) -0.004(3) 0.001(3)
O25 0.036(5) 0.036(5) 0.045(5) 0.010(4) 0.001(4) -0.004(4)
O26 0.030(5) 0.037(5) 0.044(5) 0.000(4) -0.011(4) -0.003(4)
O27 0.030(3) 0.032(3) 0.035(3) 0.002(3) -0.001(3) -0.002(3)
O28 0.024(3) 0.025(3) 0.032(3) -0.001(3) -0.001(3) 0.001(3)
O29 0.022(3) 0.023(3) 0.034(3) 0.001(3) -0.003(3) -0.004(3)
O30 0.045(5) 0.043(5) 0.040(5) -0.005(4) -0.005(4) -0.002(4)
O31 0.045(5) 0.039(5) 0.039(5) -0.004(4) -0.010(4) -0.005(4)
O32 0.029(3) 0.027(3) 0.037(3) -0.001(3) -0.001(3) -0.001(3)
O33 0.038(5) 0.030(5) 0.042(5) -0.001(4) 0.001(4) -0.005(4)
O34 0.034(4) 0.034(4) 0.040(4) -0.006(4) -0.002(4) -0.005(4)
O35 0.025(3) 0.024(3) 0.036(3) -0.001(3) -0.003(3) 0.001(3)
O36 0.022(3) 0.022(3) 0.034(3) -0.004(2) -0.002(2) -0.005(2)
O37 0.024(4) 0.038(5) 0.042(5) -0.003(4) -0.005(4) -0.003(4)
O38 0.026(3) 0.023(3) 0.034(4) 0.001(3) -0.001(3) 0.001(3)
O39 0.031(6) 0.047(7) 0.066(8) 0.018(6) 0.004(6) 0.003(5)
O40 0.044(6) 0.090(8) 0.043(6) 0.005(6) 0.001(5) 0.006(6)
O43 0.059(7) 0.080(8) 0.080(7) 0.009(7) -0.005(6) -0.010(6)
O44 0.092(4) 0.093(4) 0.092(4) -0.016(2) -0.009(2) -0.007(2)
O45 0.084(9) 0.093(9) 0.090(8) -0.016(8) -0.001(7) -0.013(8)
O46 0.106(9) 0.092(9) 0.096(9) 0.001(8) 0.011(8) -0.008(8)
C17 0.037(9) 0.064(12) 0.056(11) -0.023(9) -0.003(8) -0.013(9)
C18 0.045(10) 0.050(10) 0.039(9) -0.005(8) -0.010(7) -0.007(8)
C19 0.039(10) 0.073(14) 0.077(14) -0.031(11) -0.005(9) -0.017(10)
C20 0.029(10) 0.091(17) 0.103(17) -0.053(14) -0.020(10) 0.006(10)
C21 0.026(8) 0.039(9) 0.078(12) -0.011(8) -0.020(8) -0.020(7)
C22 0.047(11) 0.053(12) 0.068(13) 0.011(10) -0.017(9) -0.005(9)
C23 0.022(7) 0.030(8) 0.064(11) 0.006(7) 0.000(7) 0.001(6)
C24 0.045(10) 0.052(11) 0.044(10) 0.005(8) 0.003(8) 0.003(8)
C25 0.049(10) 0.039(10) 0.049(10) 0.004(8) -0.008(8) -0.005(8)
C26 0.027(8) 0.043(10) 0.055(10) -0.003(8) 0.008(7) -0.012(7)
C27 0.061(12) 0.035(9) 0.057(11) -0.010(8) -0.016(9) 0.009(8)
C28 0.046(10) 0.064(12) 0.029(8) -0.002(8) -0.009(7) 0.001(9)
C29 0.027(8) 0.038(9) 0.055(10) 0.003(7) -0.016(7) 0.007(7)
C30 0.043(10) 0.040(10) 0.063(11) -0.009(8) -0.002(8) 0.003(8)
C31 0.032(9) 0.046(11) 0.106(17) -0.021(11) -0.015(10) -0.009(8)
C32 0.046(12) 0.076(15) 0.078(14) -0.026(12) -0.018(10) 0.000(11)
Cu3 0.0276(9) 0.0258(9) 0.0431(10) -0.0016(8) -0.0027(8) -0.0039(7)
N5 0.018(6) 0.030(7) 0.063(9) -0.012(6) -0.009(6) -0.005(5)
N6 0.038(8) 0.025(7) 0.064(9) 0.000(6) -0.014(7) -0.001(6)
N7 0.042(8) 0.039(8) 0.045(8) -0.001(6) -0.010(6) -0.007(6)
N8 0.035(7) 0.022(6) 0.037(7) -0.005(5) 0.008(5) -0.001(5)
O41 0.099(13) 0.059(10) 0.086(11) -0.004(8) -0.028(9) 0.030(9)
O42 0.110(13) 0.100(13) 0.047(8) -0.018(8) -0.024(8) 0.051(10)
O47 0.049(6) 0.051(7) 0.062(7) 0.009(6) 0.008(6) 0.001(5)
O48 0.033(5) 0.027(5) 0.045(5) 0.007(4) -0.003(4) 0.001(4)
O49 0.046(6) 0.030(5) 0.064(7) -0.001(5) -0.004(5) -0.013(5)
loop_
_atom_type_symbol
_atom_type_description
_atom_type_scat_dispersion_real
_atom_type_scat_dispersion_imag
_atom_type_scat_source
C C 0.0033 0.0016 'International Tables Vol C Tables 4.2.6.8 and 6.1.1.4'
H H 0.0000 0.0000 'International Tables Vol C Tables 4.2.6.8 and 6.1.1.4'
Co Co 0.3494 0.9721 'International Tables Vol C Tables 4.2.6.8 and 6.1.1.4'
Cu Cu 0.3201 1.2651 'International Tables Vol C Tables 4.2.6.8 and 6.1.1.4'
Mo Mo -1.6832 0.6857 'International Tables Vol C Tables 4.2.6.8 and 6.1.1.4'
N N 0.0061 0.0033 'International Tables Vol C Tables 4.2.6.8 and 6.1.1.4'
O O 0.0106 0.0060 'International Tables Vol C Tables 4.2.6.8 and 6.1.1.4'
loop_
_geom_angle_atom_site_label_1
_geom_angle_atom_site_label_2
_geom_angle_atom_site_label_3
_geom_angle
_geom_angle_site_symmetry_1
_geom_angle_site_symmetry_3
N1 C1 C5 120.5(13) . .
C3 C2 N1 121.7(14) . .
C2 C3 C4 120.6(14) . .
C3 C4 C5 118.2(14) . .
C1 C5 C4 120.3(14) . .
C1 C5 C6 116.9(13) . .
C4 C5 C6 122.6(13) . .
N2 C6 C5 120.7(14) . .
O40 C6 C5 116.3(14) . .
O40 C6 N2 122.8(14) . .
N2 C7 C8 109.6(13) . 2_567
N2 C8 C7 110.6(11) . 2_567
N3 C9 C11 122.4(14) . .
N3 C10 C13 121.1(14) . .
C12 C11 C9 119.4(15) . .
C13 C12 C11 118.7(15) . .
C10 C13 C14 115.4(14) . .
C12 C13 C10 120.0(15) . .
C12 C13 C14 124.2(14) . .
N4 C14 C13 119.6(14) . .
O39 C14 C13 117.5(14) . .
O39 C14 N4 122.8(15) . .
N4 C15 C16 112.5(16) . .
C15 C16 N4 109.8(15) . 2_757
Co2 Co1 Mo1 67.17(6) . .
Co2 Co1 Mo5 67.80(6) . .
Mo1 Co1 Mo5 134.96(7) . .
O19 Co1 Co2 42.5(3) . .
O19 Co1 Mo1 93.1(3) . .
O19 Co1 Mo5 52.1(3) . .
O19 Co1 O23 89.3(4) . .
O19 Co1 O28 94.3(4) . .
O19 Co1 O29 175.7(4) . .
O19 Co1 O36 84.9(4) . .
O20 Co1 Co2 42.3(3) . .
O20 Co1 Mo1 47.2(3) . .
O20 Co1 Mo5 96.3(3) . .
O20 Co1 O19 84.7(4) . .
O20 Co1 O23 88.6(4) . .
O20 Co1 O28 173.9(4) . .
O20 Co1 O29 97.2(4) . .
O20 Co1 O36 87.6(4) . .
O23 Co1 Co2 85.8(3) . .
O23 Co1 Mo1 135.1(3) . .
O23 Co1 Mo5 39.2(3) . .
O23 Co1 O28 97.4(4) . .
O23 Co1 O29 87.0(4) . .
O28 Co1 Co2 136.8(3) . .
O28 Co1 Mo1 127.0(3) . .
O28 Co1 Mo5 87.8(3) . .
O28 Co1 O29 84.2(4) . .
O29 Co1 Co2 139.0(3) . .
O29 Co1 Mo1 91.0(3) . .
O29 Co1 Mo5 123.7(3) . .
O36 Co1 Co2 87.8(3) . .
O36 Co1 Mo1 42.3(3) . .
O36 Co1 Mo5 136.0(3) . .
O36 Co1 O23 173.4(4) . .
O36 Co1 O28 86.3(4) . .
O36 Co1 O29 98.9(4) . .
Co1 Co2 Mo6 68.49(6) . .
Co1 Co2 Mo10 67.36(6) . .
Mo10 Co2 Mo6 135.80(7) . .
O4 Co2 Co1 87.6(3) . .
O4 Co2 Mo6 138.0(3) . .
O4 Co2 Mo10 41.8(3) . .
O4 Co2 O8 87.2(4) . .
O4 Co2 O12 95.5(4) . .
O4 Co2 O15 175.1(4) . .
O4 Co2 O19 85.9(4) . .
O4 Co2 O20 86.4(4) . .
O8 Co2 Co1 137.6(3) . .
O8 Co2 Mo6 88.3(3) . .
O8 Co2 Mo10 127.1(3) . .
O12 Co2 Co1 136.9(3) . .
O12 Co2 Mo6 125.7(3) . .
O12 Co2 Mo10 86.9(3) . .
O12 Co2 O8 85.5(4) . .
O15 Co2 Co1 87.5(3) . .
O15 Co2 Mo6 39.8(3) . .
O15 Co2 Mo10 135.0(3) . .
O15 Co2 O8 96.8(4) . .
O15 Co2 O12 87.6(4) . .
O19 Co2 Co1 42.2(3) . .
O19 Co2 Mo6 96.9(3) . .
O19 Co2 Mo10 46.2(3) . .
O19 Co2 O8 173.1(4) . .
O19 Co2 O12 95.1(4) . .
O19 Co2 O15 90.0(4) . .
O20 Co2 Co1 41.9(3) . .
O20 Co2 Mo6 52.6(3) . .
O20 Co2 Mo10 93.8(3) . .
O20 Co2 O8 95.7(4) . .
O20 Co2 O12 177.8(4) . .
O20 Co2 O15 90.4(4) . .
O20 Co2 O19 84.0(4) . .
N1 Cu1 O50 87.5(5) . .
N3 Cu1 N1 92.7(5) . .
N3 Cu1 O50 95.4(5) . .
O2 Cu1 N1 91.5(4) . .
O2 Cu1 N3 169.4(5) . .
O2 Cu1 O50 94.5(4) . .
O38 Cu1 N1 174.6(5) . .
O38 Cu1 N3 88.3(4) . .
O38 Cu1 O50 87.0(4) . .
O38 Cu1 O2 88.4(4) . .
O40 Cu2 O44 101.1(6) . .
O43 Cu2 O40 86.3(6) . .
O43 Cu2 O44 91.1(7) . .
O43 Cu2 O45 91.9(7) . .
O43 Cu2 O46 175.0(8) . .
O45 Cu2 O40 167.4(7) . .
O45 Cu2 O44 91.4(7) . .
O46 Cu2 O40 94.9(7) . .
O46 Cu2 O44 93.4(8) . .
O46 Cu2 O45 85.8(8) . .
O1 Mo1 Co1 90.3(4) . .
O1 Mo1 O2 105.2(5) . .
O1 Mo1 O3 105.6(5) . .
O1 Mo1 O4 163.3(4) . .
O1 Mo1 O20 92.9(4) . .
O1 Mo1 O36 100.7(4) . .
O2 Mo1 Co1 129.1(3) . .
O2 Mo1 O3 98.6(4) . .
O2 Mo1 O4 91.1(4) . .
O2 Mo1 O20 159.2(4) . .
O2 Mo1 O36 90.5(4) . .
O3 Mo1 Co1 123.8(3) . .
O3 Mo1 O4 74.7(4) . .
O3 Mo1 O20 86.0(4) . .
O3 Mo1 O36 148.7(4) . .
O4 Mo1 Co1 76.3(2) . .
O20 Mo1 Co1 38.8(2) . .
O20 Mo1 O4 70.4(3) . .
O36 Mo1 Co1 38.7(2) . .
O36 Mo1 O4 75.2(4) . .
O36 Mo1 O20 75.9(4) . .
O3 Mo2 O4 72.2(4) . .
O3 Mo2 O8 79.1(4) . .
O5 Mo2 O3 98.7(4) . .
O5 Mo2 O4 89.0(4) . .
O5 Mo2 O7 101.8(5) . .
O5 Mo2 O8 159.2(4) . .
O6 Mo2 O3 95.7(5) . .
O6 Mo2 O4 162.5(4) . .
O6 Mo2 O5 105.6(5) . .
O6 Mo2 O7 101.1(5) . .
O6 Mo2 O8 95.2(4) . .
O7 Mo2 O3 148.8(4) . .
O7 Mo2 O4 84.8(4) . .
O7 Mo2 O8 73.3(4) . .
O8 Mo2 O4 70.5(3) . .
O7 Mo3 O8 71.4(4) . .
O7 Mo3 O12 80.8(4) . .
O9 Mo3 O7 101.7(5) . .
O9 Mo3 O8 93.1(4) . .
O9 Mo3 O11 98.3(5) . .
O9 Mo3 O12 160.9(4) . .
O10 Mo3 O7 96.0(5) . .
O10 Mo3 O8 159.6(4) . .
O10 Mo3 O9 105.4(5) . .
O10 Mo3 O11 102.3(5) . .
O10 Mo3 O12 93.1(5) . .
O11 Mo3 O7 148.1(4) . .
O11 Mo3 O8 83.0(4) . .
O11 Mo3 O12 72.5(4) . .
O12 Mo3 O8 69.5(3) . .
O11 Mo4 O12 73.6(4) . .
O11 Mo4 O15 83.5(4) . .
O11 Mo4 O16 148.7(4) . .
O12 Mo4 O15 69.9(3) . .
O13 Mo4 O11 100.4(5) . .
O13 Mo4 O12 94.3(5) . .
O13 Mo4 O14 106.3(6) . .
O13 Mo4 O15 162.1(5) . .
O13 Mo4 O16 97.6(5) . .
O14 Mo4 O11 97.3(5) . .
O14 Mo4 O12 158.8(5) . .
O14 Mo4 O15 90.4(5) . .
O14 Mo4 O16 102.0(5) . .
O16 Mo4 O12 79.8(4) . .
O16 Mo4 O15 72.0(4) . .
O15 Mo5 Co1 75.1(2) . .
O15 Mo5 O19 69.8(3) . .
O16 Mo5 Co1 119.9(3) . .
O16 Mo5 O15 75.3(4) . .
O16 Mo5 O19 82.7(4) . .
O16 Mo5 O23 146.2(4) . .
O17 Mo5 Co1 134.1(4) . .
O17 Mo5 O15 98.1(5) . .
O17 Mo5 O16 101.0(5) . .
O17 Mo5 O18 105.6(6) . .
O17 Mo5 O19 166.3(4) . .
O17 Mo5 O23 96.3(4) . .
O18 Mo5 Co1 86.2(4) . .
O18 Mo5 O15 156.2(4) . .
O18 Mo5 O16 102.4(5) . .
O18 Mo5 O19 86.3(4) . .
O18 Mo5 O23 100.7(5) . .
O19 Mo5 Co1 38.1(2) . .
O23 Mo5 Co1 37.9(3) . .
O23 Mo5 O15 73.6(4) . .
O23 Mo5 O19 74.4(3) . .
O15 Mo6 Co2 37.8(3) . .
O15 Mo6 O20 74.7(3) . .
O15 Mo6 O23 73.7(4) . .
O20 Mo6 Co2 38.4(2) . .
O21 Mo6 Co2 86.0(3) . .
O21 Mo6 O15 100.5(5) . .
O21 Mo6 O20 85.9(4) . .
O21 Mo6 O23 154.8(4) . .
O21 Mo6 O24 104.3(5) . .
O22 Mo6 Co2 132.1(4) . .
O22 Mo6 O15 94.4(5) . .
O22 Mo6 O20 166.0(4) . .
O22 Mo6 O21 105.1(5) . .
O22 Mo6 O23 99.8(4) . .
O22 Mo6 O24 100.3(5) . .
O23 Mo6 Co2 74.5(2) . .
O23 Mo6 O20 68.9(3) . .
O24 Mo6 Co2 122.3(3) . .
O24 Mo6 O15 146.6(4) . .
O24 Mo6 O20 85.0(4) . .
O24 Mo6 O23 74.3(4) . .
O24 Mo7 O23 71.7(4) . .
O24 Mo7 O29 81.9(4) . .
O25 Mo7 O23 89.8(4) . .
O25 Mo7 O24 101.2(5) . .
O25 Mo7 O26 105.4(5) . .
O25 Mo7 O27 98.0(5) . .
O25 Mo7 O29 158.2(4) . .
O26 Mo7 O23 162.9(4) . .
O26 Mo7 O24 97.3(5) . .
O26 Mo7 O27 100.4(5) . .
O26 Mo7 O29 95.4(4) . .
O27 Mo7 O23 84.8(4) . .
O27 Mo7 O24 149.3(4) . .
O27 Mo7 O29 71.6(4) . .
O29 Mo7 O23 70.5(3) . .
O27 Mo8 O28 82.0(4) . .
O27 Mo8 O29 72.1(4) . .
O27 Mo8 O32 146.9(4) . .
O29 Mo8 O28 69.3(3) . .
O30 Mo8 O27 97.5(5) . .
O30 Mo8 O28 91.3(4) . .
O30 Mo8 O29 158.8(4) . .
O30 Mo8 O32 101.7(5) . .
O31 Mo8 O27 102.2(5) . .
O31 Mo8 O28 162.6(4) . .
O31 Mo8 O29 95.7(4) . .
O31 Mo8 O30 104.7(5) . .
O31 Mo8 O32 98.7(5) . .
O32 Mo8 O28 70.9(4) . .
O32 Mo8 O29 80.5(4) . .
O28 Mo9 O36 70.5(3) . .
O32 Mo9 O28 72.9(4) . .
O32 Mo9 O35 149.6(4) . .
O32 Mo9 O36 85.1(4) . .
O33 Mo9 O28 95.5(4) . .
O33 Mo9 O32 101.9(5) . .
O33 Mo9 O34 104.0(5) . .
O33 Mo9 O35 95.2(5) . .
O33 Mo9 O36 162.0(4) . .
O34 Mo9 O28 160.4(4) . .
O34 Mo9 O32 100.3(5) . .
O34 Mo9 O35 99.8(4) . .
O34 Mo9 O36 90.8(4) . .
O35 Mo9 O28 80.6(4) . .
O35 Mo9 O36 72.0(4) . .
O4 Mo10 Co2 38.6(3) . .
O4 Mo10 O19 76.3(4) . .
O4 Mo10 O36 75.7(4) . .
O19 Mo10 Co2 39.4(3) . .
O19 Mo10 O36 70.1(3) . .
O35 Mo10 Co2 125.9(3) . .
O35 Mo10 O4 149.7(4) . .
O35 Mo10 O19 87.4(4) . .
O35 Mo10 O36 74.8(4) . .
O36 Mo10 Co2 76.8(2) . .
O37 Mo10 Co2 90.5(3) . .
O37 Mo10 O4 102.9(4) . .
O37 Mo10 O19 91.4(4) . .
O37 Mo10 O35 102.8(5) . .
O37 Mo10 O36 161.3(4) . .
O38 Mo10 Co2 125.9(3) . .
O38 Mo10 O4 87.4(4) . .
O38 Mo10 O19 158.9(4) . .
O38 Mo10 O35 100.9(4) . .
O38 Mo10 O36 93.2(4) . .
O38 Mo10 O37 105.5(5) . .
C1 N1 C2 118.7(12) . .
C1 N1 Cu1 121.7(10) . .
C2 N1 Cu1 119.4(10) . .
C6 N2 C7 120.0(13) . .
C6 N2 C8 127.4(12) . .
C8 N2 C7 112.4(11) . .
C9 N3 C10 118.2(12) . .
C9 N3 Cu1 123.2(10) . .
C10 N3 Cu1 118.1(9) . .
C14 N4 C15 121.0(13) . .
C14 N4 C16 124.4(14) . 2_757
C15 N4 C16 114.2(13) . 2_757
Mo1 O2 Cu1 136.6(5) . .
Mo1 O3 Mo2 117.1(5) . .
Co2 O4 Mo1 100.0(4) . .
Co2 O4 Mo2 101.4(4) . .
Co2 O4 Mo10 99.7(4) . .
Mo1 O4 Mo2 91.0(3) . .
Mo10 O4 Mo1 102.5(4) . .
Mo10 O4 Mo2 152.5(5) . .
Mo2 O7 Mo3 118.5(5) . .
Co2 O8 Mo2 100.8(4) . .
Co2 O8 Mo3 102.1(4) . .
Mo2 O8 Mo3 92.1(3) . .
Mo4 O11 Mo3 116.2(5) . .
Co2 O12 Mo3 102.9(4) . .
Co2 O12 Mo4 103.0(4) . .
Mo4 O12 Mo3 92.1(4) . .
Co2 O15 Mo4 99.4(4) . .
Co2 O15 Mo5 101.9(4) . .
Co2 O15 Mo6 102.4(4) . .
Mo5 O15 Mo4 89.5(3) . .
Mo6 O15 Mo4 152.6(5) . .
Mo6 O15 Mo5 102.0(4) . .
Mo5 O16 Mo4 117.2(5) . .
Co1 O19 Co2 95.3(4) . .
Co1 O19 Mo5 89.8(4) . .
Co1 O19 Mo10 104.8(4) . .
Co2 O19 Mo5 98.0(4) . .
Co2 O19 Mo10 94.4(4) . .
Mo10 O19 Mo5 159.9(5) . .
Co1 O20 Co2 95.7(4) . .
Co1 O20 Mo1 94.0(4) . .
Co1 O20 Mo6 99.3(4) . .
Co2 O20 Mo1 102.8(4) . .
Co2 O20 Mo6 89.0(3) . .
Mo1 O20 Mo6 161.3(4) . .
Co1 O23 Mo5 102.9(4) . .
Co1 O23 Mo6 102.8(4) . .
Co1 O23 Mo7 100.9(4) . .
Mo5 O23 Mo6 102.9(4) . .
Mo5 O23 Mo7 148.9(5) . .
Mo6 O23 Mo7 91.0(3) . .
Mo6 O24 Mo7 117.9(5) . .
Mo8 O27 Mo7 117.8(5) . .
Co1 O28 Mo8 103.2(4) . .
Co1 O28 Mo9 101.8(4) . .
Mo9 O28 Mo8 92.9(3) . .
Co1 O29 Mo7 101.6(4) . .
Co1 O29 Mo8 103.3(4) . .
Mo8 O29 Mo7 93.6(3) . .
Mo9 O32 Mo8 117.2(5) . .
Mo10 O35 Mo9 117.7(5) . .
Co1 O36 Mo1 99.0(4) . .
Co1 O36 Mo9 101.3(4) . .
Co1 O36 Mo10 100.0(4) . .
Mo1 O36 Mo9 152.9(4) . .
Mo1 O36 Mo10 101.8(4) . .
Mo10 O36 Mo9 92.3(3) . .
Mo10 O38 Cu1 142.6(5) . .
C6 O40 Cu2 135.3(14) . .
N5 C17 C19 122.7(18) . .
N5 C18 C21 121.5(17) . .
C20 C19 C17 118.7(19) . .
C21 C20 C19 119.1(18) . .
C18 C21 C22 117.6(17) . .
C20 C21 C18 120.6(18) . .
C20 C21 C22 121.3(16) . .
N6 C22 C21 120.7(16) . .
O41 C22 C21 120(2) . .
O41 C22 N6 119.7(19) . .
C24 C23 N6 113.0(13) . .
C23 C24 N7 108.5(14) . .
N6 C25 C26 108.2(14) . .
N7 C26 C25 109.6(13) . .
N7 C27 C28 120.3(16) . .
O42 C27 C28 117.4(16) . .
O42 C27 N7 122.2(16) . .
C29 C28 C27 119.6(17) . .
C32 C28 C27 122.7(17) . .
C32 C28 C29 117.0(18) . .
N8 C29 C28 122.6(16) . .
N8 C30 C31 125.2(17) . .
C32 C31 C30 116.3(17) . .
C28 C32 C31 122.0(18) . .
N5 Cu3 O49 88.6(5) . .
N8 Cu3 N5 177.2(5) 2_756 .
N8 Cu3 O49 94.2(5) 2_756 .
O47 Cu3 N5 87.6(5) . .
O47 Cu3 N8 92.1(5) . 2_756
O47 Cu3 O48 172.0(5) . .
O47 Cu3 O49 91.9(5) . .
O48 Cu3 N5 89.0(5) . .
O48 Cu3 N8 90.9(4) . 2_756
O48 Cu3 O49 95.2(4) . .
C17 N5 C18 117.2(14) . .
C17 N5 Cu3 121.3(12) . .
C18 N5 Cu3 121.4(11) . .
C22 N6 C23 121.7(14) . .
C22 N6 C25 124.5(15) . .
C23 N6 C25 113.4(13) . .
C26 N7 C24 114.8(14) . .
C27 N7 C24 120.7(15) . .
C27 N7 C26 124.3(15) . .
C29 N8 Cu3 120.5(10) . 2_756
C30 N8 C29 116.6(14) . .
C30 N8 Cu3 122.6(11) . 2_756
loop_
_geom_bond_atom_site_label_1
_geom_bond_atom_site_label_2
_geom_bond_distance
_geom_bond_site_symmetry_2
C1 C5 1.365(18) .
C1 N1 1.360(18) .
C2 C3 1.34(2) .
C2 N1 1.371(19) .
C3 C4 1.37(2) .
C4 C5 1.39(2) .
C5 C6 1.54(2) .
C6 N2 1.287(19) .
C6 O40 1.235(19) .
C7 C8 1.49(2) 2_567
C7 N2 1.489(18) .
C8 C7 1.49(2) 2_567
C8 N2 1.484(17) .
C9 C11 1.39(2) .
C9 N3 1.351(18) .
C10 C13 1.404(19) .
C10 N3 1.362(18) .
C11 C12 1.38(2) .
C12 C13 1.38(2) .
C13 C14 1.53(2) .
C14 N4 1.34(2) .
C14 O39 1.230(19) .
C15 C16 1.45(2) .
C15 N4 1.44(2) .
C16 N4 1.48(2) 2_757
Co1 Co2 2.790(3) .
Co1 Mo1 2.983(2) .
Co1 Mo5 3.051(2) .
Co1 O19 1.882(9) .
Co1 O20 1.874(10) .
Co1 O23 1.925(9) .
Co1 O28 1.930(10) .
Co1 O29 1.940(9) .
Co1 O36 1.888(9) .
Co2 Mo6 3.037(2) .
Co2 Mo10 2.974(2) .
Co2 O4 1.880(9) .
Co2 O8 1.941(9) .
Co2 O12 1.938(9) .
Co2 O15 1.907(9) .
Co2 O19 1.895(10) .
Co2 O20 1.888(9) .
Cu1 N1 2.017(11) .
Cu1 N3 1.999(11) .
Cu1 O50 2.325(13) .
Cu1 O2 1.988(10) .
Cu1 O38 1.986(9) .
Cu2 O40 2.028(14) .
Cu2 O43 1.951(15) .
Cu2 O44 2.225(18) .
Cu2 O45 1.972(17) .
Cu2 O46 1.963(18) .
Mo1 O1 1.693(10) .
Mo1 O2 1.768(10) .
Mo1 O3 1.858(9) .
Mo1 O4 2.280(9) .
Mo1 O20 2.195(9) .
Mo1 O36 2.034(9) .
Mo2 O3 1.974(9) .
Mo2 O4 2.300(10) .
Mo2 O5 1.718(10) .
Mo2 O6 1.673(11) .
Mo2 O7 1.899(9) .
Mo2 O8 2.265(9) .
Mo3 O7 1.940(10) .
Mo3 O8 2.318(9) .
Mo3 O9 1.718(11) .
Mo3 O10 1.704(11) .
Mo3 O11 1.937(10) .
Mo3 O12 2.297(10) .
Mo4 O11 1.926(11) .
Mo4 O12 2.257(10) .
Mo4 O13 1.683(11) .
Mo4 O14 1.725(11) .
Mo4 O15 2.386(9) .
Mo4 O16 1.954(11) .
Mo5 O15 2.287(10) .
Mo5 O16 1.898(10) .
Mo5 O17 1.687(10) .
Mo5 O18 1.735(11) .
Mo5 O19 2.409(9) .
Mo5 O23 1.977(9) .
Mo6 O15 1.989(9) .
Mo6 O20 2.413(9) .
Mo6 O21 1.718(11) .
Mo6 O22 1.706(10) .
Mo6 O23 2.271(10) .
Mo6 O24 1.867(10) .
Mo7 O23 2.319(10) .
Mo7 O24 1.953(10) .
Mo7 O25 1.708(10) .
Mo7 O26 1.712(10) .
Mo7 O27 1.951(10) .
Mo7 O29 2.286(9) .
Mo8 O27 1.935(10) .
Mo8 O28 2.287(9) .
Mo8 O29 2.278(10) .
Mo8 O30 1.714(11) .
Mo8 O31 1.712(11) .
Mo8 O32 1.946(9) .
Mo9 O28 2.237(9) .
Mo9 O32 1.897(10) .
Mo9 O33 1.702(11) .
Mo9 O34 1.704(10) .
Mo9 O35 1.998(10) .
Mo9 O36 2.288(9) .
Mo10 O4 2.009(10) .
Mo10 O19 2.152(9) .
Mo10 O35 1.850(10) .
Mo10 O36 2.278(9) .
Mo10 O37 1.739(10) .
Mo10 O38 1.736(9) .
N4 C16 1.48(2) 2_757
C17 C19 1.36(2) .
C17 N5 1.32(2) .
C18 C21 1.35(2) .
C18 N5 1.35(2) .
C19 C20 1.35(3) .
C20 C21 1.33(3) .
C21 C22 1.52(3) .
C22 N6 1.34(3) .
C22 O41 1.27(2) .
C23 C24 1.42(2) .
C23 N6 1.46(2) .
C24 N7 1.48(2) .
C25 C26 1.51(2) .
C25 N6 1.49(2) .
C26 N7 1.44(2) .
C27 C28 1.48(2) .
C27 N7 1.31(2) .
C27 O42 1.26(2) .
C28 C29 1.41(2) .
C28 C32 1.37(3) .
C29 N8 1.356(19) .
C30 C31 1.38(2) .
C30 N8 1.35(2) .
C31 C32 1.38(3) .
Cu3 N5 2.019(12) .
Cu3 N8 2.012(13) 2_756
Cu3 O47 1.977(12) .
Cu3 O48 1.994(10) .
Cu3 O49 2.316(12) .
N8 Cu3 2.012(13) 2_756
loop_
_smtbx_masks_void_nr
_smtbx_masks_void_average_x
_smtbx_masks_void_average_y
_smtbx_masks_void_average_z
_smtbx_masks_void_volume
_smtbx_masks_void_count_electrons
1 0.101 0.000 0.000 734.0 327.7
2 0.444 0.938 0.407 7.2 0.0
3 0.556 0.062 0.593 7.2 0.0
